REMARK  Name = ZINC57415211
REMARK  11 active torsions:
REMARK  status: ('A' for Active; 'I' for Inactive)
REMARK    1  A    between atoms: C_1  and  C_2
REMARK    2  A    between atoms: C_2  and  C_3
REMARK    3  A    between atoms: C_6  and  C_9
REMARK    4  A    between atoms: C_11  and  C_32
REMARK    5  A    between atoms: C_12  and  C_17
REMARK    6  A    between atoms: C_17  and  N_18
REMARK    7  A    between atoms: N_21  and  C_24
REMARK    8  A    between atoms: C_28  and  C_31
REMARK    9  A    between atoms: C_29  and  C_30
REMARK   10  A    between atoms: C_32  and  O_34
REMARK   11  A    between atoms: O_34  and  C_35
REMARK                            x       y       z     vdW  Elec       q    Type
REMARK                         _______ _______ _______ _____ _____    ______ ____
ROOT
ATOM      1  C   UNL     1       2.711  -1.861  -4.758  0.00  0.00    +0.144 C 
ATOM      2  C   UNL     1       2.833  -3.371  -4.738  0.00  0.00    +0.079 C 
ATOM      3  C   UNL     1       4.074  -3.902  -4.772  0.00  0.00    +0.038 C 
ATOM      4  N   UNL     1       5.181  -3.103  -4.824  0.00  0.00    -0.271 N 
ATOM      5  C   UNL     1       5.131  -1.765  -4.844  0.00  0.00    +0.304 C 
ATOM      6  O   UNL     1       6.172  -1.139  -4.891  0.00  0.00    -0.252 OA
ATOM      7  N   UNL     1       3.965  -1.091  -4.814  0.00  0.00    -0.288 N 
ATOM      8  H   UNL     1       6.052  -3.529  -4.847  0.00  0.00    +0.156 HD
ATOM      9  H   UNL     1       3.953  -0.121  -4.830  0.00  0.00    +0.151 HD
ENDROOT
BRANCH   1  13
ATOM     10  C   UNL     1       0.587  -0.665  -1.250  0.00  0.00    -0.048 A 
ATOM     11  C   UNL     1      -0.087  -0.822  -2.447  0.00  0.00    +0.004 A 
ATOM     12  C   UNL     1       0.600  -1.208  -3.582  0.00  0.00    +0.006 A 
ATOM     13  C   UNL     1       1.962  -1.438  -3.521  0.00  0.00    -0.022 A 
ATOM     14  C   UNL     1       2.636  -1.281  -2.325  0.00  0.00    +0.006 A 
ATOM     15  C   UNL     1       1.949  -0.890  -1.190  0.00  0.00    +0.004 A 
BRANCH  10  17
ATOM     16  C   UNL     1      -0.174   1.283   0.081  0.00  0.00    +0.009 C 
ATOM     17  C   UNL     1      -0.163  -0.244  -0.013  0.00  0.00    +0.032 C 
ENDBRANCH  10  17
ENDBRANCH   1  13
BRANCH   2  18
ATOM     18  C   UNL     1       1.686  -4.197  -4.684  0.00  0.00    +0.339 C 
ATOM     19  O   UNL     1       1.033  -4.398  -5.691  0.00  0.00    -0.245 OA
BRANCH  18  20
ATOM     20  O   UNL     1       1.315  -4.761  -3.515  0.00  0.00    -0.465 OA
ATOM     21  C   UNL     1       0.147  -5.583  -3.534  0.00  0.00    +0.280 C 
ENDBRANCH  18  20
ENDBRANCH   2  18
BRANCH   3  22
ATOM     22  C   UNL     1       4.241  -5.399  -4.753  0.00  0.00    +0.136 C 
BRANCH  22  23
ATOM     23  N   UNL     1       4.850  -5.841  -6.015  0.00  0.00    -0.294 NA
ATOM     24  C   UNL     1       3.947  -5.597  -7.148  0.00  0.00    +0.103 C 
ATOM     25  C   UNL     1       4.684  -5.900  -8.457  0.00  0.00    +0.120 C 
ATOM     26  N   UNL     1       5.231  -7.263  -8.381  0.00  0.00    -0.327 N 
ATOM     27  C   UNL     1       6.034  -7.625  -7.203  0.00  0.00    +0.120 C 
ATOM     28  C   UNL     1       5.245  -7.254  -5.943  0.00  0.00    +0.103 C 
BRANCH  26  29
ATOM     29  C   UNL     1       4.995  -8.189  -9.399  0.00  0.00    +0.033 A 
ATOM     30  C   UNL     1       5.875  -8.286 -10.470  0.00  0.00    +0.023 A 
ATOM     31  C   UNL     1       5.639  -9.203 -11.475  0.00  0.00    +0.002 A 
ATOM     32  C   UNL     1       4.527 -10.024 -11.417  0.00  0.00    +0.004 A 
ATOM     33  C   UNL     1       3.649  -9.929 -10.353  0.00  0.00    -0.046 A 
ATOM     34  C   UNL     1       3.883  -9.018  -9.341  0.00  0.00    -0.027 A 
ATOM     35  C   UNL     1       2.928  -8.921  -8.179  0.00  0.00    +0.046 C 
ATOM     36  C   UNL     1       2.438 -10.825 -10.295  0.00  0.00    +0.044 C 
ENDBRANCH  26  29
ENDBRANCH  22  23
ENDBRANCH   3  22
TORSDOF 7
