REMARK  Name = ZINC28352282
REMARK  7 active torsions:
REMARK  status: ('A' for Active; 'I' for Inactive)
REMARK    1  A    between atoms: C_1  and  C_2
REMARK    2  A    between atoms: C_2  and  C_18
REMARK    3  A    between atoms: N_3  and  N_4
REMARK    4  A    between atoms: C_5  and  C_10
REMARK    5  A    between atoms: C_13  and  O_16
REMARK    6  A    between atoms: O_16  and  C_17
REMARK    7  A    between atoms: C_21  and  O_24
REMARK                            x       y       z     vdW  Elec       q    Type
REMARK                         _______ _______ _______ _____ _____    ______ ____
ROOT
ATOM      1  N   UNL     1       2.521   1.887   1.090  0.00  0.00    -0.188 N 
ATOM      2  C   UNL     1       3.783   2.125   0.590  0.00  0.00    +0.184 A 
ATOM      3  N   UNL     1       3.685   2.116  -0.720  0.00  0.00    -0.152 NA
ATOM      4  N   UNL     1       2.470   1.887  -1.069  0.00  0.00    -0.253 N 
ATOM      5  C   UNL     1       1.714   1.735  -0.005  0.00  0.00    +0.197 A 
ATOM      6  S   UNL     1      -0.017   1.406   0.010  0.00  0.00    -0.010 S 
ATOM      7  H   UNL     1       2.203   1.844  -2.136  0.00  0.00    +0.191 HD
ENDROOT
BRANCH   2   8
ATOM      8  C   UNL     1       5.012   2.354   1.377  0.00  0.00    +0.021 A 
ATOM      9  C   UNL     1       5.041   2.037   2.737  0.00  0.00    +0.015 A 
ATOM     10  C   UNL     1       6.191   2.248   3.467  0.00  0.00    +0.046 A 
ATOM     11  C   UNL     1       7.316   2.783   2.855  0.00  0.00    +0.120 A 
ATOM     12  C   UNL     1       7.290   3.104   1.504  0.00  0.00    +0.046 A 
ATOM     13  C   UNL     1       6.146   2.892   0.766  0.00  0.00    +0.015 A 
BRANCH  11  14
ATOM     14  O   UNL     1       8.446   2.994   3.580  0.00  0.00    -0.495 OA
ATOM     15  C   UNL     1       8.405   2.642   4.964  0.00  0.00    +0.277 C 
ENDBRANCH  11  14
ENDBRANCH   2   8
BRANCH   1  18
ATOM     16  C   UNL     1       2.629  -0.569   2.332  0.00  0.00    +0.068 C 
ATOM     17  C   UNL     1       2.181   0.673   3.059  0.00  0.00    +0.066 C 
ATOM     18  N   UNL     1       2.145   1.812   2.438  0.00  0.00    -0.167 NA
BRANCH  17  19
ATOM     19  C   UNL     1       1.785   0.594   4.477  0.00  0.00    -0.002 A 
ATOM     20  C   UNL     1       1.818  -0.632   5.147  0.00  0.00    +0.013 A 
ATOM     21  C   UNL     1       1.451  -0.700   6.473  0.00  0.00    +0.046 A 
ATOM     22  C   UNL     1       1.039   0.446   7.142  0.00  0.00    +0.117 A 
ATOM     23  C   UNL     1       0.999   1.666   6.478  0.00  0.00    +0.046 A 
ATOM     24  C   UNL     1       1.369   1.744   5.153  0.00  0.00    +0.013 A 
BRANCH  22  25
ATOM     25  O   UNL     1       0.674   0.374   8.448  0.00  0.00    -0.507 OA
ATOM     26  H   UNL     1       0.347   1.280   8.979  0.00  0.00    +0.292 HD
ENDBRANCH  22  25
ENDBRANCH  17  19
ENDBRANCH   1  18
TORSDOF 5
