REMARK  Name = ZINC05483041
REMARK  6 active torsions:
REMARK  status: ('A' for Active; 'I' for Inactive)
REMARK    1  A    between atoms: C_4  and  N_7
REMARK    2  A    between atoms: N_7  and  C_8
REMARK    3  A    between atoms: N_7  and  N_14
REMARK    4  A    between atoms: C_15  and  C_16
REMARK    5  A    between atoms: C_19  and  O_23
REMARK    6  A    between atoms: C_21  and  O_22
REMARK                            x       y       z     vdW  Elec       q    Type
REMARK                         _______ _______ _______ _____ _____    ______ ____
ROOT
ATOM      1  N   UNL     1      -4.851   3.907   0.177  0.00  0.00    -0.193 N 
ENDROOT
BRANCH   1   5
ATOM      2  C   UNL     1      -5.298   8.039  -0.078  0.00  0.00    +0.000 A 
ATOM      3  C   UNL     1      -4.493   7.492   0.905  0.00  0.00    +0.002 A 
ATOM      4  C   UNL     1      -4.343   6.122   0.993  0.00  0.00    +0.025 A 
ATOM      5  C   UNL     1      -5.001   5.293   0.091  0.00  0.00    +0.057 A 
ATOM      6  C   UNL     1      -5.804   5.848  -0.898  0.00  0.00    +0.025 A 
ATOM      7  C   UNL     1      -5.954   7.218  -0.976  0.00  0.00    +0.002 A 
ENDBRANCH   1   5
BRANCH   1   8
ATOM      8  C   UNL     1      -5.976   3.090   0.311  0.00  0.00    +0.057 A 
ATOM      9  C   UNL     1      -7.220   3.654   0.567  0.00  0.00    +0.025 A 
ATOM     10  C   UNL     1      -8.331   2.844   0.694  0.00  0.00    +0.002 A 
ATOM     11  C   UNL     1      -8.204   1.471   0.578  0.00  0.00    +0.000 A 
ATOM     12  C   UNL     1      -6.967   0.906   0.328  0.00  0.00    +0.002 A 
ATOM     13  C   UNL     1      -5.853   1.711   0.195  0.00  0.00    +0.025 A 
ENDBRANCH   1   8
BRANCH   1  14
ATOM     14  N   UNL     1      -3.573   3.337   0.127  0.00  0.00    -0.182 NA
ATOM     15  C   UNL     1      -2.537   4.083  -0.110  0.00  0.00    +0.142 C 
BRANCH  15  16
ATOM     16  C   UNL     1      -1.184   3.501  -0.070  0.00  0.00    +0.036 A 
ATOM     17  C   UNL     1      -0.068   4.302  -0.325  0.00  0.00    +0.016 A 
ATOM     18  C   UNL     1       1.196   3.754  -0.286  0.00  0.00    +0.046 A 
ATOM     19  C   UNL     1       1.364   2.405   0.006  0.00  0.00    +0.120 A 
ATOM     20  C   UNL     1       0.262   1.602   0.261  0.00  0.00    +0.091 A 
ATOM     21  C   UNL     1      -1.012   2.140   0.219  0.00  0.00    +0.129 A 
BRANCH  21  22
ATOM     22  O   UNL     1      -2.092   1.353   0.462  0.00  0.00    -0.506 OA
ATOM     23  H   UNL     1      -2.352   1.319   1.393  0.00  0.00    +0.292 HD
ENDBRANCH  21  22
BRANCH  19  24
ATOM     24  O   UNL     1       2.613   1.872   0.042  0.00  0.00    -0.507 OA
ATOM     25  H   UNL     1       2.917   1.524  -0.807  0.00  0.00    +0.292 HD
ENDBRANCH  19  24
ENDBRANCH  15  16
ENDBRANCH   1  14
TORSDOF 6
