REMARK  Name = ZINC06149513
REMARK  8 active torsions:
REMARK  status: ('A' for Active; 'I' for Inactive)
REMARK    1  A    between atoms: C_1  and  C_2
REMARK    2  A    between atoms: C_2  and  C_3
REMARK    3  A    between atoms: C_3  and  C_4
REMARK    4  A    between atoms: C_3  and  C_5
REMARK    5  A    between atoms: C_3  and  N_6
REMARK    6  A    between atoms: C_7  and  C_11
REMARK    7  A    between atoms: C_11  and  C_13
REMARK    8  A    between atoms: C_11  and  N_66
REMARK                            x       y       z     vdW  Elec       q    Type
REMARK                         _______ _______ _______ _____ _____    ______ ____
ROOT
ATOM      1  C   UNL     1      -1.287   2.161   0.568  0.00  0.00    +0.039 C 
ENDROOT
BRANCH   1   2
ATOM      2  C   UNL     1      -1.661   1.938   2.011  0.00  0.00    +0.011 A 
ATOM      3  C   UNL     1      -1.506   0.710   2.567  0.00  0.00    +0.017 A 
ATOM      4  C   UNL     1      -1.873   0.527   3.971  0.00  0.00    +0.002 A 
ATOM      5  C   UNL     1      -1.729  -0.715   4.600  0.00  0.00    +0.059 A 
ATOM      6  C   UNL     1      -2.091  -0.859   5.923  0.00  0.00    +0.163 A 
ATOM      7  C   UNL     1      -2.597   0.231   6.637  0.00  0.00    +0.164 A 
ATOM      8  C   UNL     1      -2.741   1.463   6.024  0.00  0.00    +0.075 A 
ATOM      9  C   UNL     1      -2.384   1.625   4.692  0.00  0.00    +0.053 A 
ATOM     10  N   UNL     1      -2.522   2.846   4.064  0.00  0.00    -0.322 N 
ATOM     11  H   UNL     1      -2.884   3.625   4.577  0.00  0.00    +0.169 HD
ATOM     12  C   UNL     1      -2.176   3.005   2.775  0.00  0.00    +0.251 A 
ATOM     13  O   UNL     1      -2.311   4.099   2.254  0.00  0.00    -0.268 OA
ATOM     14  O   UNL     1      -2.952   0.098   7.944  0.00  0.00    -0.485 OA
ATOM     15  C   UNL     1      -3.148  -1.235   8.426  0.00  0.00    +0.270 C 
ATOM     16  C   UNL     1      -1.971  -2.097   7.951  0.00  0.00    +0.270 C 
ATOM     17  O   UNL     1      -1.949  -2.076   6.519  0.00  0.00    -0.485 OA
ENDBRANCH   1   2
BRANCH   1  27
ATOM     18  C   UNL     1      -3.361   3.192  -0.147  0.00  0.00    -0.072 C 
ATOM     19  C   UNL     1      -4.374   3.166  -1.292  0.00  0.00    +0.017 C 
ATOM     20  C   UNL     1      -5.033   1.812  -1.365  0.00  0.00    -0.048 A 
ATOM     21  C   UNL     1      -6.211   1.688  -2.086  0.00  0.00    +0.004 A 
ATOM     22  C   UNL     1      -6.842   0.465  -2.185  0.00  0.00    +0.000 A 
ATOM     23  C   UNL     1      -6.297  -0.643  -1.563  0.00  0.00    +0.000 A 
ATOM     24  C   UNL     1      -5.126  -0.520  -0.843  0.00  0.00    +0.002 A 
ATOM     25  C   UNL     1      -4.491   0.709  -0.741  0.00  0.00    -0.061 A 
ATOM     26  C   UNL     1      -3.217   0.794   0.059  0.00  0.00    -0.041 C 
ATOM     27  N   UNL     1      -2.479   2.017  -0.299  0.00  0.00    +0.392 N 
ATOM     28  H   UNL     1      -2.174   1.951  -1.277  0.00  0.00    -0.080 HD
ENDBRANCH   1  27
BRANCH   1  30
ATOM     29  N   UNL     1       1.056   1.366  -0.048  0.00  0.00    -0.225 N 
ATOM     30  C   UNL     1      -0.256   1.144   0.153  0.00  0.00    +0.143 A 
ATOM     31  N   UNL     1      -0.463  -0.128  -0.086  0.00  0.00    -0.115 NA
ATOM     32  N   UNL     1       0.663  -0.659  -0.418  0.00  0.00    -0.023 NA
ATOM     33  N   UNL     1       1.583   0.241  -0.396  0.00  0.00    -0.043 NA
BRANCH  29  34
ATOM     34  C   UNL     1       1.755   2.645   0.099  0.00  0.00    +0.061 C 
ATOM     35  C   UNL     1       1.249   3.627  -0.960  0.00  0.00    +0.036 C 
ATOM     36  C   UNL     1       1.487   3.216   1.493  0.00  0.00    +0.036 C 
BRANCH  34  38
ATOM     37  C   UNL     1       3.988   3.765   0.070  0.00  0.00    +0.006 C 
ATOM     38  C   UNL     1       3.259   2.429  -0.084  0.00  0.00    +0.026 C 
ENDBRANCH  34  38
ENDBRANCH  29  34
ENDBRANCH   1  30
TORSDOF 5
