REMARK  Name = ZINC07654878
REMARK  6 active torsions:
REMARK  status: ('A' for Active; 'I' for Inactive)
REMARK    1  A    between atoms: C_1  and  C_2
REMARK    2  A    between atoms: C_3  and  C_27
REMARK    3  A    between atoms: C_11  and  C_13
REMARK    4  A    between atoms: C_13  and  C_14
REMARK    5  A    between atoms: N_16  and  N_17
REMARK    6  A    between atoms: C_18  and  C_19
REMARK                            x       y       z     vdW  Elec       q    Type
REMARK                         _______ _______ _______ _____ _____    ______ ____
ROOT
ATOM      1  C   UNL     1       7.222   4.157  -0.042  0.00  0.00    +0.171 C 
ENDROOT
BRANCH   1  12
ATOM      2  C   UNL     1      12.951   0.675  -0.114  0.00  0.00    +0.045 C 
ATOM      3  C   UNL     1      11.475   0.372  -0.102  0.00  0.00    -0.026 A 
ATOM      4  C   UNL     1      11.043  -0.899  -0.104  0.00  0.00    -0.008 A 
ATOM      5  S   UNL     1       9.268  -0.732  -0.087  0.00  0.00    -0.073 S 
ATOM      6  C   UNL     1       9.159   1.039  -0.077  0.00  0.00    +0.116 A 
ATOM      7  C   UNL     1      10.504   1.450  -0.087  0.00  0.00    +0.075 A 
ATOM      8  C   UNL     1      10.719   2.867  -0.081  0.00  0.00    +0.260 A 
ATOM      9  O   UNL     1      11.850   3.322  -0.089  0.00  0.00    -0.267 OA
ATOM     10  N   UNL     1       9.652   3.688  -0.073  0.00  0.00    -0.310 N 
ATOM     11  H   UNL     1       9.795   4.678  -0.077  0.00  0.00    +0.170 HD
ATOM     12  C   UNL     1       8.385   3.199  -0.058  0.00  0.00    +0.120 A 
ATOM     13  N   UNL     1       8.156   1.913  -0.063  0.00  0.00    -0.226 NA
ATOM     14  C   UNL     1      11.861  -2.164  -0.119  0.00  0.00    +0.052 C 
ENDBRANCH   1  12
BRANCH   1  15
ATOM     15  C   UNL     1       5.931   3.380  -0.035  0.00  0.00    +0.239 C 
ATOM     16  O   UNL     1       5.953   2.167  -0.041  0.00  0.00    -0.274 OA
ATOM     17  N   UNL     1       4.752   4.033  -0.020  0.00  0.00    -0.207 N 
ATOM     18  H   UNL     1       4.734   5.003  -0.015  0.00  0.00    +0.177 HD
BRANCH  17  19
ATOM     19  N   UNL     1       3.551   3.311  -0.013  0.00  0.00    -0.188 NA
ATOM     20  C   UNL     1       2.416   3.939   0.001  0.00  0.00    +0.139 C 
BRANCH  20  21
ATOM     21  C   UNL     1       1.153   3.179   0.008  0.00  0.00    +0.013 A 
ATOM     22  C   UNL     1      -0.071   3.852   0.023  0.00  0.00    +0.012 A 
ATOM     23  C   UNL     1      -1.249   3.135   0.031  0.00  0.00    +0.021 A 
ATOM     24  C   UNL     1      -1.222   1.750   0.017  0.00  0.00    +0.042 A 
ATOM     25  C   UNL     1      -0.013   1.076   0.008  0.00  0.00    +0.040 A 
ATOM     26  C   UNL     1       1.174   1.781   0.000  0.00  0.00    +0.051 A 
ATOM     27 CL   UNL     1       2.690   0.934  -0.018  0.00  0.00    -0.083 Cl
ATOM     28 CL   UNL     1      -2.710   0.856   0.020  0.00  0.00    -0.083 Cl
ENDBRANCH  20  21
ENDBRANCH  17  19
ENDBRANCH   1  15
TORSDOF 4
