REMARK  Name = ZINC25464944
REMARK  5 active torsions:
REMARK  status: ('A' for Active; 'I' for Inactive)
REMARK    1  A    between atoms: C_1  and  C_2
REMARK    2  A    between atoms: C_2  and  C_4
REMARK    3  A    between atoms: C_2  and  N_9
REMARK    4  A    between atoms: C_10  and  C_12
REMARK    5  A    between atoms: N_14  and  C_17
REMARK                            x       y       z     vdW  Elec       q    Type
REMARK                         _______ _______ _______ _____ _____    ______ ____
ROOT
ATOM      1  C   UNL     1      -2.455   0.869   0.018  0.00  0.00    +0.167 A 
ATOM      2  C   UNL     1      -3.708   1.413   0.027  0.00  0.00    +0.149 A 
ATOM      3  N   UNL     1      -4.581   0.382   0.026  0.00  0.00    -0.219 N 
ATOM      4  N   UNL     1      -3.817  -0.794   0.016  0.00  0.00    -0.060 NA
ATOM      5  N   UNL     1      -2.572  -0.470   0.006  0.00  0.00    -0.124 NA
ENDROOT
BRANCH   3   6
ATOM      6  C   UNL     1      -5.980   0.471   0.033  0.00  0.00    +0.068 A 
ATOM      7  C   UNL     1      -6.598   1.714   0.049  0.00  0.00    +0.028 A 
ATOM      8  C   UNL     1      -7.976   1.799   0.051  0.00  0.00    +0.003 A 
ATOM      9  C   UNL     1      -8.742   0.647   0.048  0.00  0.00    +0.015 A 
ATOM     10  C   UNL     1      -8.129  -0.593   0.038  0.00  0.00    +0.020 A 
ATOM     11  C   UNL     1      -6.750  -0.684   0.031  0.00  0.00    +0.043 A 
ATOM     12 BR   UNL     1      -9.180  -2.165   0.035  0.00  0.00    -0.050 Br
ENDBRANCH   3   6
BRANCH   1  14
ATOM     13  N   UNL     1      -0.011   0.966   0.007  0.00  0.00    -0.300 N 
ATOM     14  C   UNL     1      -1.187   1.624   0.017  0.00  0.00    +0.266 C 
ATOM     15  O   UNL     1      -1.204   2.840   0.023  0.00  0.00    -0.268 OA
ATOM     16  H   UNL     1       0.004  -0.134   0.006  0.00  0.00    +0.150 HD
BRANCH  13  18
ATOM     17  C   UNL     1       1.608   2.092  -1.439  0.00  0.00    +0.036 C 
ATOM     18  C   UNL     1       1.248   1.716  -0.001  0.00  0.00    +0.136 C 
BRANCH  18  19
ATOM     19  C   UNL     1       2.344   0.863   0.585  0.00  0.00    +0.125 A 
ATOM     20  C   UNL     1       3.320   1.291   1.405  0.00  0.00    +0.046 A 
ATOM     21  C   UNL     1       4.121   0.167   1.710  0.00  0.00    +0.041 A 
ATOM     22  C   UNL     1       3.591  -0.879   1.051  0.00  0.00    +0.195 A 
ATOM     23  O   UNL     1       2.515  -0.452   0.372  0.00  0.00    -0.466 OA
ENDBRANCH  18  19
ENDBRANCH  13  18
ENDBRANCH   1  14
TORSDOF 4
