REMARK  Name = ZINC02970656
REMARK  6 active torsions:
REMARK  status: ('A' for Active; 'I' for Inactive)
REMARK    1  A    between atoms: C_4  and  C_7
REMARK    2  A    between atoms: C_7  and  C_9
REMARK    3  A    between atoms: C_9  and  S_10
REMARK    4  A    between atoms: S_10  and  C_11
REMARK    5  A    between atoms: C_15  and  C_28
REMARK    6  A    between atoms: C_33  and  C_36
REMARK                            x       y       z     vdW  Elec       q    Type
REMARK                         _______ _______ _______ _____ _____    ______ ____
ROOT
ATOM      1  C   UNL     1       1.560   4.614  -0.743  0.00  0.00    +0.176 A 
ATOM      2  N   UNL     1       1.018   5.803  -0.706  0.00  0.00    -0.223 NA
ATOM      3  C   UNL     1      -0.278   5.994  -0.355  0.00  0.00    +0.078 A 
ATOM      4  C   UNL     1      -0.840   7.271  -0.322  0.00  0.00    +0.041 A 
ATOM      5  C   UNL     1      -2.173   7.423   0.044  0.00  0.00    +0.039 A 
ATOM      6  C   UNL     1      -2.949   6.307   0.379  0.00  0.00    +0.014 A 
ATOM      7  C   UNL     1      -2.409   5.053   0.350  0.00  0.00    +0.014 A 
ATOM      8  C   UNL     1      -1.075   4.878  -0.014  0.00  0.00    +0.043 A 
ATOM      9  C   UNL     1      -0.454   3.545  -0.058  0.00  0.00    +0.150 A 
ATOM     10  N   UNL     1       0.870   3.471  -0.429  0.00  0.00    -0.271 N 
ATOM     11  C   UNL     1       1.225   2.136  -0.396  0.00  0.00    +0.076 A 
ATOM     12  C   UNL     1       2.400   1.445  -0.662  0.00  0.00    +0.028 A 
ATOM     13  C   UNL     1       2.431   0.073  -0.532  0.00  0.00    +0.002 A 
ATOM     14  C   UNL     1       1.297  -0.623  -0.137  0.00  0.00    +0.002 A 
ATOM     15  C   UNL     1       0.132   0.038   0.129  0.00  0.00    +0.030 A 
ATOM     16  C   UNL     1       0.076   1.431   0.004  0.00  0.00    +0.090 A 
ATOM     17  N   UNL     1      -0.908   2.341   0.199  0.00  0.00    -0.227 NA
ENDROOT
BRANCH   5  18
ATOM     18  C   UNL     1      -2.775   8.773   0.080  0.00  0.00    +0.247 C 
ATOM     19  O   UNL     1      -3.825   8.986  -0.493  0.00  0.00    -0.270 OA
ATOM     20  N   UNL     1      -2.159   9.768   0.750  0.00  0.00    -0.297 N 
ATOM     21  C   UNL     1      -0.852   9.546   1.384  0.00  0.00    +0.109 C 
ATOM     22  C   UNL     1      -0.937   9.953   2.854  0.00  0.00    +0.032 C 
ATOM     23  C   UNL     1      -1.449  11.391   2.954  0.00  0.00    +0.078 C 
ATOM     24  C   UNL     1      -2.850  11.480   2.346  0.00  0.00    +0.032 C 
ATOM     25  C   UNL     1      -2.785  11.092   0.865  0.00  0.00    +0.109 C 
BRANCH  23  26
ATOM     26  C   UNL     1      -1.504  11.804   4.403  0.00  0.00    +0.214 C 
ATOM     27  O   UNL     1      -2.560  12.137   4.899  0.00  0.00    -0.276 OA
ATOM     28  N   UNL     1      -0.380  11.805   5.146  0.00  0.00    -0.329 N 
ATOM     29  H   UNL     1       0.464  11.539   4.750  0.00  0.00    +0.145 HD
ATOM     30  H   UNL     1      -0.415  12.071   6.079  0.00  0.00    +0.145 HD
ENDBRANCH  23  26
ENDBRANCH   5  18
BRANCH   1  31
ATOM     31  S   UNL     1       3.252   4.473  -1.213  0.00  0.00    -0.079 S 
BRANCH  31  32
ATOM     32  C   UNL     1       3.644   6.216  -1.502  0.00  0.00    +0.157 C 
BRANCH  32  33
ATOM     33  C   UNL     1       5.084   6.344  -1.927  0.00  0.00    +0.173 C 
ATOM     34  O   UNL     1       5.777   5.354  -2.025  0.00  0.00    -0.291 OA
BRANCH  33  38
ATOM     35  C   UNL     1       6.714  10.166  -2.780  0.00  0.00    +0.000 A 
ATOM     36  C   UNL     1       7.508   9.038  -2.894  0.00  0.00    +0.001 A 
ATOM     37  C   UNL     1       6.986   7.792  -2.618  0.00  0.00    +0.011 A 
ATOM     38  C   UNL     1       5.649   7.670  -2.223  0.00  0.00    +0.018 A 
ATOM     39  C   UNL     1       4.852   8.813  -2.117  0.00  0.00    +0.011 A 
ATOM     40  C   UNL     1       5.391  10.053  -2.390  0.00  0.00    +0.001 A 
ENDBRANCH  33  38
ENDBRANCH  32  33
ENDBRANCH  31  32
ENDBRANCH   1  31
TORSDOF 6
