REMARK  Name = ZINC39696640
REMARK  6 active torsions:
REMARK  status: ('A' for Active; 'I' for Inactive)
REMARK    1  A    between atoms: C_1  and  N_2
REMARK    2  A    between atoms: C_6  and  C_9
REMARK    3  A    between atoms: C_9  and  N_10
REMARK    4  A    between atoms: C_11  and  C_13
REMARK    5  A    between atoms: C_24  and  C_26
REMARK    6  A    between atoms: C_31  and  C_32
REMARK                            x       y       z     vdW  Elec       q    Type
REMARK                         _______ _______ _______ _____ _____    ______ ____
ROOT
ATOM      1  C   UNL     1       2.798  -6.669   2.825  0.00  0.00    +0.100 C 
ATOM      2  C   UNL     1       1.319  -7.112   2.873  0.00  0.00    +0.121 C 
ATOM      3  N   UNL     1       1.310  -8.291   3.770  0.00  0.00    -0.296 N 
ATOM      4  C   UNL     1       2.267  -7.942   4.848  0.00  0.00    +0.115 C 
ATOM      5  C   UNL     1       3.417  -7.216   4.122  0.00  0.00    -0.004 C 
ATOM      6  C   UNL     1       4.540  -8.196   3.800  0.00  0.00    -0.010 C 
ATOM      7  C   UNL     1       5.177  -8.682   5.105  0.00  0.00    -0.082 C 
ATOM      8  N   UNL     1       5.702  -7.534   5.853  0.00  0.00    +0.379 N 
ATOM      9  C   UNL     1       4.602  -6.642   6.239  0.00  0.00    -0.082 C 
ATOM     10  C   UNL     1       3.941  -6.070   4.982  0.00  0.00    -0.010 C 
ATOM     11  C   UNL     1       0.594  -9.425   3.636  0.00  0.00    +0.247 C 
ATOM     12  O   UNL     1       0.619 -10.267   4.513  0.00  0.00    -0.270 OA
ATOM     13  H   UNL     1       6.174  -7.862   6.683  0.00  0.00    -0.086 HD
ATOM     14  H   UNL     1       6.356  -7.028   5.275  0.00  0.00    -0.086 HD
ENDROOT
BRANCH  11  15
ATOM     15  C   UNL     1      -0.222  -9.646   2.423  0.00  0.00    +0.049 A 
ATOM     16  C   UNL     1      -0.889  -8.576   1.823  0.00  0.00    +0.013 A 
ATOM     17  C   UNL     1      -1.648  -8.788   0.691  0.00  0.00    +0.001 A 
ATOM     18  C   UNL     1      -1.750 -10.058   0.151  0.00  0.00    +0.001 A 
ATOM     19  C   UNL     1      -1.092 -11.123   0.741  0.00  0.00    +0.013 A 
ATOM     20  C   UNL     1      -0.325 -10.923   1.870  0.00  0.00    +0.067 A 
BRANCH  20  21
ATOM     21  C   UNL     1       0.396 -12.082   2.508  0.00  0.00    +0.418 C 
ATOM     22  F   UNL     1       0.142 -13.248   1.778  0.00  0.00    -0.166 F 
ATOM     23  F   UNL     1       1.772 -11.828   2.517  0.00  0.00    -0.166 F 
ATOM     24  F   UNL     1      -0.056 -12.246   3.822  0.00  0.00    -0.166 F 
ENDBRANCH  20  21
ENDBRANCH  11  15
BRANCH   1  26
ATOM     25  N   UNL     1       3.940  -4.572   2.180  0.00  0.00    -0.313 N 
ATOM     26  C   UNL     1       2.895  -5.165   2.790  0.00  0.00    +0.218 C 
ATOM     27  O   UNL     1       2.033  -4.490   3.311  0.00  0.00    -0.275 OA
ATOM     28  H   UNL     1       4.630  -5.112   1.764  0.00  0.00    +0.149 HD
BRANCH  25  29
ATOM     29  C   UNL     1       4.035  -3.110   2.147  0.00  0.00    +0.137 C 
BRANCH  29  35
ATOM     30  C   UNL     1       6.873   0.668   0.769  0.00  0.00    +0.105 C 
ATOM     31  N   UNL     1       6.648  -0.781   0.684  0.00  0.00    -0.301 NA
ATOM     32  C   UNL     1       6.513  -1.212  -0.715  0.00  0.00    +0.112 C 
ATOM     33  C   UNL     1       6.340  -2.733  -0.760  0.00  0.00    +0.175 C 
ATOM     34  O   UNL     1       5.207  -3.102   0.032  0.00  0.00    -0.372 OA
ATOM     35  C   UNL     1       5.305  -2.698   1.400  0.00  0.00    +0.149 C 
ATOM     36  C   UNL     1       5.468  -1.177   1.467  0.00  0.00    +0.117 C 
ENDBRANCH  29  35
ENDBRANCH  25  29
ENDBRANCH   1  26
TORSDOF 5
