REMARK  Name = ZINC08416703
REMARK  10 active torsions:
REMARK  status: ('A' for Active; 'I' for Inactive)
REMARK    1  A    between atoms: C_1  and  C_2
REMARK    2  A    between atoms: C_4  and  C_34
REMARK    3  A    between atoms: C_5  and  C_17
REMARK    4  A    between atoms: C_7  and  C_8
REMARK    5  A    between atoms: C_8  and  S_9
REMARK    6  A    between atoms: S_9  and  C_10
REMARK    7  A    between atoms: C_27  and  C_33
REMARK    8  A    between atoms: C_28  and  C_29
REMARK    9  A    between atoms: C_29  and  O_31
REMARK   10  A    between atoms: O_31  and  C_32
REMARK                            x       y       z     vdW  Elec       q    Type
REMARK                         _______ _______ _______ _____ _____    ______ ____
ROOT
ATOM      1  C   UNL     1      -2.703   4.626  -2.550  0.00  0.00    +0.044 C 
ATOM      2  C   UNL     1      -3.092   5.157  -1.194  0.00  0.00    -0.046 A 
ATOM      3  C   UNL     1      -4.144   6.046  -1.076  0.00  0.00    +0.007 A 
ATOM      4  C   UNL     1      -4.498   6.537   0.167  0.00  0.00    -0.046 A 
ATOM      5  C   UNL     1      -3.801   6.136   1.292  0.00  0.00    -0.032 A 
ATOM      6  C   UNL     1      -2.752   5.245   1.174  0.00  0.00    +0.009 A 
ATOM      7  C   UNL     1      -2.399   4.753  -0.069  0.00  0.00    -0.034 A 
ATOM      8  C   UNL     1      -5.643   7.508   0.296  0.00  0.00    +0.044 C 
ENDROOT
BRANCH   5   9
ATOM      9  C   UNL     1      -4.187   6.671   2.647  0.00  0.00    +0.092 C 
ATOM     10  C   UNL     1      -3.022   7.433   3.228  0.00  0.00    +0.024 C 
ATOM     11  C   UNL     1      -2.250   6.884   4.189  0.00  0.00    +0.015 C 
ATOM     12  C   UNL     1      -1.085   7.641   4.778  0.00  0.00    +0.051 C 
ATOM     13  C   UNL     1      -0.500   8.585   3.725  0.00  0.00    +0.014 C 
ATOM     14  C   UNL     1      -1.607   9.537   3.258  0.00  0.00    +0.080 C 
ATOM     15  C   UNL     1      -2.763   8.726   2.740  0.00  0.00    +0.162 C 
ATOM     16  O   UNL     1      -3.486   9.197   1.885  0.00  0.00    -0.292 OA
ATOM     17  N   UNL     1      -2.512   5.623   4.655  0.00  0.00    -0.321 N 
ATOM     18  C   UNL     1      -3.744   5.058   4.479  0.00  0.00    +0.016 C 
ATOM     19  C   UNL     1      -4.579   5.527   3.535  0.00  0.00    +0.065 C 
ATOM     20  C   UNL     1      -4.169   3.902   5.346  0.00  0.00    +0.061 C 
ATOM     21  H   UNL     1      -1.728   5.056   5.177  0.00  0.00    +0.152 HD
BRANCH  19  22
ATOM     22  C   UNL     1      -5.852   4.932   3.378  0.00  0.00    +0.337 C 
ATOM     23  O   UNL     1      -6.182   4.003   4.092  0.00  0.00    -0.245 OA
BRANCH  22  24
ATOM     24  O   UNL     1      -6.701   5.393   2.435  0.00  0.00    -0.465 OA
ATOM     25  C   UNL     1      -7.970   4.744   2.332  0.00  0.00    +0.280 C 
ENDBRANCH  22  24
ENDBRANCH  19  22
ENDBRANCH   5   9
BRANCH   7  26
ATOM     26  C   UNL     1      -1.254   3.781  -0.198  0.00  0.00    +0.109 C 
BRANCH  26  27
ATOM     27  S   UNL     1      -1.881   2.086  -0.041  0.00  0.00    -0.121 S 
BRANCH  27  28
ATOM     28  C   UNL     1      -0.442   1.083  -0.211  0.00  0.00    +0.008 A 
ATOM     29  C   UNL     1       0.798   1.674  -0.420  0.00  0.00    +0.016 A 
ATOM     30  C   UNL     1       1.923   0.885  -0.558  0.00  0.00    +0.016 A 
ATOM     31  C   UNL     1       1.816  -0.493  -0.489  0.00  0.00    +0.018 A 
ATOM     32  C   UNL     1       0.582  -1.085  -0.282  0.00  0.00    +0.016 A 
ATOM     33  C   UNL     1      -0.546  -0.301  -0.142  0.00  0.00    +0.016 A 
ATOM     34 BR   UNL     1       3.359  -1.570  -0.680  0.00  0.00    -0.050 Br
ENDBRANCH  27  28
ENDBRANCH  26  27
ENDBRANCH   7  26
TORSDOF 6
