REMARK  Name = ZINC48642362
REMARK  8 active torsions:
REMARK  status: ('A' for Active; 'I' for Inactive)
REMARK    1  A    between atoms: C_1  and  C_2
REMARK    2  A    between atoms: N_6  and  C_10
REMARK    3  A    between atoms: C_10  and  C_12
REMARK    4  A    between atoms: C_10  and  C_13
REMARK    5  A    between atoms: C_16  and  C_19
REMARK    6  A    between atoms: C_19  and  C_20
REMARK    7  A    between atoms: C_19  and  C_21
REMARK    8  A    between atoms: C_19  and  C_22
REMARK                            x       y       z     vdW  Elec       q    Type
REMARK                         _______ _______ _______ _____ _____    ______ ____
ROOT
ATOM      1  C   UNL     1      -2.661  -1.987   1.667  0.00  0.00    +0.110 C 
ATOM      2  C   UNL     1      -3.302  -1.582   2.996  0.00  0.00    +0.033 C 
ENDROOT
BRANCH   1   7
ATOM      3  C   UNL     1       1.951  -1.106   1.794  0.00  0.00    +0.038 C 
ATOM      4  C   UNL     1       0.647  -0.306   1.824  0.00  0.00    +0.155 C 
ATOM      5  C   UNL     1      -0.465  -1.123   2.450  0.00  0.00    +0.242 C 
ATOM      6  O   UNL     1      -0.505  -1.562   3.580  0.00  0.00    -0.273 OA
ATOM      7  N   UNL     1      -1.402  -1.259   1.491  0.00  0.00    -0.245 N 
ATOM      8  C   UNL     1      -1.039  -0.648   0.357  0.00  0.00    +0.140 C 
ATOM      9  S   UNL     1      -1.998  -0.626  -1.061  0.00  0.00    -0.018 S 
ATOM     10  N   UNL     1       0.165  -0.049   0.456  0.00  0.00    -0.315 N 
ATOM     11  H   UNL     1       0.625   0.451  -0.236  0.00  0.00    +0.148 HD
ENDBRANCH   1   7
BRANCH   1  12
ATOM     12  C   UNL     1      -2.388  -3.469   1.672  0.00  0.00    -0.027 A 
ATOM     13  C   UNL     1      -1.203  -3.952   2.196  0.00  0.00    +0.006 A 
ATOM     14  C   UNL     1      -0.953  -5.311   2.201  0.00  0.00    +0.004 A 
ATOM     15  C   UNL     1      -1.887  -6.188   1.682  0.00  0.00    -0.042 A 
ATOM     16  C   UNL     1      -3.072  -5.705   1.159  0.00  0.00    +0.004 A 
ATOM     17  C   UNL     1      -3.324  -4.346   1.158  0.00  0.00    +0.006 A 
BRANCH  15  18
ATOM     18  C   UNL     1      -1.613  -7.670   1.687  0.00  0.00    -0.013 C 
ATOM     19  C   UNL     1      -1.417  -8.148   3.127  0.00  0.00    +0.015 C 
ATOM     20  C   UNL     1      -2.798  -8.409   1.060  0.00  0.00    +0.015 C 
ATOM     21  C   UNL     1      -0.347  -7.957   0.877  0.00  0.00    +0.015 C 
ENDBRANCH  15  18
ENDBRANCH   1  12
TORSDOF 3
