REMARK  Name = ZINC36648022
REMARK  11 active torsions:
REMARK  status: ('A' for Active; 'I' for Inactive)
REMARK    1  A    between atoms: C_1  and  C_2
REMARK    2  A    between atoms: C_2  and  O_3
REMARK    3  A    between atoms: O_3  and  C_4
REMARK    4  A    between atoms: C_4  and  C_6
REMARK    5  A    between atoms: C_10  and  N_11
REMARK    6  A    between atoms: C_12  and  C_14
REMARK    7  A    between atoms: N_20  and  S_21
REMARK    8  A    between atoms: S_21  and  C_24
REMARK    9  A    between atoms: N_30  and  C_33
REMARK   10  A    between atoms: C_33  and  C_34
REMARK   11  A    between atoms: C_33  and  C_35
REMARK                            x       y       z     vdW  Elec       q    Type
REMARK                         _______ _______ _______ _____ _____    ______ ____
ROOT
ATOM      1  C   UNL     1      -2.573  -1.903  -0.854  0.00  0.00    +0.091 A 
ATOM      2  C   UNL     1      -3.264  -2.275  -2.073  0.00  0.00    -0.025 A 
ATOM      3  C   UNL     1      -4.510  -2.763  -1.879  0.00  0.00    -0.021 A 
ATOM      4  S   UNL     1      -4.738  -2.724  -0.127  0.00  0.00    -0.079 S 
ATOM      5  C   UNL     1      -3.253  -2.094   0.341  0.00  0.00    +0.086 A 
ATOM      6  C   UNL     1      -5.455  -3.221  -2.945  0.00  0.00    -0.035 C 
ATOM      7  N   UNL     1      -4.974  -2.707  -4.241  0.00  0.00    +0.384 N 
ATOM      8  C   UNL     1      -3.552  -3.034  -4.405  0.00  0.00    -0.073 C 
ATOM      9  C   UNL     1      -2.698  -2.158  -3.482  0.00  0.00    +0.018 C 
ATOM     10  H   UNL     1      -5.094  -1.706  -4.271  0.00  0.00    -0.081 HD
ENDROOT
BRANCH   5  11
ATOM     11  N   UNL     1      -2.809  -1.823   1.626  0.00  0.00    -0.278 N 
ATOM     12  C   UNL     1      -3.609  -2.073   2.682  0.00  0.00    +0.236 C 
ATOM     13  O   UNL     1      -4.718  -2.533   2.507  0.00  0.00    -0.274 OA
ATOM     14  H   UNL     1      -1.923  -1.455   1.766  0.00  0.00    +0.155 HD
BRANCH  12  15
ATOM     15  C   UNL     1      -3.127  -1.779   4.079  0.00  0.00    +0.166 C 
ATOM     16  C   UNL     1      -4.025  -0.716   4.719  0.00  0.00    +0.030 C 
ATOM     17  C   UNL     1      -3.617  -0.523   6.182  0.00  0.00    +0.003 C 
ATOM     18  C   UNL     1      -3.806  -1.837   6.943  0.00  0.00    +0.017 C 
ATOM     19  C   UNL     1      -2.906  -2.913   6.328  0.00  0.00    +0.110 C 
ATOM     20  N   UNL     1      -3.188  -3.003   4.889  0.00  0.00    -0.164 NA
BRANCH  20  21
ATOM     21  S   UNL     1      -3.571  -4.456   4.193  0.00  0.00    +0.068 S 
ATOM     22  O   UNL     1      -3.257  -4.341   2.812  0.00  0.00    -0.152 OA
ATOM     23  O   UNL     1      -3.008  -5.464   5.021  0.00  0.00    -0.152 OA
BRANCH  21  24
ATOM     24  C   UNL     1      -5.321  -4.639   4.299  0.00  0.00    +0.143 A 
ATOM     25  C   UNL     1      -6.263  -4.389   3.357  0.00  0.00    +0.036 A 
ATOM     26  C   UNL     1      -7.593  -4.608   3.664  0.00  0.00    +0.010 A 
ATOM     27  C   UNL     1      -7.915  -5.065   4.899  0.00  0.00    +0.047 A 
ATOM     28  S   UNL     1      -6.311  -5.207   5.671  0.00  0.00    -0.077 S 
ENDBRANCH  21  24
ENDBRANCH  20  21
ENDBRANCH  12  15
ENDBRANCH   5  11
BRANCH   7  29
ATOM     29  C   UNL     1      -5.746  -3.325  -5.328  0.00  0.00    -0.074 C 
ATOM     30  C   UNL     1      -7.239  -3.093  -5.089  0.00  0.00    -0.014 C 
ATOM     31  C   UNL     1      -5.340  -2.696  -6.663  0.00  0.00    -0.014 C 
ENDBRANCH   7  29
BRANCH   1  32
ATOM     32  C   UNL     1      -1.215  -1.355  -0.882  0.00  0.00    +0.342 C 
ATOM     33  O   UNL     1      -0.257  -2.102  -0.824  0.00  0.00    -0.245 OA
BRANCH  32  34
ATOM     34  O   UNL     1      -1.027  -0.023  -0.971  0.00  0.00    -0.461 OA
BRANCH  34  36
ATOM     35  C   UNL     1       0.338   1.968  -1.098  0.00  0.00    +0.048 C 
ATOM     36  C   UNL     1       0.325   0.442  -0.994  0.00  0.00    +0.229 C 
ENDBRANCH  34  36
ENDBRANCH  32  34
ENDBRANCH   1  32
TORSDOF 8
