REMARK  Name = ZINC45699448
REMARK  7 active torsions:
REMARK  status: ('A' for Active; 'I' for Inactive)
REMARK    1  A    between atoms: C_4  and  N_7
REMARK    2  A    between atoms: C_11  and  S_13
REMARK    3  A    between atoms: S_13  and  C_14
REMARK    4  A    between atoms: C_14  and  C_15
REMARK    5  A    between atoms: C_15  and  C_16
REMARK    6  A    between atoms: N_18  and  C_19
REMARK    7  A    between atoms: C_20  and  C_28
REMARK                            x       y       z     vdW  Elec       q    Type
REMARK                         _______ _______ _______ _____ _____    ______ ____
ROOT
ATOM      1  C   UNL     1       3.613  -8.814   0.527  0.00  0.00    +0.107 C 
ENDROOT
BRANCH   1   2
ATOM      2  C   UNL     1       2.364  -9.658   0.535  0.00  0.00    +0.218 C 
ATOM      3  O   UNL     1       1.275  -9.130   0.454  0.00  0.00    -0.275 OA
ATOM      4  N   UNL     1       2.457 -10.999   0.631  0.00  0.00    -0.279 N 
ATOM      5  H   UNL     1       3.328 -11.421   0.696  0.00  0.00    +0.155 HD
BRANCH   4   6
ATOM      6  C   UNL     1       1.307 -11.775   0.638  0.00  0.00    +0.090 A 
ATOM      7  C   UNL     1       1.211 -13.154   0.735  0.00  0.00    +0.084 A 
ATOM      8  C   UNL     1      -0.122 -13.730   0.720  0.00  0.00    -0.018 A 
ATOM      9  C   UNL     1      -1.116 -12.821   0.610  0.00  0.00    -0.004 A 
ATOM     10  S   UNL     1      -0.288 -11.259   0.538  0.00  0.00    -0.077 S 
ATOM     11  C   UNL     1      -2.587 -13.097   0.565  0.00  0.00    +0.043 C 
ATOM     12  C   UNL     1      -2.788 -14.593   0.283  0.00  0.00    +0.005 C 
ATOM     13  C   UNL     1      -1.885 -15.400   1.221  0.00  0.00    +0.005 C 
ATOM     14  C   UNL     1      -0.420 -15.219   0.818  0.00  0.00    +0.037 C 
BRANCH   7  15
ATOM     15  C   UNL     1       2.377 -13.977   0.845  0.00  0.00    +0.102 C 
ATOM     16  N   UNL     1       3.303 -14.629   0.932  0.00  0.00    -0.191 NA
ENDBRANCH   7  15
ENDBRANCH   4   6
ENDBRANCH   1   2
BRANCH   1  17
ATOM     17  C   UNL     1       3.230  -7.338   0.410  0.00  0.00    +0.085 C 
BRANCH  17  18
ATOM     18  S   UNL     1       4.734  -6.322   0.400  0.00  0.00    -0.096 S 
BRANCH  18  23
ATOM     19  N   UNL     1       3.620  -0.649  -0.037  0.00  0.00    -0.292 N 
ATOM     20  C   UNL     1       3.644  -2.036   0.060  0.00  0.00    +0.187 A 
ATOM     21  N   UNL     1       2.639  -2.890   0.079  0.00  0.00    -0.125 NA
ATOM     22  N   UNL     1       2.889  -4.239   0.182  0.00  0.00    -0.133 NA
ATOM     23  C   UNL     1       4.133  -4.672   0.262  0.00  0.00    +0.160 A 
ATOM     24  S   UNL     1       5.045  -3.138   0.185  0.00  0.00    -0.024 S 
ATOM     25  H   UNL     1       4.450  -0.155  -0.124  0.00  0.00    +0.154 HD
BRANCH  19  29
ATOM     26  C   UNL     1      -0.015   1.381   0.044  0.00  0.00    +0.000 A 
ATOM     27  C   UNL     1       0.092   0.135   0.633  0.00  0.00    +0.002 A 
ATOM     28  C   UNL     1       1.296  -0.541   0.608  0.00  0.00    +0.023 A 
ATOM     29  C   UNL     1       2.401   0.032  -0.011  0.00  0.00    +0.033 A 
ATOM     30  C   UNL     1       2.289   1.284  -0.602  0.00  0.00    +0.023 A 
ATOM     31  C   UNL     1       1.083   1.955  -0.573  0.00  0.00    +0.002 A 
ENDBRANCH  19  29
ENDBRANCH  18  23
ENDBRANCH  17  18
ENDBRANCH   1  17
TORSDOF 7
