REMARK  Name = ZINC27791928
REMARK  9 active torsions:
REMARK  status: ('A' for Active; 'I' for Inactive)
REMARK    1  A    between atoms: C_1  and  C_2
REMARK    2  A    between atoms: C_4  and  C_27
REMARK    3  A    between atoms: C_5  and  N_9
REMARK    4  A    between atoms: C_6  and  C_8
REMARK    5  A    between atoms: C_13  and  N_17
REMARK    6  A    between atoms: N_17  and  C_18
REMARK    7  A    between atoms: C_21  and  C_24
REMARK    8  A    between atoms: C_24  and  C_25
REMARK    9  A    between atoms: C_24  and  C_26
REMARK                            x       y       z     vdW  Elec       q    Type
REMARK                         _______ _______ _______ _____ _____    ______ ____
ROOT
ATOM      1  N   UNL     1       4.669   4.862  -1.615  0.00  0.00    -0.208 N 
ATOM      2  C   UNL     1       5.474   4.938  -0.548  0.00  0.00    +0.228 C 
ATOM      3  O   UNL     1       6.521   5.549  -0.500  0.00  0.00    -0.275 OA
ATOM      4  C   UNL     1       4.871   4.142   0.589  0.00  0.00    +0.128 C 
ATOM      5  C   UNL     1       3.564   3.587  -0.012  0.00  0.00    +0.166 C 
ATOM      6  C   UNL     1       3.566   4.127  -1.426  0.00  0.00    +0.247 C 
ATOM      7  O   UNL     1       2.705   3.926  -2.255  0.00  0.00    -0.273 OA
ENDROOT
BRANCH   1  12
ATOM      8  C   UNL     1       5.834   7.441  -6.535  0.00  0.00    +0.044 C 
ATOM      9  C   UNL     1       5.525   6.756  -5.229  0.00  0.00    -0.050 A 
ATOM     10  C   UNL     1       5.971   5.467  -5.003  0.00  0.00    +0.008 A 
ATOM     11  C   UNL     1       5.689   4.837  -3.807  0.00  0.00    -0.028 A 
ATOM     12  C   UNL     1       4.957   5.499  -2.830  0.00  0.00    +0.050 A 
ATOM     13  C   UNL     1       4.506   6.792  -3.062  0.00  0.00    -0.028 A 
ATOM     14  C   UNL     1       4.796   7.418  -4.258  0.00  0.00    +0.008 A 
ATOM     15  C   UNL     1       3.707   7.512  -2.007  0.00  0.00    +0.046 C 
ATOM     16  C   UNL     1       6.174   3.431  -3.562  0.00  0.00    +0.046 C 
ENDBRANCH   1  12
BRANCH   5  17
ATOM     17  N   UNL     1       3.582   2.122  -0.020  0.00  0.00    -0.333 N 
ATOM     18  H   UNL     1       4.541   1.584  -0.032  0.00  0.00    +0.147 HD
BRANCH  17  19
ATOM     19  C   UNL     1       2.381   1.409  -0.013  0.00  0.00    +0.028 A 
ATOM     20  C   UNL     1       1.169   2.087   0.002  0.00  0.00    +0.023 A 
ATOM     21  C   UNL     1      -0.017   1.379   0.010  0.00  0.00    +0.006 A 
ATOM     22  C   UNL     1       0.002  -0.004   0.002  0.00  0.00    -0.045 A 
ATOM     23  C   UNL     1       1.207  -0.682  -0.013  0.00  0.00    +0.006 A 
ATOM     24  C   UNL     1       2.396   0.020  -0.021  0.00  0.00    +0.023 A 
BRANCH  22  25
ATOM     25  C   UNL     1      -1.294  -0.774   0.011  0.00  0.00    +0.013 C 
ATOM     26  C   UNL     1      -1.376  -1.647  -1.242  0.00  0.00    +0.012 C 
ATOM     27  C   UNL     1      -1.351  -1.661   1.256  0.00  0.00    +0.012 C 
ENDBRANCH  22  25
ENDBRANCH  17  19
ENDBRANCH   5  17
TORSDOF 4
