REMARK  Name = ZINC63838923
REMARK  9 active torsions:
REMARK  status: ('A' for Active; 'I' for Inactive)
REMARK    1  A    between atoms: C_1  and  O_2
REMARK    2  A    between atoms: O_2  and  C_3
REMARK    3  A    between atoms: C_6  and  N_9
REMARK    4  A    between atoms: C_10  and  C_26
REMARK    5  A    between atoms: C_14  and  S_15
REMARK    6  A    between atoms: S_15  and  C_16
REMARK    7  A    between atoms: C_16  and  C_17
REMARK    8  A    between atoms: C_30  and  O_32
REMARK    9  A    between atoms: O_32  and  C_33
REMARK                            x       y       z     vdW  Elec       q    Type
REMARK                         _______ _______ _______ _____ _____    ______ ____
ROOT
ATOM      1  N   UNL     1      -4.875  -2.584   0.042  0.00  0.00    -0.254 N 
ATOM      2  C   UNL     1      -5.120  -4.032  -0.061  0.00  0.00    +0.213 C 
ATOM      3  N   UNL     1      -6.588  -4.146  -0.009  0.00  0.00    -0.242 N 
ATOM      4  N   UNL     1      -7.077  -2.840   0.114  0.00  0.00    -0.162 NA
ATOM      5  C   UNL     1      -6.118  -1.978   0.147  0.00  0.00    +0.180 C 
ATOM      6  H   UNL     1      -7.111  -4.963  -0.052  0.00  0.00    +0.170 HD
ENDROOT
BRANCH   1  10
ATOM      7  C   UNL     1      -1.167  -0.678   0.040  0.00  0.00    +0.120 A 
ATOM      8  C   UNL     1      -2.047  -0.483  -1.014  0.00  0.00    +0.047 A 
ATOM      9  C   UNL     1      -3.276  -1.113  -1.014  0.00  0.00    +0.027 A 
ATOM     10  C   UNL     1      -3.630  -1.944   0.042  0.00  0.00    +0.038 A 
ATOM     11  C   UNL     1      -2.748  -2.139   1.096  0.00  0.00    +0.027 A 
ATOM     12  C   UNL     1      -1.517  -1.512   1.092  0.00  0.00    +0.047 A 
BRANCH   7  14
ATOM     13  C   UNL     1       0.337   0.788  -1.075  0.00  0.00    +0.277 C 
ATOM     14  O   UNL     1       0.043  -0.056   0.040  0.00  0.00    -0.495 OA
ENDBRANCH   7  14
ENDBRANCH   1  10
BRANCH   2  15
ATOM     15  C   UNL     1      -4.592  -4.566  -1.368  0.00  0.00    -0.004 A 
ATOM     16  C   UNL     1      -3.688  -5.613  -1.371  0.00  0.00    +0.007 A 
ATOM     17  C   UNL     1      -3.201  -6.105  -2.568  0.00  0.00    +0.004 A 
ATOM     18  C   UNL     1      -3.616  -5.551  -3.764  0.00  0.00    +0.045 A 
ATOM     19  C   UNL     1      -4.522  -4.500  -3.763  0.00  0.00    +0.120 A 
ATOM     20  C   UNL     1      -5.014  -4.012  -2.561  0.00  0.00    +0.052 A 
BRANCH  19  21
ATOM     21  O   UNL     1      -4.931  -3.953  -4.938  0.00  0.00    -0.495 OA
ATOM     22  C   UNL     1      -4.388  -4.510  -6.137  0.00  0.00    +0.277 C 
ENDBRANCH  19  21
ENDBRANCH   2  15
BRANCH   5  23
ATOM     23  S   UNL     1      -6.359  -0.239   0.302  0.00  0.00    -0.085 S 
BRANCH  23  24
ATOM     24  C   UNL     1      -8.161  -0.053   0.397  0.00  0.00    +0.124 C 
BRANCH  24  25
ATOM     25  C   UNL     1      -8.514   1.430   0.536  0.00  0.00    +0.184 C 
ATOM     26  N   UNL     1      -7.949   2.189  -0.587  0.00  0.00    -0.363 N 
ATOM     27  C   UNL     1      -7.125   3.065  -0.090  0.00  0.00    +0.060 A 
ATOM     28  C   UNL     1      -6.272   4.094  -0.702  0.00  0.00    +0.027 A 
ATOM     29  C   UNL     1      -5.504   4.874   0.083  0.00  0.00    +0.002 A 
ATOM     30  C   UNL     1      -5.478   4.749   1.484  0.00  0.00    +0.002 A 
ATOM     31  C   UNL     1      -6.220   3.839   2.146  0.00  0.00    +0.027 A 
ATOM     32  C   UNL     1      -7.098   2.933   1.392  0.00  0.00    +0.060 A 
ATOM     33  N   UNL     1      -7.908   1.980   1.754  0.00  0.00    -0.363 N 
ATOM     34  H   UNL     1      -8.154   2.061  -1.527  0.00  0.00    +0.162 HD
ATOM     35  H   UNL     1      -8.079   1.688   2.663  0.00  0.00    +0.162 HD
ENDBRANCH  24  25
ENDBRANCH  23  24
ENDBRANCH   5  23
TORSDOF 7
