REMARK  Name = ZINC23057582
REMARK  6 active torsions:
REMARK  status: ('A' for Active; 'I' for Inactive)
REMARK    1  A    between atoms: C_1  and  C_2
REMARK    2  A    between atoms: C_2  and  C_4
REMARK    3  A    between atoms: C_2  and  N_15
REMARK    4  A    between atoms: N_6  and  C_7
REMARK    5  A    between atoms: C_7  and  C_13
REMARK    6  A    between atoms: C_21  and  C_23
REMARK                            x       y       z     vdW  Elec       q    Type
REMARK                         _______ _______ _______ _____ _____    ______ ____
ROOT
ATOM      1  C   UNL     1       7.237   2.273   4.238  0.00  0.00    -0.004 C 
ATOM      2  C   UNL     1       7.263   3.434   3.243  0.00  0.00    +0.016 C 
ENDROOT
BRANCH   2   3
ATOM      3  N   UNL     1       6.337   3.153   2.137  0.00  0.00    +0.389 N 
ATOM      4  C   UNL     1       6.783   1.989   1.360  0.00  0.00    -0.058 C 
ATOM      5  C   UNL     1       5.898   1.839   0.118  0.00  0.00    +0.089 C 
ATOM      6  N   UNL     1       4.492   1.798   0.548  0.00  0.00    -0.305 N 
ATOM      7  C   UNL     1       4.005   2.864   1.438  0.00  0.00    +0.089 C 
ATOM      8  C   UNL     1       4.966   2.970   2.633  0.00  0.00    -0.058 C 
ATOM      9  C   UNL     1       3.670   0.814   0.134  0.00  0.00    +0.219 C 
ATOM     10  O   UNL     1       4.086  -0.053  -0.604  0.00  0.00    -0.275 OA
ATOM     11  H   UNL     1       6.337   4.024   1.465  0.00  0.00    -0.081 HD
BRANCH   9  12
ATOM     12  C   UNL     1       2.232   0.792   0.586  0.00  0.00    +0.075 C 
ATOM     13  C   UNL     1       1.453   1.995  -0.001  0.00  0.00    +0.013 C 
ATOM     14  C   UNL     1      -0.019   1.534   0.011  0.00  0.00    +0.001 C 
ATOM     15  C   UNL     1       0.002  -0.004   0.002  0.00  0.00    +0.001 C 
ATOM     16  C   UNL     1       1.486  -0.425  -0.014  0.00  0.00    +0.013 C 
ENDBRANCH   9  12
ENDBRANCH   2   3
BRANCH   2  17
ATOM     17  C   UNL     1       6.843   4.703   3.939  0.00  0.00    +0.200 C 
ATOM     18  O   UNL     1       5.868   5.312   3.554  0.00  0.00    -0.278 OA
ATOM     19  N   UNL     1       7.551   5.160   4.992  0.00  0.00    -0.299 N 
ATOM     20  H   UNL     1       8.435   4.607   5.342  0.00  0.00    +0.150 HD
BRANCH  19  21
ATOM     21  C   UNL     1       7.142   6.393   5.669  0.00  0.00    +0.121 C 
ATOM     22  C   UNL     1       7.168   7.554   4.674  0.00  0.00    +0.041 C 
ATOM     23  C   UNL     1       6.742   8.842   5.382  0.00  0.00    +0.003 C 
ATOM     24  C   UNL     1       7.707   9.135   6.533  0.00  0.00    +0.000 C 
ATOM     25  C   UNL     1       7.680   7.973   7.528  0.00  0.00    +0.003 C 
ATOM     26  C   UNL     1       8.107   6.685   6.820  0.00  0.00    +0.041 C 
BRANCH  21  27
ATOM     27  C   UNL     1       5.779   6.232   6.200  0.00  0.00    +0.088 C 
ATOM     28  N   UNL     1       4.727   6.108   6.610  0.00  0.00    -0.194 NA
ENDBRANCH  21  27
ENDBRANCH  19  21
ENDBRANCH   2  17
TORSDOF 5
