REMARK  Name = ZINC23244856
REMARK  5 active torsions:
REMARK  status: ('A' for Active; 'I' for Inactive)
REMARK    1  A    between atoms: C_3  and  C_6
REMARK    2  A    between atoms: N_13  and  C_16
REMARK    3  A    between atoms: C_16  and  C_17
REMARK    4  A    between atoms: N_19  and  C_20
REMARK    5  A    between atoms: C_23  and  C_26
REMARK                            x       y       z     vdW  Elec       q    Type
REMARK                         _______ _______ _______ _____ _____    ______ ____
ROOT
ATOM      1  C   UNL     1       4.058   2.302  -1.459  0.00  0.00    +0.237 C 
ATOM      2  O   UNL     1       3.291   2.109  -2.378  0.00  0.00    -0.274 OA
ATOM      3  N   UNL     1       5.312   2.731  -1.706  0.00  0.00    -0.284 N 
ATOM      4  H   UNL     1       5.979   2.989  -0.870  0.00  0.00    +0.155 HD
ENDROOT
BRANCH   3   5
ATOM      5  C   UNL     1       5.764   2.849  -3.025  0.00  0.00    +0.033 A 
ATOM      6  C   UNL     1       5.317   1.958  -3.993  0.00  0.00    +0.024 A 
ATOM      7  C   UNL     1       5.757   2.075  -5.294  0.00  0.00    +0.012 A 
ATOM      8  C   UNL     1       6.660   3.081  -5.636  0.00  0.00    +0.002 A 
ATOM      9  C   UNL     1       7.111   3.970  -4.662  0.00  0.00    +0.012 A 
ATOM     10  C   UNL     1       6.664   3.852  -3.363  0.00  0.00    +0.024 A 
BRANCH   8  11
ATOM     11  C   UNL     1       7.139   3.205  -7.034  0.00  0.00    +0.090 A 
ATOM     12  C   UNL     1       6.782   2.410  -8.072  0.00  0.00    +0.121 A 
ATOM     13  N   UNL     1       7.453   2.866  -9.202  0.00  0.00    -0.300 N 
ATOM     14  C   UNL     1       7.553   2.539 -10.537  0.00  0.00    +0.100 A 
ATOM     15  C   UNL     1       8.337   3.240 -11.354  0.00  0.00    +0.067 A 
ATOM     16  S   UNL     1       9.022   4.464 -10.249  0.00  0.00    -0.058 S 
ATOM     17  C   UNL     1       8.194   3.934  -8.768  0.00  0.00    +0.178 A 
ATOM     18  N   UNL     1       8.004   4.133  -7.496  0.00  0.00    -0.221 NA
ENDBRANCH   8  11
ENDBRANCH   3   5
BRANCH   1  19
ATOM     19  C   UNL     1       3.610   2.062  -0.040  0.00  0.00    +0.222 C 
BRANCH  19  27
ATOM     20  C   UNL     1      -1.365   2.827   0.108  0.00  0.00    +0.010 A 
ATOM     21  C   UNL     1      -2.550   2.167   0.087  0.00  0.00    +0.057 A 
ATOM     22  S   UNL     1      -2.067   0.455  -0.022  0.00  0.00    -0.076 S 
ATOM     23  C   UNL     1      -0.305   0.662  -0.045  0.00  0.00    +0.116 A 
ATOM     24  C   UNL     1      -0.131   2.053   0.034  0.00  0.00    +0.080 A 
ATOM     25  C   UNL     1       1.225   2.509   0.034  0.00  0.00    +0.263 A 
ATOM     26  O   UNL     1       1.478   3.700   0.099  0.00  0.00    -0.267 OA
ATOM     27  N   UNL     1       2.218   1.604  -0.039  0.00  0.00    -0.290 N 
ATOM     28  C   UNL     1       1.956   0.273  -0.112  0.00  0.00    +0.203 A 
ATOM     29  N   UNL     1       0.729  -0.173  -0.114  0.00  0.00    -0.230 NA
BRANCH  20  32
ATOM     30  C   UNL     1      -1.804   6.567  -0.285  0.00  0.00    +0.008 A 
ATOM     31  C   UNL     1      -2.000   5.229  -0.554  0.00  0.00    +0.016 A 
ATOM     32  C   UNL     1      -1.326   4.302   0.195  0.00  0.00    +0.021 A 
ATOM     33  S   UNL     1      -0.380   5.339   1.298  0.00  0.00    -0.097 S 
ATOM     34  C   UNL     1      -0.944   6.924   0.702  0.00  0.00    +0.046 A 
ENDBRANCH  20  32
ENDBRANCH  19  27
ENDBRANCH   1  19
TORSDOF 5
