REMARK  Name = ZINC14611260
REMARK  8 active torsions:
REMARK  status: ('A' for Active; 'I' for Inactive)
REMARK    1  A    between atoms: C_1  and  C_2
REMARK    2  A    between atoms: C_2  and  C_3
REMARK    3  A    between atoms: C_2  and  C_4
REMARK    4  A    between atoms: C_2  and  C_5
REMARK    5  A    between atoms: C_8  and  C_11
REMARK    6  A    between atoms: C_16  and  C_18
REMARK    7  A    between atoms: N_23  and  C_24
REMARK    8  A    between atoms: C_24  and  C_25
REMARK                            x       y       z     vdW  Elec       q    Type
REMARK                         _______ _______ _______ _____ _____    ______ ____
ROOT
ATOM      1  C   UNL     1       1.214  -3.973  -4.088  0.00  0.00    +0.281 C 
ATOM      2  O   UNL     1       1.088  -2.765  -4.133  0.00  0.00    -0.265 OA
ATOM      3  N   UNL     1       1.254  -4.602  -2.897  0.00  0.00    -0.162 N 
ATOM      4  C   UNL     1       1.267  -4.019  -1.664  0.00  0.00    +0.222 A 
ATOM      5  N   UNL     1       1.313  -4.975  -0.765  0.00  0.00    -0.190 NA
ATOM      6  C   UNL     1       1.321  -6.172  -1.377  0.00  0.00    +0.219 A 
ATOM      7  N   UNL     1       1.289  -5.989  -2.679  0.00  0.00    -0.137 NA
ATOM      8  N   UNL     1       1.243  -2.663  -1.406  0.00  0.00    -0.309 N 
ATOM      9  H   UNL     1       1.214  -2.030  -2.141  0.00  0.00    +0.149 HD
ENDROOT
BRANCH   1  13
ATOM     10  C   UNL     1       1.530  -6.210  -7.684  0.00  0.00    -0.042 A 
ATOM     11  C   UNL     1       1.512  -4.827  -7.732  0.00  0.00    +0.005 A 
ATOM     12  C   UNL     1       1.410  -4.094  -6.569  0.00  0.00    +0.013 A 
ATOM     13  C   UNL     1       1.324  -4.751  -5.339  0.00  0.00    +0.041 A 
ATOM     14  C   UNL     1       1.350  -6.146  -5.297  0.00  0.00    +0.013 A 
ATOM     15  C   UNL     1       1.446  -6.867  -6.469  0.00  0.00    +0.005 A 
BRANCH  10  17
ATOM     16  C   UNL     1       2.945  -6.640  -9.674  0.00  0.00    +0.015 C 
ATOM     17  C   UNL     1       1.642  -7.004  -8.960  0.00  0.00    -0.013 C 
ATOM     18  C   UNL     1       1.641  -8.498  -8.632  0.00  0.00    +0.015 C 
ATOM     19  C   UNL     1       0.455  -6.679  -9.868  0.00  0.00    +0.015 C 
ENDBRANCH  10  17
ENDBRANCH   1  13
BRANCH   6  20
ATOM     20  C   UNL     1       1.366  -7.482  -0.696  0.00  0.00    +0.173 A 
ATOM     21  C   UNL     1       1.380  -8.698  -1.305  0.00  0.00    +0.053 A 
ATOM     22  C   UNL     1       1.424  -9.664  -0.281  0.00  0.00    +0.042 A 
ATOM     23  C   UNL     1       1.435  -8.998   0.891  0.00  0.00    +0.196 A 
ATOM     24  O   UNL     1       1.406  -7.680   0.636  0.00  0.00    -0.460 OA
ENDBRANCH   6  20
BRANCH   8  25
ATOM     25  C   UNL     1       1.263  -2.180  -0.023  0.00  0.00    +0.139 C 
BRANCH  25  26
ATOM     26  C   UNL     1       1.230  -0.673  -0.017  0.00  0.00    -0.030 A 
ATOM     27  C   UNL     1       0.018  -0.009   0.011  0.00  0.00    +0.006 A 
ATOM     28  C   UNL     1      -0.012   1.373   0.017  0.00  0.00    +0.015 A 
ATOM     29  C   UNL     1       1.170   2.091  -0.006  0.00  0.00    +0.018 A 
ATOM     30  C   UNL     1       2.382   1.425  -0.035  0.00  0.00    +0.015 A 
ATOM     31  C   UNL     1       2.412   0.044  -0.040  0.00  0.00    +0.006 A 
ATOM     32 BR   UNL     1       1.129   3.982   0.002  0.00  0.00    -0.050 Br
ENDBRANCH  25  26
ENDBRANCH   8  25
TORSDOF 5
