REMARK  Name = ZINC18059764
REMARK  10 active torsions:
REMARK  status: ('A' for Active; 'I' for Inactive)
REMARK    1  A    between atoms: C_1  and  C_2
REMARK    2  A    between atoms: C_2  and  O_3
REMARK    3  A    between atoms: O_3  and  C_4
REMARK    4  A    between atoms: C_8  and  C_18
REMARK    5  A    between atoms: C_9  and  O_10
REMARK    6  A    between atoms: O_10  and  C_11
REMARK    7  A    between atoms: C_11  and  C_12
REMARK    8  A    between atoms: C_18  and  N_19
REMARK    9  A    between atoms: N_19  and  C_20
REMARK   10  A    between atoms: C_29  and  O_32
REMARK                            x       y       z     vdW  Elec       q    Type
REMARK                         _______ _______ _______ _____ _____    ______ ____
ROOT
ATOM      1  C   UNL     1       1.366  -0.702   0.929  0.00  0.00    +0.162 A 
ATOM      2  C   UNL     1       1.095  -1.541  -0.139  0.00  0.00    +0.049 A 
ATOM      3  C   UNL     1       1.161  -2.912   0.025  0.00  0.00    +0.004 A 
ATOM      4  C   UNL     1       1.496  -3.449   1.254  0.00  0.00    +0.005 A 
ATOM      5  C   UNL     1       1.768  -2.618   2.324  0.00  0.00    -0.019 A 
ATOM      6  C   UNL     1       1.710  -1.242   2.165  0.00  0.00    +0.164 A 
ENDROOT
BRANCH   1   7
ATOM      7  O   UNL     1       1.303   0.647   0.769  0.00  0.00    -0.489 OA
BRANCH   7   9
ATOM      8  C   UNL     1       0.924   2.660  -0.513  0.00  0.00    +0.048 C 
ATOM      9  C   UNL     1       0.944   1.131  -0.526  0.00  0.00    +0.226 C 
ENDBRANCH   7   9
ENDBRANCH   1   7
BRANCH   6  10
ATOM     10  O   UNL     1       1.982  -0.423   3.215  0.00  0.00    -0.484 OA
BRANCH  10  11
ATOM     11  C   UNL     1       3.327   0.045   3.341  0.00  0.00    +0.264 C 
BRANCH  11  12
ATOM     12  C   UNL     1       3.426   0.978   4.521  0.00  0.00    -0.010 A 
ATOM     13  C   UNL     1       3.198   2.331   4.353  0.00  0.00    +0.007 A 
ATOM     14  C   UNL     1       3.289   3.186   5.435  0.00  0.00    +0.000 A 
ATOM     15  C   UNL     1       3.607   2.688   6.685  0.00  0.00    +0.000 A 
ATOM     16  C   UNL     1       3.834   1.335   6.853  0.00  0.00    +0.000 A 
ATOM     17  C   UNL     1       3.739   0.479   5.771  0.00  0.00    +0.007 A 
ENDBRANCH  11  12
ENDBRANCH  10  11
ENDBRANCH   6  10
BRANCH   5  18
ATOM     18  C   UNL     1       2.133  -3.207   3.662  0.00  0.00    -0.042 C 
BRANCH  18  19
ATOM     19  N   UNL     1       0.976  -3.128   4.564  0.00  0.00    +0.386 N 
ATOM     20  H   UNL     1       0.701  -2.164   4.675  0.00  0.00    -0.085 HD
ATOM     21  H   UNL     1       0.208  -3.654   4.173  0.00  0.00    -0.085 HD
BRANCH  19  22
ATOM     22  C   UNL     1       1.336  -3.688   5.873  0.00  0.00    -0.065 C 
ATOM     23  C   UNL     1       1.781  -5.142   5.700  0.00  0.00    -0.009 C 
ATOM     24  C   UNL     1       2.156  -5.726   7.064  0.00  0.00    -0.009 C 
ATOM     25  C   UNL     1       3.300  -4.911   7.670  0.00  0.00    +0.007 C 
ATOM     26  C   UNL     1       2.856  -3.457   7.843  0.00  0.00    -0.009 C 
ATOM     27  C   UNL     1       2.480  -2.874   6.479  0.00  0.00    -0.009 C 
ATOM     28  C   UNL     1       1.642  -3.402   8.773  0.00  0.00    +0.038 C 
ATOM     29  C   UNL     1       0.498  -4.217   8.166  0.00  0.00    +0.065 C 
ATOM     30  C   UNL     1       0.942  -5.671   7.994  0.00  0.00    +0.038 C 
ATOM     31  C   UNL     1       0.122  -3.633   6.803  0.00  0.00    +0.022 C 
BRANCH  29  32
ATOM     32  O   UNL     1      -0.636  -4.165   9.035  0.00  0.00    -0.389 OA
ATOM     33  H   UNL     1      -0.470  -4.520   9.919  0.00  0.00    +0.210 HD
ENDBRANCH  29  32
ENDBRANCH  19  22
ENDBRANCH  18  19
ENDBRANCH   5  18
TORSDOF 9
