REMARK  Name = ZINC39637465
REMARK  5 active torsions:
REMARK  status: ('A' for Active; 'I' for Inactive)
REMARK    1  A    between atoms: C_1  and  C_2
REMARK    2  A    between atoms: C_7  and  N_12
REMARK    3  A    between atoms: C_9  and  C_11
REMARK    4  A    between atoms: C_13  and  C_15
REMARK    5  A    between atoms: C_26  and  C_28
REMARK                            x       y       z     vdW  Elec       q    Type
REMARK                         _______ _______ _______ _____ _____    ______ ____
ROOT
ATOM      1  C   UNL     1       2.457  -4.333   4.518  0.00  0.00    +0.100 C 
ATOM      2  C   UNL     1       3.776  -3.577   4.239  0.00  0.00    +0.121 C 
ATOM      3  N   UNL     1       4.841  -4.511   4.674  0.00  0.00    -0.300 N 
ATOM      4  C   UNL     1       4.363  -5.845   4.239  0.00  0.00    +0.115 C 
ATOM      5  C   UNL     1       2.847  -5.821   4.516  0.00  0.00    -0.004 C 
ATOM      6  C   UNL     1       2.097  -6.562   3.414  0.00  0.00    -0.010 C 
ATOM      7  C   UNL     1       2.457  -8.050   3.469  0.00  0.00    -0.082 C 
ATOM      8  N   UNL     1       2.096  -8.593   4.784  0.00  0.00    +0.379 N 
ATOM      9  C   UNL     1       2.890  -7.939   5.831  0.00  0.00    -0.082 C 
ATOM     10  C   UNL     1       2.549  -6.447   5.876  0.00  0.00    -0.010 C 
ATOM     11  C   UNL     1       5.987  -4.214   5.319  0.00  0.00    +0.219 C 
ATOM     12  O   UNL     1       6.202  -3.076   5.681  0.00  0.00    -0.275 OA
ATOM     13  H   UNL     1       1.115  -8.431   4.956  0.00  0.00    -0.086 HD
ATOM     14  H   UNL     1       2.277  -9.586   4.797  0.00  0.00    -0.086 HD
ENDROOT
BRANCH  11  15
ATOM     15  C   UNL     1       7.000  -5.295   5.591  0.00  0.00    +0.079 C 
ATOM     16  C   UNL     1       7.854  -4.908   6.806  0.00  0.00    +0.017 C 
ATOM     17  C   UNL     1       8.749  -6.096   7.167  0.00  0.00    +0.027 C 
ATOM     18  C   UNL     1       9.453  -6.604   5.943  0.00  0.00    -0.031 C 
ATOM     19  C   UNL     1       9.091  -6.327   4.731  0.00  0.00    -0.030 C 
ATOM     20  C   UNL     1       7.920  -5.455   4.379  0.00  0.00    +0.039 C 
ENDBRANCH  11  15
BRANCH   1  22
ATOM     21  N   UNL     1       0.133  -4.105   3.704  0.00  0.00    -0.312 N 
ATOM     22  C   UNL     1       1.451  -4.053   3.432  0.00  0.00    +0.218 C 
ATOM     23  O   UNL     1       1.829  -3.780   2.312  0.00  0.00    -0.275 OA
ATOM     24  H   UNL     1      -0.169  -4.323   4.600  0.00  0.00    +0.149 HD
BRANCH  21  30
ATOM     25  C   UNL     1      -4.480  -2.573   2.801  0.00  0.00    +0.008 C 
ATOM     26  C   UNL     1      -3.173  -3.061   2.173  0.00  0.00    -0.009 C 
ATOM     27  C   UNL     1      -3.436  -4.341   1.378  0.00  0.00    +0.003 C 
ATOM     28  C   UNL     1      -2.129  -4.829   0.750  0.00  0.00    +0.002 C 
ATOM     29  C   UNL     1      -1.108  -5.114   1.853  0.00  0.00    +0.022 C 
ATOM     30  C   UNL     1      -0.845  -3.833   2.648  0.00  0.00    +0.076 C 
ATOM     31  C   UNL     1      -2.152  -3.345   3.276  0.00  0.00    +0.009 C 
ATOM     32  C   UNL     1      -2.701  -4.423   4.213  0.00  0.00    +0.009 C 
ENDBRANCH  21  30
ENDBRANCH   1  22
TORSDOF 3
