REMARK  Name = ZINC04973815
REMARK  6 active torsions:
REMARK  status: ('A' for Active; 'I' for Inactive)
REMARK    1  A    between atoms: C_4  and  O_21
REMARK    2  A    between atoms: C_5  and  C_7
REMARK    3  A    between atoms: C_7  and  N_8
REMARK    4  A    between atoms: N_8  and  C_9
REMARK    5  A    between atoms: O_21  and  C_22
REMARK    6  A    between atoms: C_22  and  C_23
REMARK                            x       y       z     vdW  Elec       q    Type
REMARK                         _______ _______ _______ _____ _____    ______ ____
ROOT
ATOM      1  C   UNL     1      -0.017   1.378   0.010  0.00  0.00    +0.001 A 
ATOM      2  C   UNL     1       1.170   2.088   0.002  0.00  0.00    +0.004 A 
ATOM      3  C   UNL     1       2.377   1.417  -0.013  0.00  0.00    +0.046 A 
ATOM      4  C   UNL     1       2.399   0.030  -0.021  0.00  0.00    +0.126 A 
ATOM      5  C   UNL     1       1.207  -0.680  -0.013  0.00  0.00    +0.011 A 
ATOM      6  C   UNL     1       0.002  -0.004   0.002  0.00  0.00    +0.009 A 
ENDROOT
BRANCH   5   7
ATOM      7  C   UNL     1       1.227  -2.187  -0.022  0.00  0.00    +0.140 C 
BRANCH   7   8
ATOM      8  N   UNL     1       1.487  -2.679   1.333  0.00  0.00    -0.340 N 
ATOM      9  H   UNL     1       1.614  -2.051   2.062  0.00  0.00    +0.146 HD
BRANCH   8  10
ATOM     10  C   UNL     1       1.552  -4.056   1.577  0.00  0.00    +0.029 A 
ATOM     11  C   UNL     1       1.375  -4.954   0.530  0.00  0.00    +0.025 A 
ATOM     12  C   UNL     1       1.438  -6.313   0.764  0.00  0.00    +0.029 A 
ATOM     13  C   UNL     1       1.679  -6.785   2.046  0.00  0.00    +0.067 A 
ATOM     14  C   UNL     1       1.857  -5.885   3.098  0.00  0.00    +0.069 A 
ATOM     15  C   UNL     1       1.798  -4.521   2.860  0.00  0.00    +0.050 A 
ATOM     16  N   UNL     1       2.077  -6.645   4.245  0.00  0.00    -0.306 N 
ATOM     17  H   UNL     1       2.234  -6.295   5.136  0.00  0.00    +0.170 HD
ATOM     18  C   UNL     1       2.036  -7.947   3.906  0.00  0.00    +0.325 A 
ATOM     19  O   UNL     1       2.190  -8.876   4.677  0.00  0.00    -0.247 OA
ATOM     20  N   UNL     1       1.797  -8.066   2.587  0.00  0.00    -0.306 N 
ATOM     21  H   UNL     1       1.721  -8.899   2.096  0.00  0.00    +0.170 HD
ENDBRANCH   8  10
ENDBRANCH   7   8
ENDBRANCH   5   7
BRANCH   4  22
ATOM     22  O   UNL     1       3.586  -0.632  -0.037  0.00  0.00    -0.487 OA
BRANCH  22  23
ATOM     23  C   UNL     1       4.772   0.164  -0.045  0.00  0.00    +0.264 C 
BRANCH  23  24
ATOM     24  C   UNL     1       5.981  -0.737  -0.062  0.00  0.00    -0.010 A 
ATOM     25  C   UNL     1       6.544  -1.161   1.127  0.00  0.00    +0.008 A 
ATOM     26  C   UNL     1       7.652  -1.986   1.112  0.00  0.00    +0.020 A 
ATOM     27  C   UNL     1       8.198  -2.389  -0.094  0.00  0.00    +0.041 A 
ATOM     28  C   UNL     1       7.634  -1.965  -1.284  0.00  0.00    +0.020 A 
ATOM     29  C   UNL     1       6.522  -1.143  -1.267  0.00  0.00    +0.008 A 
ATOM     30 CL   UNL     1       9.590  -3.426  -0.114  0.00  0.00    -0.084 Cl
ENDBRANCH  23  24
ENDBRANCH  22  23
ENDBRANCH   4  22
TORSDOF 6
