REMARK  Name = ZINC29854879
REMARK  4 active torsions:
REMARK  status: ('A' for Active; 'I' for Inactive)
REMARK    1  A    between atoms: C_1  and  C_2
REMARK    2  A    between atoms: C_9  and  C_11
REMARK    3  A    between atoms: N_13  and  N_14
REMARK    4  A    between atoms: C_15  and  C_17
REMARK                            x       y       z     vdW  Elec       q    Type
REMARK                         _______ _______ _______ _____ _____    ______ ____
ROOT
ATOM      1  N   UNL     1       4.881   0.067  -0.044  0.00  0.00    -0.229 N 
ATOM      2  C   UNL     1       3.736  -0.644  -0.037  0.00  0.00    +0.277 C 
ATOM      3  O   UNL     1       3.775  -1.860  -0.044  0.00  0.00    -0.267 OA
ATOM      4  H   UNL     1       4.846   1.166  -0.038  0.00  0.00    +0.173 HD
ENDROOT
BRANCH   2   5
ATOM      5  C   UNL     1       2.436   0.051  -0.021  0.00  0.00    +0.106 A 
ATOM      6  C   UNL     1       1.297  -0.685  -0.014  0.00  0.00    +0.039 A 
ATOM      7  C   UNL     1       0.002  -0.004   0.002  0.00  0.00    -0.011 A 
ATOM      8  C   UNL     1      -1.201  -0.712   0.011  0.00  0.00    +0.009 A 
ATOM      9  C   UNL     1      -2.394  -0.024   0.027  0.00  0.00    +0.001 A 
ATOM     10  C   UNL     1      -2.412   1.364   0.034  0.00  0.00    +0.001 A 
ATOM     11  C   UNL     1      -1.236   2.084   0.031  0.00  0.00    +0.014 A 
ATOM     12  C   UNL     1      -0.017   1.410   0.010  0.00  0.00    +0.046 A 
ATOM     13  C   UNL     1       1.265   2.129   0.001  0.00  0.00    +0.257 A 
ATOM     14  O   UNL     1       1.286   3.346   0.007  0.00  0.00    -0.267 OA
ATOM     15  N   UNL     1       2.416   1.429  -0.014  0.00  0.00    -0.318 N 
ATOM     16  H   UNL     1       3.361   1.993  -0.021  0.00  0.00    +0.169 HD
ENDBRANCH   2   5
BRANCH   1  19
ATOM     17  C   UNL     1       7.261   0.117  -0.067  0.00  0.00    +0.267 C 
ATOM     18  O   UNL     1       7.222   1.333  -0.060  0.00  0.00    -0.268 OA
ATOM     19  N   UNL     1       6.116  -0.595  -0.059  0.00  0.00    -0.230 N 
ATOM     20  H   UNL     1       6.151  -1.694  -0.066  0.00  0.00    +0.173 HD
BRANCH  17  28
ATOM     21  C   UNL     1      14.720  -1.186   0.157  0.00  0.00    +0.008 C 
ATOM     22  C   UNL     1      13.254  -1.590   0.330  0.00  0.00    -0.009 C 
ATOM     23  C   UNL     1      12.967  -2.834  -0.515  0.00  0.00    +0.009 C 
ATOM     24  C   UNL     1      11.587  -3.385  -0.129  0.00  0.00    +0.043 C 
ATOM     25  C   UNL     1      10.612  -2.248  -0.112  0.00  0.00    -0.006 A 
ATOM     26  C   UNL     1      10.904  -0.914  -0.107  0.00  0.00    -0.036 A 
ATOM     27  C   UNL     1       9.828  -0.041  -0.098  0.00  0.00    +0.024 A 
ATOM     28  C   UNL     1       8.553  -0.575  -0.083  0.00  0.00    +0.076 A 
ATOM     29  S   UNL     1       8.892  -2.328  -0.096  0.00  0.00    -0.088 S 
ATOM     30  C   UNL     1      12.354  -0.438  -0.117  0.00  0.00    +0.039 C 
ENDBRANCH  17  28
ENDBRANCH   1  19
TORSDOF 3
