REMARK  Name = ZINC39012661
REMARK  8 active torsions:
REMARK  status: ('A' for Active; 'I' for Inactive)
REMARK    1  A    between atoms: C_1  and  C_2
REMARK    2  A    between atoms: C_5  and  N_9
REMARK    3  A    between atoms: C_6  and  C_8
REMARK    4  A    between atoms: C_10  and  O_36
REMARK    5  A    between atoms: C_13  and  O_35
REMARK    6  A    between atoms: C_14  and  C_18
REMARK    7  A    between atoms: C_25  and  O_30
REMARK    8  A    between atoms: O_30  and  C_31
REMARK                            x       y       z     vdW  Elec       q    Type
REMARK                         _______ _______ _______ _____ _____    ______ ____
ROOT
ATOM      1  N   UNL     1      -0.126  -4.292  -0.019  0.00  0.00    -0.225 N 
ATOM      2  C   UNL     1      -1.324  -5.118   0.032  0.00  0.00    +0.338 C 
ATOM      3  N   UNL     1      -1.044  -6.461   0.511  0.00  0.00    -0.204 NA
ATOM      4  C   UNL     1       0.113  -7.000   0.500  0.00  0.00    +0.200 C 
ATOM      5  C   UNL     1       1.335  -6.297  -0.014  0.00  0.00    +0.183 C 
ATOM      6  C   UNL     1       1.107  -4.812  -0.055  0.00  0.00    +0.237 C 
ATOM      7  O   UNL     1       2.063  -4.067  -0.118  0.00  0.00    -0.274 OA
ENDROOT
BRANCH   5   8
ATOM      8  C   UNL     1       1.647  -6.791  -1.428  0.00  0.00    +0.122 C 
ATOM      9  C   UNL     1       2.940  -6.176  -1.908  0.00  0.00    +0.039 A 
ATOM     10  H   UNL     1       4.234  -6.318  -0.282  0.00  0.00    +0.166 HD
ATOM     11  C   UNL     1       3.099  -5.673  -3.153  0.00  0.00    -0.016 A 
ATOM     12  C   UNL     1       4.453  -5.174  -3.244  0.00  0.00    +0.007 A 
ATOM     13  C   UNL     1       5.170  -4.556  -4.273  0.00  0.00    +0.056 A 
ATOM     14  C   UNL     1       6.483  -4.204  -3.996  0.00  0.00    +0.121 A 
ATOM     15  C   UNL     1       7.062  -4.451  -2.757  0.00  0.00    +0.047 A 
ATOM     16  C   UNL     1       6.367  -5.061  -1.728  0.00  0.00    +0.030 A 
ATOM     17  C   UNL     1       5.047  -5.425  -1.980  0.00  0.00    +0.047 A 
ATOM     18  N   UNL     1       4.101  -6.032  -1.199  0.00  0.00    -0.356 N 
ATOM     19  C   UNL     1       2.010  -5.675  -4.197  0.00  0.00    +0.052 C 
ATOM     20  C   UNL     1       0.922  -6.658  -3.744  0.00  0.00    +0.086 C 
ATOM     21  N   UNL     1       0.566  -6.389  -2.342  0.00  0.00    -0.307 NA
ATOM     22  H   UNL     1      -0.303  -6.837  -2.094  0.00  0.00    +0.123 HD
BRANCH  14  23
ATOM     23  O   UNL     1       7.224  -3.600  -4.963  0.00  0.00    -0.495 OA
ATOM     24  C   UNL     1       8.571  -3.257  -4.629  0.00  0.00    +0.277 C 
ENDBRANCH  14  23
ENDBRANCH   5   8
BRANCH   1  29
ATOM     25  C   UNL     1      -0.710   1.350  -0.089  0.00  0.00    +0.044 C 
ATOM     26  C   UNL     1      -0.555  -0.148  -0.070  0.00  0.00    -0.050 A 
ATOM     27  C   UNL     1      -0.526  -0.854  -1.259  0.00  0.00    +0.005 A 
ATOM     28  C   UNL     1      -0.384  -2.228  -1.246  0.00  0.00    +0.024 A 
ATOM     29  C   UNL     1      -0.270  -2.900  -0.036  0.00  0.00    +0.043 A 
ATOM     30  C   UNL     1      -0.298  -2.189   1.156  0.00  0.00    -0.029 A 
ATOM     31  C   UNL     1      -0.435  -0.815   1.135  0.00  0.00    +0.008 A 
ATOM     32  C   UNL     1      -0.174  -2.915   2.471  0.00  0.00    +0.045 C 
ENDBRANCH   1  29
BRANCH   4  33
ATOM     33  O   UNL     1       0.243  -8.257   0.971  0.00  0.00    -0.495 OA
ATOM     34  H   UNL     1      -0.584  -8.647   1.285  0.00  0.00    +0.293 HD
ENDBRANCH   4  33
BRANCH   2  35
ATOM     35  O   UNL     1      -1.885  -5.202  -1.280  0.00  0.00    -0.356 OA
ATOM     36  H   UNL     1      -2.689  -5.737  -1.330  0.00  0.00    +0.214 HD
ENDBRANCH   2  35
TORSDOF 5
