REMARK  Name = ZINC38172971
REMARK  9 active torsions:
REMARK  status: ('A' for Active; 'I' for Inactive)
REMARK    1  A    between atoms: C_3  and  N_23
REMARK    2  A    between atoms: C_6  and  C_7
REMARK    3  A    between atoms: C_7  and  N_8
REMARK    4  A    between atoms: N_8  and  CA_9
REMARK    5  A    between atoms: CA_9  and  C_11
REMARK    6  A    between atoms: CA_9  and  C_13
REMARK    7  A    between atoms: C_11  and  O_12
REMARK    8  A    between atoms: C_24  and  C_25
REMARK    9  A    between atoms: C_30  and  O_31
REMARK                            x       y       z     vdW  Elec       q    Type
REMARK                         _______ _______ _______ _____ _____    ______ ____
ROOT
ATOM      1  C   UNL     1      -0.935  -1.105  -0.322  0.00  0.00    -0.046 C 
ENDROOT
BRANCH   1   7
ATOM      2  C   UNL     1       0.811   0.636  -0.744  0.00  0.00    +0.004 A 
ATOM      3  C   UNL     1       2.118   1.015  -0.972  0.00  0.00    +0.028 A 
ATOM      4  C   UNL     1       3.123   0.046  -1.027  0.00  0.00    +0.064 A 
ATOM      5  C   UNL     1       2.796  -1.300  -0.852  0.00  0.00    +0.028 A 
ATOM      6  C   UNL     1       1.485  -1.664  -0.625  0.00  0.00    +0.004 A 
ATOM      7  C   UNL     1       0.495  -0.699  -0.571  0.00  0.00    -0.064 A 
BRANCH   4   8
ATOM      8  N   UNL     1       4.421   0.415  -1.254  0.00  0.00    -0.255 NA
ATOM      9  C   UNL     1       5.380  -0.100  -0.535  0.00  0.00    +0.123 C 
BRANCH   9  10
ATOM     10  C   UNL     1       6.775   0.296  -0.778  0.00  0.00    +0.036 A 
ATOM     11  C   UNL     1       7.807  -0.258  -0.013  0.00  0.00    +0.028 A 
ATOM     12  C   UNL     1       9.112   0.118  -0.246  0.00  0.00    +0.019 A 
ATOM     13  C   UNL     1       9.407   1.044  -1.236  0.00  0.00    +0.019 A 
ATOM     14  C   UNL     1       8.397   1.598  -1.998  0.00  0.00    +0.047 A 
ATOM     15  C   UNL     1       7.079   1.228  -1.782  0.00  0.00    +0.125 A 
ATOM     16 BR   UNL     1      10.507  -0.631   0.788  0.00  0.00    -0.050 Br
BRANCH  15  17
ATOM     17  O   UNL     1       6.087   1.768  -2.534  0.00  0.00    -0.506 OA
ATOM     18  H   UNL     1       5.715   2.582  -2.168  0.00  0.00    +0.292 HD
ENDBRANCH  15  17
ENDBRANCH   9  10
ENDBRANCH   4   8
ENDBRANCH   1   7
BRANCH   1  19
ATOM     19  N   UNL     1      -1.600  -1.367  -1.605  0.00  0.00    +0.385 N 
ATOM     20  H1  UNL     1      -1.581  -0.531  -2.170  0.00  0.00    -0.085 HD
ATOM     21  H2  UNL     1      -1.119  -2.110  -2.088  0.00  0.00    -0.085 HD
BRANCH  19  22
ATOM     22  CA  UNL     1      -2.994  -1.762  -1.363  0.00  0.00    -0.039 C 
BRANCH  22  23
ATOM     23  C   UNL     1      -3.721  -1.913  -2.700  0.00  0.00    -0.039 C 
ATOM     24  C   UNL     1      -5.114  -2.499  -2.460  0.00  0.00    +0.009 C 
ATOM     25  C   UNL     1      -5.842  -2.650  -3.797  0.00  0.00    -0.010 C 
ATOM     26  C   UNL     1      -5.045  -3.586  -4.708  0.00  0.00    +0.007 C 
ATOM     27  C   UNL     1      -3.652  -3.000  -4.949  0.00  0.00    -0.010 C 
ATOM     28  C   UNL     1      -2.925  -2.849  -3.611  0.00  0.00    +0.009 C 
ATOM     29  C   UNL     1      -3.784  -1.629  -5.615  0.00  0.00    +0.007 C 
ATOM     30  C   UNL     1      -4.580  -0.693  -4.704  0.00  0.00    -0.010 C 
ATOM     31  C   UNL     1      -5.973  -1.279  -4.464  0.00  0.00    +0.007 C 
ATOM     32  C   UNL     1      -3.853  -0.542  -3.367  0.00  0.00    +0.009 C 
ENDBRANCH  22  23
BRANCH  22  33
ATOM     33  C   UNL     1      -3.022  -3.095  -0.613  0.00  0.00    +0.140 C 
BRANCH  33  34
ATOM     34  O   UNL     1      -2.385  -4.100  -1.404  0.00  0.00    -0.397 OA
ATOM     35  H   UNL     1      -2.366  -4.974  -0.990  0.00  0.00    +0.209 HD
ENDBRANCH  33  34
ENDBRANCH  22  33
ENDBRANCH  19  22
ENDBRANCH   1  19
TORSDOF 9
