REMARK  Name = ZINC35541922
REMARK  5 active torsions:
REMARK  status: ('A' for Active; 'I' for Inactive)
REMARK    1  A    between atoms: C_1  and  C_2
REMARK    2  A    between atoms: C_2  and  N_3
REMARK    3  A    between atoms: N_3  and  C_4
REMARK    4  A    between atoms: C_4  and  C_6
REMARK    5  A    between atoms: C_4  and  C_14
REMARK                            x       y       z     vdW  Elec       q    Type
REMARK                         _______ _______ _______ _____ _____    ______ ____
ROOT
ATOM      1  C   UNL     1       0.710  -1.947  -1.215  0.00  0.00    -0.007 C 
ENDROOT
BRANCH   1   2
ATOM      2  C   UNL     1       1.555  -2.487  -2.339  0.00  0.00    -0.037 A 
ATOM      3  C   UNL     1       0.960  -3.164  -3.387  0.00  0.00    +0.023 A 
ATOM      4  C   UNL     1       1.736  -3.660  -4.419  0.00  0.00    +0.041 A 
ATOM      5  C   UNL     1       3.108  -3.478  -4.403  0.00  0.00    +0.021 A 
ATOM      6  C   UNL     1       3.703  -2.801  -3.355  0.00  0.00    +0.021 A 
ATOM      7  C   UNL     1       2.926  -2.300  -2.325  0.00  0.00    +0.043 A 
ATOM      8 CL   UNL     1       3.672  -1.443  -1.013  0.00  0.00    -0.083 Cl
ATOM      9 CL   UNL     1       0.989  -4.511  -5.735  0.00  0.00    -0.084 Cl
ENDBRANCH   1   2
BRANCH   1  10
ATOM     10  C   UNL     1      -0.643  -2.611  -1.239  0.00  0.00    -0.042 A 
ATOM     11  C   UNL     1      -1.692  -2.019  -1.916  0.00  0.00    +0.018 A 
ATOM     12  C   UNL     1      -2.933  -2.629  -1.938  0.00  0.00    +0.018 A 
ATOM     13  C   UNL     1      -3.124  -3.832  -1.282  0.00  0.00    +0.016 A 
ATOM     14  C   UNL     1      -2.075  -4.425  -0.606  0.00  0.00    +0.016 A 
ATOM     15  C   UNL     1      -0.832  -3.817  -0.588  0.00  0.00    +0.020 A 
ATOM     16 BR   UNL     1       0.606  -4.632   0.331  0.00  0.00    -0.050 Br
ATOM     17 BR   UNL     1      -4.369  -1.818  -2.863  0.00  0.00    -0.050 Br
ENDBRANCH   1  10
BRANCH   1  18
ATOM     18  N   UNL     1       0.545  -0.496  -1.379  0.00  0.00    +0.386 N 
ATOM     19  H   UNL     1       0.020  -0.310  -2.220  0.00  0.00    -0.085 HD
ATOM     20  H   UNL     1       1.453  -0.060  -1.445  0.00  0.00    -0.085 HD
BRANCH  18  22
ATOM     21  C   UNL     1      -0.348   1.560  -0.393  0.00  0.00    -0.017 C 
ATOM     22  C   UNL     1      -0.176   0.049  -0.221  0.00  0.00    -0.085 C 
ENDBRANCH  18  22
ENDBRANCH   1  18
TORSDOF 4
