REMARK  Name = ZINC16611520
REMARK  14 active torsions:
REMARK  status: ('A' for Active; 'I' for Inactive)
REMARK    1  A    between atoms: C_1  and  C_2
REMARK    2  A    between atoms: C_2  and  N_71
REMARK    3  A    between atoms: C_3  and  C_4
REMARK    4  A    between atoms: C_3  and  N_71
REMARK    5  A    between atoms: C_5  and  C_6
REMARK    6  A    between atoms: C_5  and  N_71
REMARK    7  A    between atoms: C_6  and  C_7
REMARK    8  A    between atoms: C_7  and  C_8
REMARK    9  A    between atoms: C_8  and  C_10
REMARK   10  A    between atoms: C_8  and  N_11
REMARK   11  A    between atoms: C_12  and  C_14
REMARK   12  A    between atoms: C_14  and  S_15
REMARK   13  A    between atoms: S_15  and  C_16
REMARK   14  A    between atoms: N_26  and  C_29
REMARK                            x       y       z     vdW  Elec       q    Type
REMARK                         _______ _______ _______ _____ _____    ______ ____
ROOT
ATOM      1  C   UNL     1       0.927   1.124  -1.394  0.00  0.00    +0.192 A 
ATOM      2  N   UNL     1       2.083   0.493  -1.548  0.00  0.00    -0.207 NA
ATOM      3  C   UNL     1       3.173   1.157  -1.919  0.00  0.00    +0.127 A 
ATOM      4  C   UNL     1       3.085   2.532  -2.146  0.00  0.00    +0.083 A 
ATOM      5  C   UNL     1       1.861   3.152  -1.974  0.00  0.00    +0.135 A 
ATOM      6  N   UNL     1       0.814   2.428  -1.601  0.00  0.00    -0.210 NA
ATOM      7 CL   UNL     1       1.696   4.859  -2.241  0.00  0.00    -0.062 Cl
ATOM      8  N   UNL     1       4.379   0.495  -2.079  0.00  0.00    -0.312 N 
ATOM      9  C   UNL     1       4.920   0.703  -3.429  0.00  0.00    +0.125 C 
ATOM     10  C   UNL     1       6.287   0.024  -3.539  0.00  0.00    +0.124 C 
ATOM     11  N   UNL     1       6.143  -1.410  -3.248  0.00  0.00    -0.325 N 
ATOM     12  C   UNL     1       5.602  -1.618  -1.897  0.00  0.00    +0.124 C 
ATOM     13  C   UNL     1       4.235  -0.938  -1.788  0.00  0.00    +0.125 C 
ENDROOT
BRANCH  11  14
ATOM     14  C   UNL     1       7.361  -2.079  -3.409  0.00  0.00    +0.065 A 
ATOM     15  C   UNL     1       7.423  -3.457  -3.252  0.00  0.00    +0.026 A 
ATOM     16  C   UNL     1       8.627  -4.115  -3.416  0.00  0.00    +0.002 A 
ATOM     17  C   UNL     1       9.771  -3.403  -3.726  0.00  0.00    +0.003 A 
ATOM     18  C   UNL     1       9.714  -2.029  -3.878  0.00  0.00    +0.040 A 
ATOM     19  C   UNL     1       8.512  -1.364  -3.720  0.00  0.00    +0.144 A 
ATOM     20  F   UNL     1       8.457  -0.022  -3.868  0.00  0.00    -0.204 F 
ENDBRANCH  11  14
BRANCH   1  21
ATOM     21  S   UNL     1      -0.493   0.206  -0.900  0.00  0.00    -0.077 S 
BRANCH  21  22
ATOM     22  C   UNL     1      -1.724   1.532  -0.853  0.00  0.00    +0.173 C 
BRANCH  22  24
ATOM     23  N   UNL     1      -4.131   1.773  -0.339  0.00  0.00    -0.312 N 
ATOM     24  C   UNL     1      -3.058   0.965  -0.443  0.00  0.00    +0.224 C 
ATOM     25  O   UNL     1      -3.166  -0.220  -0.205  0.00  0.00    -0.275 OA
ATOM     26  H   UNL     1      -4.045   2.721  -0.529  0.00  0.00    +0.149 HD
BRANCH  23  27
ATOM     27  C   UNL     1      -5.428   1.222   0.060  0.00  0.00    +0.070 C 
ATOM     28  C   UNL     1      -5.510   1.163   1.587  0.00  0.00    +0.028 C 
BRANCH  27  29
ATOM     29  C   UNL     1      -6.549   2.115  -0.476  0.00  0.00    +0.020 C 
BRANCH  29  30
ATOM     30  C   UNL     1      -6.546   2.075  -2.006  0.00  0.00    -0.017 C 
BRANCH  30  31
ATOM     31  C   UNL     1      -7.667   2.968  -2.541  0.00  0.00    -0.079 C 
BRANCH  31  32
ATOM     32  N   UNL     1      -7.637   2.936  -4.019  0.00  0.00    +0.379 N 
ATOM     33  H   UNL     1      -6.684   3.148  -4.338  0.00  0.00    -0.082 HD
BRANCH  32  35
ATOM     34  C   UNL     1      -9.424   1.229  -4.025  0.00  0.00    -0.017 C 
ATOM     35  C   UNL     1      -8.017   1.592  -4.502  0.00  0.00    -0.082 C 
ENDBRANCH  32  35
BRANCH  32  36
ATOM     36  C   UNL     1      -8.563   3.950  -4.565  0.00  0.00    -0.082 C 
ATOM     37  C   UNL     1      -8.251   4.152  -6.049  0.00  0.00    -0.017 C 
ENDBRANCH  32  36
ENDBRANCH  31  32
ENDBRANCH  30  31
ENDBRANCH  29  30
ENDBRANCH  27  29
ENDBRANCH  23  27
ENDBRANCH  22  24
ENDBRANCH  21  22
ENDBRANCH   1  21
TORSDOF 11
