REMARK  Name = ZINC35704702
REMARK  13 active torsions:
REMARK  status: ('A' for Active; 'I' for Inactive)
REMARK    1  A    between atoms: C_1  and  C_2
REMARK    2  A    between atoms: C_2  and  C_3
REMARK    3  A    between atoms: C_2  and  O_4
REMARK    4  A    between atoms: O_4  and  C_5
REMARK    5  A    between atoms: C_5  and  C_7
REMARK    6  A    between atoms: C_8  and  C_33
REMARK    7  A    between atoms: C_12  and  C_14
REMARK    8  A    between atoms: C_17  and  O_20
REMARK    9  A    between atoms: O_20  and  C_21
REMARK   10  A    between atoms: C_22  and  C_25
REMARK   11  A    between atoms: C_26  and  N_28
REMARK   12  A    between atoms: N_28  and  C_29
REMARK   13  A    between atoms: C_29  and  C_30
REMARK                            x       y       z     vdW  Elec       q    Type
REMARK                         _______ _______ _______ _____ _____    ______ ____
ROOT
ATOM      1  C   UNL     1      -3.043  -2.380  -0.892  0.00  0.00    +0.091 C 
ATOM      2  C   UNL     1      -3.405  -3.550  -1.532  0.00  0.00    +0.158 C 
ATOM      3  N   UNL     1      -4.637  -4.020  -1.423  0.00  0.00    -0.220 NA
ATOM      4  C   UNL     1      -5.599  -3.451  -0.726  0.00  0.00    +0.166 C 
ATOM      5  N   UNL     1      -5.447  -2.290  -0.021  0.00  0.00    -0.267 N 
ATOM      6  C   UNL     1      -4.095  -1.672  -0.067  0.00  0.00    +0.150 C 
ATOM      7  C   UNL     1      -6.552  -1.821   0.660  0.00  0.00    +0.048 C 
ATOM      8  C   UNL     1      -7.692  -2.540   0.576  0.00  0.00    +0.072 C 
ATOM      9  S   UNL     1      -7.199  -3.892  -0.474  0.00  0.00    -0.060 S 
ENDROOT
BRANCH   6  10
ATOM     10  C   UNL     1      -3.581  -1.562   1.345  0.00  0.00    -0.022 A 
ATOM     11  C   UNL     1      -3.569  -2.677   2.164  0.00  0.00    +0.009 A 
ATOM     12  C   UNL     1      -3.099  -2.578   3.459  0.00  0.00    +0.046 A 
ATOM     13  C   UNL     1      -2.638  -1.361   3.938  0.00  0.00    +0.120 A 
ATOM     14  C   UNL     1      -2.650  -0.245   3.114  0.00  0.00    +0.046 A 
ATOM     15  C   UNL     1      -3.116  -0.349   1.818  0.00  0.00    +0.009 A 
BRANCH  13  16
ATOM     16  O   UNL     1      -2.175  -1.262   5.212  0.00  0.00    -0.495 OA
ATOM     17  C   UNL     1      -1.716   0.023   5.637  0.00  0.00    +0.277 C 
ENDBRANCH  13  16
ENDBRANCH   6  10
BRANCH   2  18
ATOM     18  C   UNL     1      -2.390  -4.294  -2.361  0.00  0.00    +0.435 C 
ATOM     19  F   UNL     1      -1.132  -3.704  -2.199  0.00  0.00    -0.164 F 
ATOM     20  F   UNL     1      -2.337  -5.629  -1.944  0.00  0.00    -0.164 F 
ATOM     21  F   UNL     1      -2.760  -4.241  -3.709  0.00  0.00    -0.164 F 
ENDBRANCH   2  18
BRANCH   7  22
ATOM     22  C   UNL     1      -6.490  -0.581   1.449  0.00  0.00    +0.091 C 
ATOM     23  C   UNL     1      -7.610  -0.080   2.004  0.00  0.00    +0.239 C 
ATOM     24  O   UNL     1      -8.772  -0.774   1.930  0.00  0.00    -0.271 OA
BRANCH  23  25
ATOM     25  N   UNL     1      -7.575   1.144   2.650  0.00  0.00    -0.312 N 
ATOM     26  H   UNL     1      -6.762   1.675   2.640  0.00  0.00    +0.149 HD
BRANCH  25  27
ATOM     27  C   UNL     1      -8.764   1.639   3.348  0.00  0.00    +0.108 C 
BRANCH  27  28
ATOM     28  C   UNL     1      -8.500   3.055   3.865  0.00  0.00    +0.006 C 
ATOM     29  C   UNL     1      -8.512   3.268   5.380  0.00  0.00    +0.005 C 
ATOM     30  C   UNL     1      -9.665   3.795   4.524  0.00  0.00    +0.005 C 
ENDBRANCH  27  28
ENDBRANCH  25  27
ENDBRANCH  23  25
ENDBRANCH   7  22
BRANCH   1  31
ATOM     31  C   UNL     1      -1.743  -1.870  -0.998  0.00  0.00    +0.340 C 
ATOM     32  O   UNL     1      -0.958  -2.006  -0.076  0.00  0.00    -0.245 OA
BRANCH  31  33
ATOM     33  O   UNL     1      -1.359  -1.227  -2.123  0.00  0.00    -0.459 OA
BRANCH  33  35
ATOM     34  C   UNL     1       0.482  -0.735  -3.608  0.00  0.00    +0.052 C 
ATOM     35  C   UNL     1      -0.019  -0.732  -2.163  0.00  0.00    +0.171 C 
ATOM     36  C   UNL     1       0.014   0.695  -1.614  0.00  0.00    +0.052 C 
ENDBRANCH  33  35
ENDBRANCH  31  33
ENDBRANCH   1  31
TORSDOF 10
