REMARK  Name = ZINC39335713
REMARK  8 active torsions:
REMARK  status: ('A' for Active; 'I' for Inactive)
REMARK    1  A    between atoms: C_1  and  C_2
REMARK    2  A    between atoms: C_2  and  N_3
REMARK    3  A    between atoms: N_3  and  C_4
REMARK    4  A    between atoms: C_4  and  C_5
REMARK    5  A    between atoms: C_6  and  C_8
REMARK    6  A    between atoms: C_9  and  N_21
REMARK    7  A    between atoms: C_11  and  C_20
REMARK    8  A    between atoms: C_12  and  C_18
REMARK                            x       y       z     vdW  Elec       q    Type
REMARK                         _______ _______ _______ _____ _____    ______ ____
ROOT
ATOM      1  C   UNL     1       2.078   0.500   0.985  0.00  0.00    +0.097 A 
ATOM      2  C   UNL     1       3.440   0.665   1.112  0.00  0.00    +0.054 A 
ATOM      3  C   UNL     1       4.193   1.112  -0.050  0.00  0.00    +0.033 A 
ATOM      4  C   UNL     1       5.583   1.349  -0.158  0.00  0.00    -0.018 A 
ATOM      5  C   UNL     1       6.102   1.778  -1.372  0.00  0.00    +0.095 A 
ATOM      6  C   UNL     1       5.245   1.970  -2.475  0.00  0.00    +0.135 A 
ATOM      7  N   UNL     1       3.947   1.743  -2.353  0.00  0.00    -0.224 NA
ATOM      8  C   UNL     1       3.422   1.336  -1.216  0.00  0.00    +0.113 A 
ATOM      9  S   UNL     1       1.765   0.938  -0.714  0.00  0.00    -0.062 S 
ATOM     10  N   UNL     1       5.760   2.397  -3.685  0.00  0.00    -0.342 N 
ATOM     11  C   UNL     1       6.489   1.140   1.029  0.00  0.00    +0.046 C 
ATOM     12  H   UNL     1       6.711   2.564  -3.775  0.00  0.00    +0.144 HD
ATOM     13  H   UNL     1       5.170   2.529  -4.444  0.00  0.00    +0.144 HD
ENDROOT
BRANCH   1  15
ATOM     14  N   UNL     1      -0.147  -0.086   1.642  0.00  0.00    -0.298 N 
ATOM     15  C   UNL     1       1.150   0.079   1.967  0.00  0.00    +0.255 C 
ATOM     16  O   UNL     1       1.524  -0.135   3.107  0.00  0.00    -0.269 OA
BRANCH  14  18
ATOM     17  C   UNL     1      -1.277  -1.957   2.740  0.00  0.00    +0.024 C 
ATOM     18  C   UNL     1      -1.123  -0.436   2.677  0.00  0.00    +0.105 C 
ENDBRANCH  14  18
BRANCH  14  19
ATOM     19  C   UNL     1      -0.582   0.084   0.253  0.00  0.00    +0.105 C 
ATOM     20  C   UNL     1      -0.760   1.573  -0.046  0.00  0.00    +0.024 C 
ENDBRANCH  14  19
ENDBRANCH   1  15
BRANCH   2  21
ATOM     21  N   UNL     1       4.077   0.411   2.317  0.00  0.00    -0.356 N 
ATOM     22  H   UNL     1       3.566   0.388   3.141  0.00  0.00    +0.142 HD
ATOM     23  H   UNL     1       5.035   0.256   2.337  0.00  0.00    +0.142 HD
ENDBRANCH   2  21
BRANCH   5  24
ATOM     24  C   UNL     1       7.507   2.024  -1.504  0.00  0.00    +0.103 C 
ATOM     25  N   UNL     1       8.621   2.220  -1.609  0.00  0.00    -0.191 NA
ENDBRANCH   5  24
TORSDOF 5
