REMARK  Name = ZINC02964014
REMARK  11 active torsions:
REMARK  status: ('A' for Active; 'I' for Inactive)
REMARK    1  A    between atoms: C_1  and  C_2
REMARK    2  A    between atoms: C_2  and  C_3
REMARK    3  A    between atoms: C_3  and  C_4
REMARK    4  A    between atoms: C_4  and  C_5
REMARK    5  A    between atoms: C_5  and  C_6
REMARK    6  A    between atoms: C_6  and  C_7
REMARK    7  A    between atoms: C_11  and  C_26
REMARK    8  A    between atoms: N_13  and  C_14
REMARK    9  A    between atoms: C_19  and  C_20
REMARK   10  A    between atoms: C_24  and  O_25
REMARK   11  A    between atoms: C_28  and  C_31
REMARK                            x       y       z     vdW  Elec       q    Type
REMARK                         _______ _______ _______ _____ _____    ______ ____
ROOT
ATOM      1  C   UNL     1      -5.306   6.550  -2.653  0.00  0.00    -0.005 A 
ATOM      2  C   UNL     1      -4.365   7.422  -2.185  0.00  0.00    +0.018 A 
ATOM      3  C   UNL     1      -3.374   6.970  -1.306  0.00  0.00    +0.019 A 
ATOM      4  C   UNL     1      -2.352   7.886  -0.795  0.00  0.00    +0.027 A 
ATOM      5  C   UNL     1      -1.254   7.327  -0.153  0.00  0.00    +0.068 A 
ATOM      6  C   UNL     1      -1.214   5.855  -0.056  0.00  0.00    +0.209 A 
ATOM      7  N   UNL     1      -0.069   5.212   0.030  0.00  0.00    -0.325 N 
ATOM      8  O   UNL     1      -2.394   5.185  -0.051  0.00  0.00    -0.439 OA
ATOM      9  C   UNL     1      -3.352   5.620  -0.906  0.00  0.00    +0.141 A 
ATOM     10  C   UNL     1      -4.312   4.749  -1.391  0.00  0.00    +0.092 A 
ATOM     11  C   UNL     1      -5.287   5.213  -2.263  0.00  0.00    +0.124 A 
ATOM     12  H   UNL     1       0.872   5.774   0.121  0.00  0.00    +0.169 HD
ENDROOT
BRANCH   7  13
ATOM     13  C   UNL     1      -0.049   3.845   0.006  0.00  0.00    +0.045 A 
ATOM     14  C   UNL     1      -0.089   3.121   1.200  0.00  0.00    +0.026 A 
ATOM     15  C   UNL     1      -0.073   1.743   1.168  0.00  0.00    +0.002 A 
ATOM     16  C   UNL     1      -0.007   1.077  -0.043  0.00  0.00    +0.000 A 
ATOM     17  C   UNL     1       0.033   1.787  -1.230  0.00  0.00    +0.005 A 
ATOM     18  C   UNL     1       0.012   3.166  -1.214  0.00  0.00    -0.027 A 
ATOM     19  C   UNL     1       0.056   3.938  -2.507  0.00  0.00    +0.046 C 
ENDBRANCH   7  13
BRANCH   5  20
ATOM     20  C   UNL     1      -0.173   8.164   0.401  0.00  0.00    +0.114 A 
ATOM     21  N   UNL     1      -0.051   9.484   0.400  0.00  0.00    -0.239 NA
ATOM     22  C   UNL     1       0.995  10.075   0.948  0.00  0.00    +0.079 A 
ATOM     23  C   UNL     1       1.973   9.310   1.528  0.00  0.00    +0.075 A 
ATOM     24  S   UNL     1       1.315   7.669   1.258  0.00  0.00    -0.075 S 
BRANCH  22  25
ATOM     25  C   UNL     1       1.110  11.554   0.936  0.00  0.00    +0.001 A 
ATOM     26  C   UNL     1       2.212  12.174   1.521  0.00  0.00    +0.010 A 
ATOM     27  C   UNL     1       2.317  13.550   1.501  0.00  0.00    +0.001 A 
ATOM     28  C   UNL     1       1.325  14.314   0.913  0.00  0.00    +0.000 A 
ATOM     29  C   UNL     1       0.226  13.703   0.336  0.00  0.00    +0.001 A 
ATOM     30  C   UNL     1       0.113  12.328   0.344  0.00  0.00    +0.010 A 
ENDBRANCH  22  25
ENDBRANCH   5  20
BRANCH  11  31
ATOM     31  O   UNL     1      -6.228   4.359  -2.739  0.00  0.00    -0.506 OA
ATOM     32  H   UNL     1      -6.216   3.302  -2.433  0.00  0.00    +0.292 HD
ENDBRANCH  11  31
BRANCH   1  33
ATOM     33  C   UNL     1      -6.373   7.037  -3.599  0.00  0.00    +0.039 C 
BRANCH  33  34
ATOM     34  C   UNL     1      -5.994   6.662  -5.033  0.00  0.00    +0.005 C 
BRANCH  34  35
ATOM     35  C   UNL     1      -7.078   7.157  -5.993  0.00  0.00    +0.000 C 
BRANCH  35  36
ATOM     36  C   UNL     1      -6.699   6.781  -7.427  0.00  0.00    -0.000 C 
BRANCH  36  38
ATOM     37  C   UNL     1      -7.403   6.900  -9.821  0.00  0.00    +0.004 C 
ATOM     38  C   UNL     1      -7.782   7.276  -8.387  0.00  0.00    -0.003 C 
ENDBRANCH  36  38
ENDBRANCH  35  36
ENDBRANCH  34  35
ENDBRANCH  33  34
ENDBRANCH   1  33
TORSDOF 9
