REMARK  Name = ZINC06551763
REMARK  12 active torsions:
REMARK  status: ('A' for Active; 'I' for Inactive)
REMARK    1  A    between atoms: C_1  and  C_2
REMARK    2  A    between atoms: C_2  and  C_3
REMARK    3  A    between atoms: C_3  and  C_4
REMARK    4  A    between atoms: C_4  and  N_5
REMARK    5  A    between atoms: N_5  and  C_6
REMARK    6  A    between atoms: C_7  and  N_18
REMARK    7  A    between atoms: N_8  and  C_15
REMARK    8  A    between atoms: C_15  and  C_16
REMARK    9  A    between atoms: C_16  and  C_17
REMARK   10  A    between atoms: C_19  and  C_21
REMARK   11  A    between atoms: C_21  and  O_22
REMARK   12  A    between atoms: O_22  and  C_23
REMARK                            x       y       z     vdW  Elec       q    Type
REMARK                         _______ _______ _______ _____ _____    ______ ____
ROOT
ATOM      1  N   UNL     1      -2.771   5.283   0.099  0.00  0.00    -0.261 N 
ATOM      2  C   UNL     1      -2.634   3.956   0.299  0.00  0.00    +0.258 C 
ATOM      3  O   UNL     1      -3.613   3.268   0.501  0.00  0.00    -0.272 OA
ENDROOT
BRANCH   1   4
ATOM      4  C   UNL     1      -4.059   5.856   0.027  0.00  0.00    +0.140 A 
ATOM      5  C   UNL     1      -4.931   5.498  -0.980  0.00  0.00    +0.127 A 
ATOM      6  N   UNL     1      -6.179   6.074  -1.024  0.00  0.00    -0.280 N 
ATOM      7  C   UNL     1      -6.546   6.975  -0.095  0.00  0.00    +0.331 A 
ATOM      8  O   UNL     1      -7.654   7.473  -0.150  0.00  0.00    -0.246 OA
ATOM      9  N   UNL     1      -5.709   7.336   0.895  0.00  0.00    -0.273 N 
ATOM     10  H   UNL     1      -6.005   8.011   1.571  0.00  0.00    +0.173 HD
ATOM     11  C   UNL     1      -4.477   6.798   0.986  0.00  0.00    +0.277 A 
ATOM     12  O   UNL     1      -3.728   7.129   1.889  0.00  0.00    -0.266 OA
BRANCH   5  13
ATOM     13  N   UNL     1      -4.556   4.578  -1.930  0.00  0.00    -0.343 N 
ATOM     14  H   UNL     1      -3.641   4.258  -1.961  0.00  0.00    +0.144 HD
ATOM     15  H   UNL     1      -5.207   4.248  -2.569  0.00  0.00    +0.144 HD
ENDBRANCH   5  13
BRANCH   6  16
ATOM     16  C   UNL     1      -7.116   5.703  -2.087  0.00  0.00    +0.128 C 
BRANCH  16  17
ATOM     17  C   UNL     1      -7.960   4.512  -1.631  0.00  0.00    +0.018 C 
ATOM     18  C   UNL     1      -8.938   4.124  -2.742  0.00  0.00    +0.005 C 
ENDBRANCH  16  17
ENDBRANCH   6  16
ENDBRANCH   1   4
BRANCH   1  19
ATOM     19  C   UNL     1      -1.584   6.130  -0.044  0.00  0.00    +0.114 C 
BRANCH  19  20
ATOM     20  C   UNL     1      -1.224   6.258  -1.525  0.00  0.00    +0.019 C 
BRANCH  20  22
ATOM     21  C   UNL     1       0.376   7.269  -3.156  0.00  0.00    +0.004 C 
ATOM     22  C   UNL     1       0.016   7.141  -1.674  0.00  0.00    -0.002 C 
ENDBRANCH  20  22
ENDBRANCH  19  20
ENDBRANCH   1  19
BRANCH   2  23
ATOM     23  C   UNL     1      -1.264   3.328   0.273  0.00  0.00    +0.325 C 
BRANCH  23  24
ATOM     24  O   UNL     1      -1.379   1.923   0.509  0.00  0.00    -0.480 OA
BRANCH  24  25
ATOM     25  C   UNL     1      -0.227   1.202   0.518  0.00  0.00    +0.156 A 
ATOM     26  C   UNL     1       0.988   1.832   0.298  0.00  0.00    +0.048 A 
ATOM     27  C   UNL     1       2.158   1.096   0.301  0.00  0.00    +0.004 A 
ATOM     28  C   UNL     1       2.118  -0.268   0.524  0.00  0.00    +0.003 A 
ATOM     29  C   UNL     1       0.909  -0.900   0.744  0.00  0.00    +0.042 A 
ATOM     30  C   UNL     1      -0.265  -0.168   0.741  0.00  0.00    +0.165 A 
ATOM     31  F   UNL     1      -1.448  -0.786   0.955  0.00  0.00    -0.202 F 
ENDBRANCH  24  25
ENDBRANCH  23  24
ENDBRANCH   2  23
TORSDOF 10
