REMARK  Name = ZINC36265400
REMARK  4 active torsions:
REMARK  status: ('A' for Active; 'I' for Inactive)
REMARK    1  A    between atoms: C_1  and  C_2
REMARK    2  A    between atoms: C_5  and  S_9
REMARK    3  A    between atoms: S_9  and  N_12
REMARK    4  A    between atoms: N_12  and  C_13
REMARK                            x       y       z     vdW  Elec       q    Type
REMARK                         _______ _______ _______ _____ _____    ______ ____
ROOT
ATOM      1  S   UNL     1       0.022  -4.645   0.002  0.00  0.00    +0.060 S 
ATOM      2  O   UNL     1      -0.864  -5.276   0.916  0.00  0.00    -0.153 OA
ATOM      3  O   UNL     1      -0.017  -4.901  -1.396  0.00  0.00    -0.153 OA
ENDROOT
BRANCH   1   8
ATOM      4  C   UNL     1      -0.735   1.301   0.693  0.00  0.00    +0.044 C 
ATOM      5  C   UNL     1      -0.546  -0.184   0.519  0.00  0.00    -0.049 A 
ATOM      6  C   UNL     1      -1.315  -1.069   1.253  0.00  0.00    +0.005 A 
ATOM      7  C   UNL     1      -1.142  -2.431   1.094  0.00  0.00    +0.030 A 
ATOM      8  C   UNL     1      -0.200  -2.909   0.203  0.00  0.00    +0.119 A 
ATOM      9  C   UNL     1       0.569  -2.024  -0.531  0.00  0.00    +0.044 A 
ATOM     10  C   UNL     1       0.392  -0.661  -0.376  0.00  0.00    +0.020 A 
ATOM     11 BR   UNL     1       1.859  -2.677  -1.751  0.00  0.00    -0.048 Br
ENDBRANCH   1   8
BRANCH   1  12
ATOM     12  N   UNL     1       1.558  -5.005   0.505  0.00  0.00    -0.186 NA
ATOM     13  H   UNL     1       2.209  -5.344  -0.128  0.00  0.00    +0.148 HD
BRANCH  12  14
ATOM     14  C   UNL     1       1.933  -4.810   1.908  0.00  0.00    +0.080 C 
ATOM     15  C   UNL     1       3.368  -4.368   2.200  0.00  0.00    -0.006 C 
ATOM     16  C   UNL     1       2.918  -5.809   2.520  0.00  0.00    -0.006 C 
ATOM     17  C   UNL     1       2.983  -5.917   4.058  0.00  0.00    -0.077 C 
ATOM     18  N   UNL     1       3.963  -4.877   4.465  0.00  0.00    +0.379 N 
ATOM     19  C   UNL     1       3.661  -3.695   3.558  0.00  0.00    -0.077 C 
ATOM     20  H   UNL     1       3.823  -4.619   5.431  0.00  0.00    -0.086 HD
ATOM     21  H   UNL     1       4.906  -5.205   4.319  0.00  0.00    -0.086 HD
ENDBRANCH  12  14
ENDBRANCH   1  12
TORSDOF 3
