REMARK  Name = ZINC39280038
REMARK  4 active torsions:
REMARK  status: ('A' for Active; 'I' for Inactive)
REMARK    1  A    between atoms: C_4  and  C_7
REMARK    2  A    between atoms: C_9  and  C_20
REMARK    3  A    between atoms: N_10  and  C_12
REMARK    4  A    between atoms: N_18  and  N_19
REMARK                            x       y       z     vdW  Elec       q    Type
REMARK                         _______ _______ _______ _____ _____    ______ ____
ROOT
ATOM      1  C   UNL     1       3.755  -0.720   0.331  0.00  0.00    +0.093 A 
ATOM      2  C   UNL     1       3.850  -2.070  -0.046  0.00  0.00    +0.058 A 
ATOM      3  C   UNL     1       5.140  -2.308  -0.420  0.00  0.00    +0.074 A 
ATOM      4  N   UNL     1       5.831  -1.140  -0.282  0.00  0.00    -0.219 N 
ATOM      5  N   UNL     1       4.940  -0.165   0.184  0.00  0.00    -0.167 NA
ENDROOT
BRANCH   1   9
ATOM      6  C   UNL     1       0.238   1.244   1.694  0.00  0.00    +0.000 A 
ATOM      7  C   UNL     1       1.423   1.949   1.587  0.00  0.00    +0.001 A 
ATOM      8  C   UNL     1       2.567   1.317   1.145  0.00  0.00    +0.010 A 
ATOM      9  C   UNL     1       2.528  -0.034   0.807  0.00  0.00    +0.002 A 
ATOM     10  C   UNL     1       1.331  -0.740   0.917  0.00  0.00    +0.010 A 
ATOM     11  C   UNL     1       0.193  -0.098   1.360  0.00  0.00    +0.001 A 
ENDBRANCH   1   9
BRANCH   4  12
ATOM     12  C   UNL     1       7.253  -0.940  -0.573  0.00  0.00    +0.350 C 
ATOM     13  N   UNL     1       8.061  -2.011   0.031  0.00  0.00    -0.147 NA
ATOM     14  N   UNL     1       8.832  -1.492   0.843  0.00  0.00    -0.095 NA
ATOM     15  C   UNL     1       8.710  -0.162   0.931  0.00  0.00    +0.194 C 
ATOM     16  S   UNL     1       9.639   0.837   1.965  0.00  0.00    -0.014 S 
ATOM     17  N   UNL     1       7.751   0.283   0.084  0.00  0.00    -0.203 N 
BRANCH  17  18
ATOM     18  N   UNL     1       7.337   1.570  -0.116  0.00  0.00    -0.249 NA
ATOM     19  H   UNL     1       7.852   2.210   0.470  0.00  0.00    +0.141 HD
ATOM     20  H   UNL     1       7.415   1.827  -1.089  0.00  0.00    +0.141 HD
ENDBRANCH  17  18
ENDBRANCH   4  12
BRANCH   3  21
ATOM     21  C   UNL     1       5.690  -3.599  -0.891  0.00  0.00    +0.000 A 
ATOM     22  C   UNL     1       6.842  -3.624  -1.677  0.00  0.00    +0.010 A 
ATOM     23  C   UNL     1       7.350  -4.830  -2.114  0.00  0.00    +0.001 A 
ATOM     24  C   UNL     1       6.719  -6.013  -1.773  0.00  0.00    +0.000 A 
ATOM     25  C   UNL     1       5.576  -5.995  -0.994  0.00  0.00    +0.001 A 
ATOM     26  C   UNL     1       5.062  -4.795  -0.546  0.00  0.00    +0.010 A 
ENDBRANCH   3  21
TORSDOF 4
