REMARK  Name = ZINC28849425
REMARK  6 active torsions:
REMARK  status: ('A' for Active; 'I' for Inactive)
REMARK    1  A    between atoms: C_7  and  C_11
REMARK    2  A    between atoms: C_11  and  C_12
REMARK    3  A    between atoms: N_16  and  N_20
REMARK    4  A    between atoms: C_21  and  C_23
REMARK    5  A    between atoms: C_23  and  O_24
REMARK    6  A    between atoms: O_24  and  C_25
REMARK                            x       y       z     vdW  Elec       q    Type
REMARK                         _______ _______ _______ _____ _____    ______ ____
ROOT
ATOM      1  C   UNL     1      -0.753   1.593  -1.232  0.00  0.00    +0.167 C 
ATOM      2  C   UNL     1       0.003   1.222  -2.492  0.00  0.00    +0.260 C 
ATOM      3  O   UNL     1       1.122   1.568  -2.804  0.00  0.00    -0.272 OA
ATOM      4  N   UNL     1      -0.829   0.428  -3.195  0.00  0.00    -0.137 N 
ATOM      5  C   UNL     1      -1.992   0.246  -2.560  0.00  0.00    +0.326 C 
ATOM      6  O   UNL     1      -2.902  -0.431  -2.997  0.00  0.00    -0.251 OA
ATOM      7  N   UNL     1      -2.043   0.899  -1.385  0.00  0.00    -0.286 N 
ATOM      8  H   UNL     1      -2.812   0.988  -0.603  0.00  0.00    +0.151 HD
ENDROOT
BRANCH   4   9
ATOM      9  N   UNL     1      -0.513  -0.138  -4.437  0.00  0.00    -0.221 N 
ATOM     10  C   UNL     1      -0.208  -1.448  -4.523  0.00  0.00    +0.267 C 
ATOM     11  O   UNL     1      -0.205  -2.137  -3.525  0.00  0.00    -0.271 OA
ATOM     12  H   UNL     1      -0.515   0.487  -5.343  0.00  0.00    +0.174 HD
BRANCH  10  13
ATOM     13  C   UNL     1       0.131  -2.057  -5.860  0.00  0.00    +0.326 C 
BRANCH  13  14
ATOM     14  O   UNL     1       0.416  -3.447  -5.692  0.00  0.00    -0.483 OA
BRANCH  14  15
ATOM     15  C   UNL     1       0.743  -4.149  -6.808  0.00  0.00    +0.121 A 
ATOM     16  C   UNL     1       0.782  -3.514  -8.041  0.00  0.00    +0.047 A 
ATOM     17  C   UNL     1       1.119  -4.229  -9.175  0.00  0.00    +0.023 A 
ATOM     18  C   UNL     1       1.407  -5.579  -9.082  0.00  0.00    +0.041 A 
ATOM     19  C   UNL     1       1.363  -6.215  -7.854  0.00  0.00    +0.023 A 
ATOM     20  C   UNL     1       1.031  -5.503  -6.718  0.00  0.00    +0.047 A 
ATOM     21 CL   UNL     1       1.823  -6.476 -10.509  0.00  0.00    -0.084 Cl
ENDBRANCH  14  15
ENDBRANCH  13  14
ENDBRANCH  10  13
ENDBRANCH   4   9
BRANCH   1  22
ATOM     22  C   UNL     1      -0.013   1.086   0.008  0.00  0.00    +0.069 C 
BRANCH  22  29
ATOM     23  C   UNL     1      -3.644  -0.549   2.481  0.00  0.00    +0.001 A 
ATOM     24  C   UNL     1      -3.954   0.246   3.576  0.00  0.00    +0.002 A 
ATOM     25  C   UNL     1      -3.227   1.384   3.847  0.00  0.00    +0.026 A 
ATOM     26  C   UNL     1      -2.170   1.742   3.016  0.00  0.00    +0.047 A 
ATOM     27  C   UNL     1      -1.863   0.937   1.904  0.00  0.00    +0.003 A 
ATOM     28  C   UNL     1      -2.610  -0.216   1.652  0.00  0.00    +0.010 A 
ATOM     29  C   UNL     1      -0.718   1.572   1.248  0.00  0.00    -0.020 A 
ATOM     30  C   UNL     1      -0.420   2.672   1.957  0.00  0.00    +0.087 A 
ATOM     31  N   UNL     1      -1.277   2.790   3.017  0.00  0.00    -0.360 N 
ATOM     32  H   UNL     1      -1.331   3.558   3.803  0.00  0.00    +0.165 HD
ENDBRANCH  22  29
ENDBRANCH   1  22
TORSDOF 6
