REMARK  Name = ZINC45380678
REMARK  9 active torsions:
REMARK  status: ('A' for Active; 'I' for Inactive)
REMARK    1  A    between atoms: C_1  and  C_2
REMARK    2  A    between atoms: C_2  and  C_4
REMARK    3  A    between atoms: C_2  and  N_13
REMARK    4  A    between atoms: C_4  and  C_5
REMARK    5  A    between atoms: C_5  and  C_6
REMARK    6  A    between atoms: C_9  and  O_12
REMARK    7  A    between atoms: N_16  and  C_17
REMARK    8  A    between atoms: N_20  and  C_23
REMARK    9  A    between atoms: C_23  and  C_24
REMARK                            x       y       z     vdW  Elec       q    Type
REMARK                         _______ _______ _______ _____ _____    ______ ____
ROOT
ATOM      1  N   UNL     1       0.688  -0.476  -1.203  0.00  0.00    -0.297 N 
ATOM      2  C   UNL     1       0.006  -0.608  -2.358  0.00  0.00    +0.300 C 
ATOM      3  O   UNL     1      -1.178  -0.335  -2.400  0.00  0.00    -0.253 OA
ATOM      4  N   UNL     1       0.637  -1.043  -3.467  0.00  0.00    -0.297 N 
ATOM      5  H   UNL     1       1.632  -0.695  -1.170  0.00  0.00    +0.151 HD
ATOM      6  H   UNL     1       1.582  -1.261  -3.434  0.00  0.00    +0.151 HD
ENDROOT
BRANCH   4   7
ATOM      7  C   UNL     1      -0.104  -1.186  -4.723  0.00  0.00    +0.071 C 
ATOM      8  C   UNL     1      -0.785  -2.557  -4.763  0.00  0.00    +0.004 C 
ATOM      9  C   UNL     1      -1.491  -2.731  -6.109  0.00  0.00    -0.077 C 
ATOM     10  N   UNL     1      -0.508  -2.640  -7.196  0.00  0.00    +0.383 N 
ATOM     11  C   UNL     1       0.097  -1.303  -7.209  0.00  0.00    -0.077 C 
ATOM     12  C   UNL     1       0.864  -1.074  -5.904  0.00  0.00    +0.004 C 
ATOM     13  H   UNL     1       0.212  -3.333  -7.056  0.00  0.00    -0.081 HD
BRANCH  10  14
ATOM     14  C   UNL     1      -1.177  -2.885  -8.480  0.00  0.00    -0.022 C 
BRANCH  14  15
ATOM     15  C   UNL     1      -0.151  -2.914  -9.584  0.00  0.00    +0.025 A 
ATOM     16  C   UNL     1       0.369  -4.124 -10.002  0.00  0.00    +0.021 A 
ATOM     17  C   UNL     1       1.312  -4.139 -11.018  0.00  0.00    +0.003 A 
ATOM     18  C   UNL     1       1.699  -2.931 -11.577  0.00  0.00    +0.020 A 
ATOM     19  C   UNL     1       1.136  -1.760 -11.107  0.00  0.00    +0.111 A 
ATOM     20  N   UNL     1       0.237  -1.784 -10.142  0.00  0.00    -0.262 NA
ENDBRANCH  14  15
ENDBRANCH  10  14
ENDBRANCH   4   7
BRANCH   1  22
ATOM     21  C   UNL     1      -0.019   1.526   0.010  0.00  0.00    +0.028 C 
ATOM     22  C   UNL     1       0.002  -0.004   0.002  0.00  0.00    +0.072 C 
BRANCH  22  23
ATOM     23  C   UNL     1       0.742  -0.511   1.242  0.00  0.00    +0.026 C 
BRANCH  23  24
ATOM     24  C   UNL     1       0.655  -2.037   1.299  0.00  0.00    +0.037 C 
BRANCH  24  25
ATOM     25  C   UNL     1       1.384  -2.537   2.519  0.00  0.00    -0.047 A 
ATOM     26  C   UNL     1       2.731  -2.841   2.443  0.00  0.00    +0.007 A 
ATOM     27  C   UNL     1       3.401  -3.299   3.561  0.00  0.00    +0.045 A 
ATOM     28  C   UNL     1       2.722  -3.453   4.761  0.00  0.00    +0.117 A 
ATOM     29  C   UNL     1       1.371  -3.147   4.835  0.00  0.00    +0.045 A 
ATOM     30  C   UNL     1       0.707  -2.684   3.716  0.00  0.00    +0.007 A 
BRANCH  28  31
ATOM     31  O   UNL     1       3.379  -3.905   5.861  0.00  0.00    -0.507 OA
ATOM     32  H   UNL     1       3.771  -3.204   6.401  0.00  0.00    +0.292 HD
ENDBRANCH  28  31
ENDBRANCH  24  25
ENDBRANCH  23  24
ENDBRANCH  22  23
ENDBRANCH   1  22
TORSDOF 8
