REMARK  Name = ZINC13785672
REMARK  7 active torsions:
REMARK  status: ('A' for Active; 'I' for Inactive)
REMARK    1  A    between atoms: C_1  and  C_2
REMARK    2  A    between atoms: C_5  and  C_8
REMARK    3  A    between atoms: N_12  and  C_16
REMARK    4  A    between atoms: C_16  and  C_17
REMARK    5  A    between atoms: C_17  and  C_18
REMARK    6  A    between atoms: N_20  and  C_21
REMARK    7  A    between atoms: C_26  and  O_27
REMARK                            x       y       z     vdW  Elec       q    Type
REMARK                         _______ _______ _______ _____ _____    ______ ____
ROOT
ATOM      1  C   UNL     1       2.553  -6.972  -2.796  0.00  0.00    +0.028 C 
ATOM      2  C   UNL     1       2.994  -6.175  -1.792  0.00  0.00    +0.077 C 
ATOM      3  C   UNL     1       3.309  -4.730  -1.804  0.00  0.00    +0.258 C 
ATOM      4  O   UNL     1       3.190  -4.058  -2.811  0.00  0.00    -0.269 OA
ATOM      5  N   UNL     1       3.726  -4.206  -0.664  0.00  0.00    -0.255 N 
ATOM      6  C   UNL     1       3.861  -4.956   0.449  0.00  0.00    +0.121 C 
ATOM      7  S   UNL     1       4.388  -4.467   2.003  0.00  0.00    -0.027 S 
ATOM      8  S   UNL     1       3.355  -6.582  -0.089  0.00  0.00    -0.061 S 
ENDROOT
BRANCH   1  13
ATOM      9  C   UNL     1       2.232 -12.658  -2.022  0.00  0.00    +0.044 C 
ATOM     10  C   UNL     1       2.316 -11.167  -2.225  0.00  0.00    -0.050 A 
ATOM     11  C   UNL     1       1.659 -10.580  -3.293  0.00  0.00    +0.004 A 
ATOM     12  C   UNL     1       1.731  -9.216  -3.485  0.00  0.00    +0.008 A 
ATOM     13  C   UNL     1       2.470  -8.427  -2.598  0.00  0.00    -0.024 A 
ATOM     14  C   UNL     1       3.136  -9.029  -1.524  0.00  0.00    +0.008 A 
ATOM     15  C   UNL     1       3.049 -10.393  -1.343  0.00  0.00    +0.004 A 
ENDBRANCH   1  13
BRANCH   5  16
ATOM     16  C   UNL     1       4.056  -2.780  -0.610  0.00  0.00    +0.124 C 
BRANCH  16  17
ATOM     17  C   UNL     1       2.806  -1.982  -0.230  0.00  0.00    +0.115 C 
BRANCH  17  18
ATOM     18  C   UNL     1       3.145  -0.515  -0.175  0.00  0.00    +0.219 C 
ATOM     19  O   UNL     1       4.274  -0.143  -0.415  0.00  0.00    -0.275 OA
ATOM     20  N   UNL     1       2.193   0.385   0.142  0.00  0.00    -0.283 N 
ATOM     21  H   UNL     1       1.308   0.084   0.402  0.00  0.00    +0.155 HD
BRANCH  20  22
ATOM     22  C   UNL     1       2.481   1.756   0.096  0.00  0.00    +0.075 A 
ATOM     23  C   UNL     1       3.568   2.213  -0.634  0.00  0.00    +0.027 A 
ATOM     24  C   UNL     1       3.850   3.566  -0.678  0.00  0.00    +0.002 A 
ATOM     25  C   UNL     1       3.050   4.465   0.003  0.00  0.00    +0.004 A 
ATOM     26  C   UNL     1       1.965   4.016   0.732  0.00  0.00    +0.047 A 
ATOM     27  C   UNL     1       1.672   2.662   0.777  0.00  0.00    +0.138 A 
BRANCH  27  28
ATOM     28  O   UNL     1       0.602   2.220   1.489  0.00  0.00    -0.505 OA
ATOM     29  H   UNL     1       0.802   2.009   2.411  0.00  0.00    +0.292 HD
ENDBRANCH  27  28
ENDBRANCH  20  22
ENDBRANCH  17  18
ENDBRANCH  16  17
ENDBRANCH   5  16
TORSDOF 6
