REMARK  Name = ZINC15969010
REMARK  3 active torsions:
REMARK  status: ('A' for Active; 'I' for Inactive)
REMARK    1  A    between atoms: C_2  and  C_3
REMARK    2  A    between atoms: C_3  and  N_4
REMARK    3  A    between atoms: C_14  and  C_16
REMARK                            x       y       z     vdW  Elec       q    Type
REMARK                         _______ _______ _______ _____ _____    ______ ____
ROOT
ATOM      1  N   UNL     1      -0.634   0.662   1.075  0.00  0.00    -0.243 N 
ATOM      2  C   UNL     1      -0.724   1.603   0.058  0.00  0.00    +0.168 A 
ATOM      3  N   UNL     1      -1.728   2.399  -0.247  0.00  0.00    -0.229 NA
ATOM      4  C   UNL     1      -1.666   3.262  -1.259  0.00  0.00    +0.054 A 
ATOM      5  C   UNL     1      -0.508   3.265  -1.969  0.00  0.00    +0.014 A 
ATOM      6  S   UNL     1       0.457   2.028  -1.145  0.00  0.00    -0.057 S 
ATOM      7  C   UNL     1      -0.159   4.110  -3.147  0.00  0.00    +0.044 C 
ATOM      8  C   UNL     1      -1.452   4.744  -3.684  0.00  0.00    +0.006 C 
ATOM      9  C   UNL     1      -2.239   5.330  -2.507  0.00  0.00    +0.006 C 
ATOM     10  C   UNL     1      -2.803   4.204  -1.639  0.00  0.00    +0.056 C 
ATOM     11  C   UNL     1       0.489  -0.068   1.222  0.00  0.00    +0.253 C 
ATOM     12  O   UNL     1       1.380   0.016   0.399  0.00  0.00    -0.270 OA
ENDROOT
BRANCH  11  13
ATOM     13  C   UNL     1       0.639  -0.970   2.383  0.00  0.00    +0.040 A 
ATOM     14  C   UNL     1      -0.379  -1.868   2.708  0.00  0.00    +0.033 A 
ATOM     15  C   UNL     1      -0.231  -2.712   3.791  0.00  0.00    +0.043 A 
ATOM     16  C   UNL     1       0.920  -2.661   4.560  0.00  0.00    +0.040 A 
ATOM     17  C   UNL     1       1.930  -1.768   4.246  0.00  0.00    +0.043 A 
ATOM     18  C   UNL     1       1.796  -0.923   3.162  0.00  0.00    +0.033 A 
ATOM     19 CL   UNL     1       3.369  -1.712   5.216  0.00  0.00    -0.083 Cl
ATOM     20 CL   UNL     1      -1.493  -3.834   4.194  0.00  0.00    -0.083 Cl
ENDBRANCH  11  13
BRANCH   1  21
ATOM     21  C   UNL     1      -1.762   0.462   1.989  0.00  0.00    +0.142 C 
BRANCH  21  23
ATOM     22  C   UNL     1      -3.848  -0.647   1.372  0.00  0.00    +0.005 C 
ATOM     23  C   UNL     1      -3.040   0.370   1.197  0.00  0.00    -0.015 C 
ENDBRANCH  21  23
ENDBRANCH   1  21
TORSDOF 3
