REMARK  Name = ZINC27520255
REMARK  4 active torsions:
REMARK  status: ('A' for Active; 'I' for Inactive)
REMARK    1  A    between atoms: C_4  and  N_7
REMARK    2  A    between atoms: C_8  and  C_10
REMARK    3  A    between atoms: N_20  and  C_21
REMARK    4  A    between atoms: C_22  and  C_30
REMARK                            x       y       z     vdW  Elec       q    Type
REMARK                         _______ _______ _______ _____ _____    ______ ____
ROOT
ATOM      1  C   UNL     1       0.013   0.010  -0.161  0.00  0.00    +0.098 A 
ATOM      2  C   UNL     1      -1.141  -0.745   0.016  0.00  0.00    +0.030 A 
ATOM      3  C   UNL     1      -1.001  -2.202  -0.006  0.00  0.00    +0.019 A 
ATOM      4  C   UNL     1      -2.127  -3.029  -0.104  0.00  0.00    +0.026 A 
ATOM      5  C   UNL     1      -1.966  -4.397  -0.127  0.00  0.00    +0.019 A 
ATOM      6  C   UNL     1      -0.698  -4.957  -0.053  0.00  0.00    +0.019 A 
ATOM      7  C   UNL     1       0.421  -4.154   0.044  0.00  0.00    +0.048 A 
ATOM      8  C   UNL     1       0.283  -2.774   0.071  0.00  0.00    +0.137 A 
ATOM      9  O   UNL     1       1.372  -1.974   0.174  0.00  0.00    -0.439 OA
ATOM     10  C   UNL     1       1.274  -0.728  -0.361  0.00  0.00    +0.212 A 
ATOM     11  N   UNL     1       2.275  -0.194  -1.034  0.00  0.00    -0.319 N 
ATOM     12 BR   UNL     1      -3.483  -5.519  -0.258  0.00  0.00    -0.050 Br
ATOM     13  H   UNL     1       2.175   0.817  -1.457  0.00  0.00    +0.169 HD
ENDROOT
BRANCH  11  14
ATOM     14  C   UNL     1       3.418  -0.886  -1.205  0.00  0.00    +0.098 A 
ATOM     15  C   UNL     1       4.582  -0.507  -1.884  0.00  0.00    +0.086 A 
ATOM     16  C   UNL     1       5.683  -1.454  -1.912  0.00  0.00    -0.018 A 
ATOM     17  C   UNL     1       5.476  -2.633  -1.283  0.00  0.00    -0.004 A 
ATOM     18  S   UNL     1       3.832  -2.523  -0.630  0.00  0.00    -0.075 S 
ATOM     19  C   UNL     1       6.434  -3.778  -1.167  0.00  0.00    +0.043 C 
ATOM     20  C   UNL     1       7.563  -3.572  -2.188  0.00  0.00    +0.005 C 
ATOM     21  C   UNL     1       8.068  -2.131  -2.076  0.00  0.00    +0.005 C 
ATOM     22  C   UNL     1       7.009  -1.166  -2.611  0.00  0.00    +0.037 C 
BRANCH  15  23
ATOM     23  C   UNL     1       4.685   0.770  -2.524  0.00  0.00    +0.102 C 
ATOM     24  N   UNL     1       4.767   1.783  -3.032  0.00  0.00    -0.191 NA
ENDBRANCH  15  23
ENDBRANCH  11  14
BRANCH   1  26
ATOM     25  N   UNL     1      -1.194   2.127   0.019  0.00  0.00    -0.281 N 
ATOM     26  C   UNL     1      -0.023   1.482  -0.155  0.00  0.00    +0.253 C 
ATOM     27  O   UNL     1       1.002   2.116  -0.312  0.00  0.00    -0.270 OA
ATOM     28  H   UNL     1      -2.133   1.557   0.072  0.00  0.00    +0.155 HD
BRANCH  25  32
ATOM     29  C   UNL     1      -1.256   6.278   0.357  0.00  0.00    +0.000 A 
ATOM     30  C   UNL     1      -2.312   5.619  -0.246  0.00  0.00    +0.002 A 
ATOM     31  C   UNL     1      -2.294   4.243  -0.359  0.00  0.00    +0.023 A 
ATOM     32  C   UNL     1      -1.215   3.521   0.133  0.00  0.00    +0.034 A 
ATOM     33  C   UNL     1      -0.159   4.185   0.742  0.00  0.00    +0.023 A 
ATOM     34  C   UNL     1      -0.180   5.562   0.849  0.00  0.00    +0.002 A 
ENDBRANCH  25  32
ENDBRANCH   1  26
TORSDOF 4
