REMARK  Name = ZINC01136918
REMARK  10 active torsions:
REMARK  status: ('A' for Active; 'I' for Inactive)
REMARK    1  A    between atoms: C_1  and  O_2
REMARK    2  A    between atoms: O_2  and  C_3
REMARK    3  A    between atoms: C_5  and  C_11
REMARK    4  A    between atoms: C_8  and  O_9
REMARK    5  A    between atoms: C_13  and  C_27
REMARK    6  A    between atoms: C_14  and  O_26
REMARK    7  A    between atoms: N_17  and  C_18
REMARK    8  A    between atoms: C_18  and  C_19
REMARK    9  A    between atoms: C_19  and  C_20
REMARK   10  A    between atoms: C_27  and  C_29
REMARK                            x       y       z     vdW  Elec       q    Type
REMARK                         _______ _______ _______ _____ _____    ______ ____
ROOT
ATOM      1  C   UNL     1       2.516  -0.342   3.799  0.00  0.00    +0.145 C 
ATOM      2  C   UNL     1       3.850   0.240   4.205  0.00  0.00    +0.072 C 
ATOM      3  C   UNL     1       4.233  -0.409   5.329  0.00  0.00    +0.188 C 
ATOM      4  C   UNL     1       3.204  -1.404   5.690  0.00  0.00    +0.282 C 
ATOM      5  O   UNL     1       3.257  -2.146   6.651  0.00  0.00    -0.267 OA
ATOM      6  N   UNL     1       2.196  -1.370   4.796  0.00  0.00    -0.283 N 
ENDROOT
BRANCH   1   9
ATOM      7  C   UNL     1       0.647   2.841   4.604  0.00  0.00    +0.163 A 
ATOM      8  C   UNL     1       1.618   1.852   4.598  0.00  0.00    +0.055 A 
ATOM      9  C   UNL     1       1.459   0.732   3.804  0.00  0.00    -0.018 A 
ATOM     10  C   UNL     1       0.333   0.594   3.014  0.00  0.00    +0.025 A 
ATOM     11  C   UNL     1      -0.640   1.577   3.015  0.00  0.00    +0.063 A 
ATOM     12  C   UNL     1      -0.490   2.700   3.814  0.00  0.00    +0.173 A 
ATOM     13 BR   UNL     1      -2.180   1.385   1.934  0.00  0.00    -0.046 Br
BRANCH   7  15
ATOM     14  C   UNL     1       2.046   4.080   6.074  0.00  0.00    +0.277 C 
ATOM     15  O   UNL     1       0.802   3.943   5.385  0.00  0.00    -0.491 OA
ENDBRANCH   7  15
BRANCH  12  16
ATOM     16  O   UNL     1      -1.448   3.665   3.821  0.00  0.00    -0.503 OA
ATOM     17  H   UNL     1      -1.315   4.357   3.159  0.00  0.00    +0.292 HD
ENDBRANCH  12  16
ENDBRANCH   1   9
BRANCH   3  18
ATOM     18  O   UNL     1       5.378  -0.181   6.014  0.00  0.00    -0.502 OA
ATOM     19  H   UNL     1       5.420  -0.792   6.805  0.00  0.00    +0.292 HD
ENDBRANCH   3  18
BRANCH   2  20
ATOM     20  C   UNL     1       4.589   1.303   3.514  0.00  0.00    +0.201 C 
ATOM     21  O   UNL     1       5.603   1.762   4.010  0.00  0.00    -0.286 OA
BRANCH  20  22
ATOM     22  C   UNL     1       4.106   1.813   2.228  0.00  0.00    +0.059 A 
ATOM     23  C   UNL     1       4.575   2.885   1.480  0.00  0.00    +0.019 A 
ATOM     24  C   UNL     1       3.933   3.148   0.297  0.00  0.00    +0.008 A 
ATOM     25  C   UNL     1       2.889   2.363  -0.082  0.00  0.00    +0.046 A 
ATOM     26  S   UNL     1       2.769   1.214   1.211  0.00  0.00    -0.093 S 
ENDBRANCH  20  22
ENDBRANCH   2  20
BRANCH   6  27
ATOM     27  C   UNL     1       0.995  -2.208   4.817  0.00  0.00    +0.114 C 
BRANCH  27  28
ATOM     28  C   UNL     1       1.253  -3.489   4.021  0.00  0.00    +0.054 C 
BRANCH  28  29
ATOM     29  C   UNL     1       0.016  -4.351   4.042  0.00  0.00    -0.046 A 
ATOM     30  C   UNL     1      -0.156  -5.288   5.043  0.00  0.00    +0.004 A 
ATOM     31  C   UNL     1      -1.291  -6.076   5.065  0.00  0.00    +0.000 A 
ATOM     32  C   UNL     1      -2.251  -5.932   4.080  0.00  0.00    +0.000 A 
ATOM     33  C   UNL     1      -2.077  -4.998   3.076  0.00  0.00    +0.000 A 
ATOM     34  C   UNL     1      -0.943  -4.207   3.057  0.00  0.00    +0.004 A 
ENDBRANCH  28  29
ENDBRANCH  27  28
ENDBRANCH   6  27
TORSDOF 9
