REMARK  Name = ZINC28060499
REMARK  6 active torsions:
REMARK  status: ('A' for Active; 'I' for Inactive)
REMARK    1  A    between atoms: C_1  and  O_2
REMARK    2  A    between atoms: O_2  and  C_3
REMARK    3  A    between atoms: C_6  and  C_11
REMARK    4  A    between atoms: C_7  and  O_9
REMARK    5  A    between atoms: O_9  and  C_10
REMARK    6  A    between atoms: C_28  and  C_30
REMARK                            x       y       z     vdW  Elec       q    Type
REMARK                         _______ _______ _______ _____ _____    ______ ____
ROOT
ATOM      1  C   UNL     1       2.132   4.405  -0.093  0.00  0.00    +0.238 C 
ATOM      2  C   UNL     1       2.959   4.550   1.164  0.00  0.00    +0.026 C 
ATOM      3  C   UNL     1       2.683   5.542   2.013  0.00  0.00    +0.050 C 
ATOM      4  C   UNL     1       1.576   6.469   1.679  0.00  0.00    +0.038 A 
ATOM      5  C   UNL     1       1.003   7.294   2.639  0.00  0.00    +0.013 A 
ATOM      6  C   UNL     1      -0.022   8.147   2.279  0.00  0.00    +0.001 A 
ATOM      7  C   UNL     1      -0.477   8.181   0.973  0.00  0.00    +0.004 A 
ATOM      8  C   UNL     1       0.086   7.361   0.011  0.00  0.00    +0.046 A 
ATOM      9  C   UNL     1       1.113   6.502   0.357  0.00  0.00    +0.131 A 
ATOM     10  O   UNL     1       1.691   5.681  -0.555  0.00  0.00    -0.479 OA
ATOM     11  N   UNL     1       3.406   5.736   3.196  0.00  0.00    -0.282 N 
ATOM     12  C   UNL     1       4.598   5.044   3.333  0.00  0.00    +0.240 A 
ATOM     13  N   UNL     1       5.580   5.182   4.177  0.00  0.00    -0.092 NA
ATOM     14  N   UNL     1       6.507   4.322   3.928  0.00  0.00    -0.021 NA
ATOM     15  N   UNL     1       6.179   3.585   2.916  0.00  0.00    -0.042 NA
ATOM     16  N   UNL     1       4.924   4.025   2.495  0.00  0.00    -0.201 N 
ATOM     17  C   UNL     1       4.069   3.559   1.413  0.00  0.00    +0.181 C 
ATOM     18  H   UNL     1       3.021   6.416   3.971  0.00  0.00    +0.155 HD
ENDROOT
BRANCH   1  22
ATOM     19  C   UNL     1      -1.277   1.956   0.730  0.00  0.00    +0.124 A 
ATOM     20  C   UNL     1      -1.263   3.288   1.122  0.00  0.00    +0.046 A 
ATOM     21  C   UNL     1      -0.162   4.077   0.853  0.00  0.00    +0.015 A 
ATOM     22  C   UNL     1       0.932   3.541   0.199  0.00  0.00    +0.039 A 
ATOM     23  C   UNL     1       0.925   2.209  -0.189  0.00  0.00    +0.131 A 
ATOM     24  C   UNL     1      -0.179   1.415   0.080  0.00  0.00    +0.091 A 
BRANCH  19  26
ATOM     25  C   UNL     1      -3.458   1.806   1.664  0.00  0.00    +0.277 C 
ATOM     26  O   UNL     1      -2.363   1.182   0.990  0.00  0.00    -0.495 OA
ENDBRANCH  19  26
BRANCH  23  27
ATOM     27  O   UNL     1       2.001   1.683  -0.832  0.00  0.00    -0.495 OA
ATOM     28  C   UNL     1       1.897   0.326  -1.268  0.00  0.00    +0.277 C 
ENDBRANCH  23  27
ENDBRANCH   1  22
BRANCH  17  29
ATOM     29  C   UNL     1       3.474   2.225   1.786  0.00  0.00    +0.019 A 
ATOM     30  C   UNL     1       3.765   0.995   1.298  0.00  0.00    +0.013 A 
ATOM     31  C   UNL     1       3.085  -0.101   1.795  0.00  0.00    +0.008 A 
ATOM     32  C   UNL     1       2.146   0.087   2.754  0.00  0.00    +0.045 A 
ATOM     33  S   UNL     1       2.207   1.856   2.988  0.00  0.00    -0.099 S 
ENDBRANCH  17  29
TORSDOF 4
