REMARK  Name = ZINC06287804
REMARK  5 active torsions:
REMARK  status: ('A' for Active; 'I' for Inactive)
REMARK    1  A    between atoms: C_3  and  C_8
REMARK    2  A    between atoms: C_9  and  C_10
REMARK    3  A    between atoms: N_12  and  C_13
REMARK    4  A    between atoms: C_13  and  C_14
REMARK    5  A    between atoms: N_16  and  C_17
REMARK                            x       y       z     vdW  Elec       q    Type
REMARK                         _______ _______ _______ _____ _____    ______ ____
ROOT
ATOM      1  C   UNL     1      -2.495  -2.861   0.019  0.00  0.00    +0.237 C 
ATOM      2  O   UNL     1      -3.559  -2.270   0.041  0.00  0.00    -0.271 OA
ATOM      3  N   UNL     1      -2.473  -4.209   0.005  0.00  0.00    -0.303 N 
ATOM      4  H   UNL     1      -1.625  -4.680  -0.012  0.00  0.00    +0.149 HD
ENDROOT
BRANCH   1   6
ATOM      5  C   UNL     1      -1.261  -0.761   0.021  0.00  0.00    +0.013 C 
ATOM      6  C   UNL     1      -1.239  -2.108   0.007  0.00  0.00    +0.068 C 
BRANCH   5   9
ATOM      7  C   UNL     1       1.169   2.098   0.013  0.00  0.00    +0.003 A 
ATOM      8  C   UNL     1      -0.018   1.394   0.024  0.00  0.00    +0.008 A 
ATOM      9  C   UNL     1       0.001  -0.004   0.010  0.00  0.00    -0.022 A 
ATOM     10  C   UNL     1       1.225  -0.679  -0.016  0.00  0.00    +0.046 A 
ATOM     11  C   UNL     1       2.405   0.038  -0.027  0.00  0.00    +0.124 A 
ATOM     12  C   UNL     1       2.377   1.424  -0.012  0.00  0.00    +0.038 A 
ATOM     13  F   UNL     1       3.589  -0.612  -0.051  0.00  0.00    -0.205 F 
ENDBRANCH   5   9
ENDBRANCH   1   6
BRANCH   3  14
ATOM     14  C   UNL     1      -3.729  -4.962   0.016  0.00  0.00    +0.200 C 
BRANCH  14  15
ATOM     15  C   UNL     1      -3.430  -6.439  -0.003  0.00  0.00    +0.234 C 
ATOM     16  O   UNL     1      -2.280  -6.824  -0.024  0.00  0.00    -0.274 OA
ATOM     17  N   UNL     1      -4.440  -7.332   0.003  0.00  0.00    -0.284 N 
ATOM     18  H   UNL     1      -5.356  -7.026   0.088  0.00  0.00    +0.155 HD
BRANCH  17  19
ATOM     19  C   UNL     1      -4.165  -8.700  -0.112  0.00  0.00    +0.036 A 
ATOM     20  C   UNL     1      -5.042  -9.529  -0.800  0.00  0.00    +0.026 A 
ATOM     21  C   UNL     1      -4.768 -10.877  -0.919  0.00  0.00    +0.043 A 
ATOM     22  C   UNL     1      -3.626 -11.406  -0.342  0.00  0.00    +0.159 A 
ATOM     23  C   UNL     1      -2.751 -10.582   0.350  0.00  0.00    +0.160 A 
ATOM     24  C   UNL     1      -3.020  -9.230   0.466  0.00  0.00    +0.064 A 
ATOM     25  F   UNL     1      -1.637 -11.100   0.912  0.00  0.00    -0.202 F 
ATOM     26  F   UNL     1      -3.362 -12.726  -0.455  0.00  0.00    -0.202 F 
ENDBRANCH  17  19
ENDBRANCH  14  15
ENDBRANCH   3  14
TORSDOF 5
