REMARK  Name = ZINC08466706
REMARK  3 active torsions:
REMARK  status: ('A' for Active; 'I' for Inactive)
REMARK    1  A    between atoms: C_1  and  C_2
REMARK    2  A    between atoms: C_2  and  C_3
REMARK    3  A    between atoms: C_6  and  C_9
REMARK                            x       y       z     vdW  Elec       q    Type
REMARK                         _______ _______ _______ _____ _____    ______ ____
ROOT
ATOM      1  C   UNL     1       1.905  -1.811  -0.024  0.00  0.00    +0.089 C 
ATOM      2  C   UNL     1       3.373  -1.779  -0.387  0.00  0.00    +0.024 C 
ATOM      3  C   UNL     1       4.091  -0.637  -0.376  0.00  0.00    +0.016 C 
ATOM      4  C   UNL     1       5.556  -0.641  -0.748  0.00  0.00    +0.051 C 
ATOM      5  C   UNL     1       6.184  -1.981  -0.361  0.00  0.00    +0.014 C 
ATOM      6  C   UNL     1       5.428  -3.095  -1.093  0.00  0.00    +0.080 C 
ATOM      7  C   UNL     1       3.969  -3.005  -0.742  0.00  0.00    +0.162 C 
ATOM      8  O   UNL     1       3.289  -4.011  -0.765  0.00  0.00    -0.292 OA
ATOM      9  N   UNL     1       3.538   0.573  -0.035  0.00  0.00    -0.317 N 
ATOM     10  C   UNL     1       2.168   0.695  -0.016  0.00  0.00    +0.047 C 
ATOM     11  C   UNL     1       1.355  -0.410  -0.013  0.00  0.00    +0.033 C 
ATOM     12  C   UNL     1       0.002  -0.004   0.002  0.00  0.00    +0.193 C 
ATOM     13  O   UNL     1      -0.968  -0.737   0.008  0.00  0.00    -0.287 OA
ATOM     14  C   UNL     1      -0.018   1.475   0.010  0.00  0.00    +0.031 A 
ATOM     15  C   UNL     1       1.335   1.901  -0.001  0.00  0.00    +0.007 A 
ATOM     16  C   UNL     1       1.657   3.249   0.004  0.00  0.00    +0.010 A 
ATOM     17  C   UNL     1       0.593   4.155   0.019  0.00  0.00    +0.001 A 
ATOM     18  C   UNL     1      -0.717   3.739   0.029  0.00  0.00    +0.001 A 
ATOM     19  C   UNL     1      -1.060   2.382   0.020  0.00  0.00    +0.012 A 
ATOM     20  H   UNL     1       4.188   1.424   0.217  0.00  0.00    +0.152 HD
ENDROOT
BRANCH   1  24
ATOM     21  C   UNL     1       1.439  -3.550   3.850  0.00  0.00    -0.048 A 
ATOM     22  C   UNL     1       0.837  -4.137   2.752  0.00  0.00    +0.004 A 
ATOM     23  C   UNL     1       0.988  -3.574   1.499  0.00  0.00    +0.005 A 
ATOM     24  C   UNL     1       1.740  -2.424   1.343  0.00  0.00    -0.035 A 
ATOM     25  C   UNL     1       2.346  -1.841   2.440  0.00  0.00    +0.005 A 
ATOM     26  C   UNL     1       2.191  -2.400   3.695  0.00  0.00    +0.004 A 
BRANCH  21  28
ATOM     27  C   UNL     1       2.399  -5.172   5.461  0.00  0.00    +0.009 C 
ATOM     28  C   UNL     1       1.275  -4.164   5.217  0.00  0.00    +0.032 C 
ENDBRANCH  21  28
ENDBRANCH   1  24
TORSDOF 2
