REMARK  Name = ZINC12990469
REMARK  7 active torsions:
REMARK  status: ('A' for Active; 'I' for Inactive)
REMARK    1  A    between atoms: C_1  and  C_2
REMARK    2  A    between atoms: C_6  and  N_8
REMARK    3  A    between atoms: C_9  and  C_11
REMARK    4  A    between atoms: C_11  and  C_12
REMARK    5  A    between atoms: C_12  and  C_13
REMARK    6  A    between atoms: C_13  and  N_14
REMARK    7  A    between atoms: C_15  and  C_17
REMARK                            x       y       z     vdW  Elec       q    Type
REMARK                         _______ _______ _______ _____ _____    ______ ____
ROOT
ATOM      1  C   UNL     1      -6.528   0.870   1.062  0.00  0.00    +0.104 C 
ENDROOT
BRANCH   1   2
ATOM      2  N   UNL     1      -5.155   1.382   1.049  0.00  0.00    -0.315 N 
ATOM      3  C   UNL     1      -4.334   1.083   0.024  0.00  0.00    +0.219 C 
ATOM      4  O   UNL     1      -4.731   0.390  -0.889  0.00  0.00    -0.275 OA
ATOM      5  H   UNL     1      -4.838   1.937   1.779  0.00  0.00    +0.149 HD
BRANCH   3   6
ATOM      6  C   UNL     1      -2.922   1.610   0.010  0.00  0.00    +0.048 C 
ATOM      7  C   UNL     1      -2.209   1.127  -1.255  0.00  0.00    +0.019 C 
ATOM      8  C   UNL     1      -0.776   1.663  -1.268  0.00  0.00    -0.009 C 
ATOM      9  C   UNL     1      -0.029   1.151  -0.035  0.00  0.00    +0.007 C 
ATOM     10  C   UNL     1      -0.742   1.634   1.230  0.00  0.00    -0.009 C 
ATOM     11  C   UNL     1      -2.175   1.099   1.244  0.00  0.00    +0.019 C 
ATOM     12  C   UNL     1      -0.769   3.163   1.248  0.00  0.00    +0.007 C 
ATOM     13  C   UNL     1      -1.516   3.675   0.015  0.00  0.00    -0.009 C 
ATOM     14  C   UNL     1      -0.803   3.192  -1.250  0.00  0.00    +0.007 C 
ATOM     15  C   UNL     1      -2.949   3.140   0.028  0.00  0.00    +0.019 C 
ENDBRANCH   3   6
ENDBRANCH   1   2
BRANCH   1  16
ATOM     16  C   UNL     1      -7.241   1.353   2.327  0.00  0.00    +0.028 C 
BRANCH  16  17
ATOM     17  C   UNL     1      -8.674   0.817   2.340  0.00  0.00    +0.097 C 
BRANCH  17  19
ATOM     18  N   UNL     1     -10.658   0.942   3.813  0.00  0.00    -0.283 N 
ATOM     19  C   UNL     1      -9.376   1.293   3.586  0.00  0.00    +0.217 C 
ATOM     20  O   UNL     1      -8.788   1.991   4.385  0.00  0.00    -0.275 OA
ATOM     21  H   UNL     1     -11.148   0.438   3.145  0.00  0.00    +0.155 HD
BRANCH  18  27
ATOM     22  C   UNL     1     -11.257   4.187   7.459  0.00  0.00    +0.044 C 
ATOM     23  C   UNL     1     -11.590   2.872   6.802  0.00  0.00    -0.049 A 
ATOM     24  C   UNL     1     -12.513   2.023   7.386  0.00  0.00    +0.006 A 
ATOM     25  C   UNL     1     -12.822   0.816   6.788  0.00  0.00    +0.040 A 
ATOM     26  C   UNL     1     -12.209   0.453   5.602  0.00  0.00    +0.144 A 
ATOM     27  C   UNL     1     -11.281   1.305   5.013  0.00  0.00    +0.069 A 
ATOM     28  C   UNL     1     -10.970   2.514   5.621  0.00  0.00    +0.029 A 
ATOM     29  F   UNL     1     -12.511  -0.726   5.017  0.00  0.00    -0.204 F 
ENDBRANCH  18  27
ENDBRANCH  17  19
ENDBRANCH  16  17
ENDBRANCH   1  16
TORSDOF 6
