REMARK  Name = ZINC25433949
REMARK  5 active torsions:
REMARK  status: ('A' for Active; 'I' for Inactive)
REMARK    1  A    between atoms: C_4  and  C_7
REMARK    2  A    between atoms: N_9  and  N_28
REMARK    3  A    between atoms: C_10  and  S_12
REMARK    4  A    between atoms: S_12  and  C_13
REMARK    5  A    between atoms: C_13  and  C_14
REMARK                            x       y       z     vdW  Elec       q    Type
REMARK                         _______ _______ _______ _____ _____    ______ ____
ROOT
ATOM      1  S   UNL     1       7.583  -0.806  -0.069  0.00  0.00    -0.078 S 
ENDROOT
BRANCH   1   5
ATOM      2  C   UNL     1       3.698  -0.688  -0.037  0.00  0.00    +0.092 A 
ATOM      3  C   UNL     1       3.862  -2.034  -0.052  0.00  0.00    +0.138 A 
ATOM      4  N   UNL     1       5.215  -2.272  -0.065  0.00  0.00    -0.251 N 
ATOM      5  C   UNL     1       5.840  -1.062  -0.058  0.00  0.00    +0.187 A 
ATOM      6  N   UNL     1       4.929  -0.118  -0.047  0.00  0.00    -0.221 NA
BRANCH   2  10
ATOM      7  C   UNL     1      -0.017   1.379   0.010  0.00  0.00    +0.000 A 
ATOM      8  C   UNL     1       1.169   2.092   0.002  0.00  0.00    +0.001 A 
ATOM      9  C   UNL     1       2.377   1.426  -0.013  0.00  0.00    +0.010 A 
ATOM     10  C   UNL     1       2.402   0.033  -0.021  0.00  0.00    +0.002 A 
ATOM     11  C   UNL     1       1.205  -0.680  -0.013  0.00  0.00    +0.010 A 
ATOM     12  C   UNL     1       0.002  -0.004   0.002  0.00  0.00    +0.001 A 
ENDBRANCH   2  10
BRANCH   4  13
ATOM     13  N   UNL     1       5.822  -3.495  -0.082  0.00  0.00    -0.296 N 
ATOM     14  H   UNL     1       5.976  -3.810  -1.028  0.00  0.00    +0.163 HD
ATOM     15  H   UNL     1       6.687  -3.477   0.438  0.00  0.00    +0.163 HD
ENDBRANCH   4  13
ENDBRANCH   1   5
BRANCH   1  16
ATOM     16  C   UNL     1       7.762   0.999  -0.053  0.00  0.00    +0.151 C 
BRANCH  16  17
ATOM     17  C   UNL     1       9.225   1.359  -0.061  0.00  0.00    +0.121 A 
ATOM     18  N   UNL     1       9.590   2.667  -0.045  0.00  0.00    -0.310 N 
ATOM     19  H   UNL     1       8.903   3.352  -0.029  0.00  0.00    +0.170 HD
ATOM     20  C   UNL     1      10.886   3.033  -0.052  0.00  0.00    +0.260 A 
ATOM     21  O   UNL     1      11.198   4.211  -0.038  0.00  0.00    -0.267 OA
ATOM     22  C   UNL     1      11.890   2.012  -0.075  0.00  0.00    +0.075 A 
ATOM     23  C   UNL     1      13.351   2.177  -0.085  0.00  0.00    -0.023 A 
ATOM     24  C   UNL     1      14.089   1.054  -0.109  0.00  0.00    -0.004 A 
ATOM     25  S   UNL     1      12.906  -0.274  -0.115  0.00  0.00    -0.073 S 
ATOM     26  C   UNL     1      11.419   0.692  -0.089  0.00  0.00    +0.116 A 
ATOM     27  N   UNL     1      10.119   0.407  -0.076  0.00  0.00    -0.226 NA
ATOM     28  C   UNL     1      15.566   1.345  -0.123  0.00  0.00    +0.043 C 
ATOM     29  C   UNL     1      15.665   2.829  -0.539  0.00  0.00    +0.010 C 
ATOM     30  C   UNL     1      14.303   3.377  -0.072  0.00  0.00    +0.037 C 
ENDBRANCH  16  17
ENDBRANCH   1  16
TORSDOF 5
