REMARK  Name = ZINC32958979
REMARK  8 active torsions:
REMARK  status: ('A' for Active; 'I' for Inactive)
REMARK    1  A    between atoms: C_1  and  C_2
REMARK    2  A    between atoms: C_2  and  C_3
REMARK    3  A    between atoms: C_3  and  N_4
REMARK    4  A    between atoms: C_10  and  C_12
REMARK    5  A    between atoms: N_15  and  S_18
REMARK    6  A    between atoms: S_18  and  C_21
REMARK    7  A    between atoms: C_26  and  C_27
REMARK    8  A    between atoms: C_31  and  C_34
REMARK                            x       y       z     vdW  Elec       q    Type
REMARK                         _______ _______ _______ _____ _____    ______ ____
ROOT
ATOM      1  C   UNL     1       0.861  -0.505   1.175  0.00  0.00    +0.078 C 
ATOM      2  C   UNL     1       0.000   0.004   0.017  0.00  0.00    +0.030 C 
ATOM      3  C   UNL     1      -0.015   1.536   0.032  0.00  0.00    +0.110 C 
ATOM      4  N   UNL     1       1.371   2.022   0.012  0.00  0.00    -0.177 NA
ATOM      5  C   UNL     1       2.309   1.526   1.029  0.00  0.00    +0.110 C 
ATOM      6  C   UNL     1       2.298  -0.006   1.003  0.00  0.00    +0.030 C 
ENDROOT
BRANCH   1  13
ATOM      7  N   UNL     1      -2.345  -4.037   2.695  0.00  0.00    -0.299 NA
ATOM      8  C   UNL     1      -1.380  -4.697   1.806  0.00  0.00    +0.103 C 
ATOM      9  C   UNL     1       0.022  -4.141   2.076  0.00  0.00    +0.123 C 
ATOM     10  N   UNL     1      -0.027  -2.675   1.962  0.00  0.00    -0.299 N 
ATOM     11  C   UNL     1      -1.056  -1.952   2.725  0.00  0.00    +0.123 C 
ATOM     12  C   UNL     1      -2.420  -2.595   2.425  0.00  0.00    +0.103 C 
ATOM     13  C   UNL     1       0.851  -2.012   1.184  0.00  0.00    +0.219 C 
ATOM     14  O   UNL     1       1.633  -2.628   0.491  0.00  0.00    -0.275 OA
BRANCH   7  15
ATOM     15  C   UNL     1      -3.671  -4.661   2.590  0.00  0.00    +0.084 C 
BRANCH  15  17
ATOM     16  C   UNL     1      -5.959  -4.772   3.588  0.00  0.00    +0.005 C 
ATOM     17  C   UNL     1      -4.578  -4.122   3.698  0.00  0.00    +0.012 C 
ENDBRANCH  15  17
ENDBRANCH   7  15
ENDBRANCH   1  13
BRANCH   4  18
ATOM     18  S   UNL     1       1.868   3.111  -1.133  0.00  0.00    +0.061 S 
ATOM     19  O   UNL     1       3.275   2.957  -1.256  0.00  0.00    -0.153 OA
ATOM     20  O   UNL     1       0.986   2.967  -2.238  0.00  0.00    -0.153 OA
BRANCH  18  21
ATOM     21  C   UNL     1       1.593   4.722  -0.475  0.00  0.00    +0.112 A 
ATOM     22  C   UNL     1       2.668   5.551  -0.209  0.00  0.00    +0.076 A 
ATOM     23  C   UNL     1       2.451   6.818   0.302  0.00  0.00    +0.145 A 
ATOM     24  C   UNL     1       1.151   7.250   0.558  0.00  0.00    +0.076 A 
ATOM     25  C   UNL     1       0.079   6.414   0.296  0.00  0.00    +0.032 A 
ATOM     26  C   UNL     1       0.303   5.151  -0.221  0.00  0.00    -0.022 A 
ATOM     27  C   UNL     1      -0.862   4.239  -0.507  0.00  0.00    +0.046 C 
ATOM     28  N   UNL     1       0.946   8.534   1.083  0.00  0.00    -0.280 N 
ATOM     29  C   UNL     1       1.957   9.430   1.035  0.00  0.00    +0.258 C 
ATOM     30  O   UNL     1       1.813  10.536   1.511  0.00  0.00    -0.271 OA
ATOM     31  C   UNL     1       3.264   9.048   0.388  0.00  0.00    +0.256 C 
ATOM     32  O   UNL     1       3.496   7.648   0.563  0.00  0.00    -0.478 OA
ATOM     33  C   UNL     1       4.402   9.839   1.035  0.00  0.00    +0.062 C 
ATOM     34  H   UNL     1      -0.025   8.799   1.526  0.00  0.00    +0.155 HD
ENDBRANCH  18  21
ENDBRANCH   4  18
TORSDOF 5
