REMARK  Name = ZINC06443180
REMARK  9 active torsions:
REMARK  status: ('A' for Active; 'I' for Inactive)
REMARK    1  A    between atoms: C_1  and  C_2
REMARK    2  A    between atoms: C_6  and  N_8
REMARK    3  A    between atoms: C_9  and  C_11
REMARK    4  A    between atoms: C_12  and  C_34
REMARK    5  A    between atoms: C_16  and  C_18
REMARK    6  A    between atoms: C_21  and  N_24
REMARK    7  A    between atoms: N_24  and  C_25
REMARK    8  A    between atoms: N_24  and  C_26
REMARK    9  A    between atoms: C_30  and  C_33
REMARK                            x       y       z     vdW  Elec       q    Type
REMARK                         _______ _______ _______ _____ _____    ______ ____
ROOT
ATOM      1  C   UNL     1       0.156  -4.170   0.195  0.00  0.00    +0.043 C 
ATOM      2  C   UNL     1      -0.994  -4.865   0.193  0.00  0.00    +0.014 C 
ATOM      3  N   UNL     1      -0.979  -6.230   0.272  0.00  0.00    -0.321 N 
ATOM      4  C   UNL     1       0.153  -6.935  -0.037  0.00  0.00    +0.016 C 
ATOM      5  C   UNL     1       1.357  -6.325  -0.052  0.00  0.00    +0.024 C 
ATOM      6  C   UNL     1       1.484  -4.862   0.285  0.00  0.00    +0.090 C 
ATOM      7  C   UNL     1       2.525  -7.034  -0.383  0.00  0.00    +0.162 C 
ATOM      8  O   UNL     1       3.594  -6.456  -0.379  0.00  0.00    -0.292 OA
ATOM      9  C   UNL     1       2.476  -8.494  -0.742  0.00  0.00    +0.083 C 
ATOM     10  C   UNL     1       1.108  -8.811  -1.354  0.00  0.00    -0.001 C 
ATOM     11  C   UNL     1       0.022  -8.404  -0.356  0.00  0.00    +0.055 C 
ATOM     12  C   UNL     1       1.009 -10.310  -1.644  0.00  0.00    +0.008 C 
ATOM     13  C   UNL     1      -2.309  -4.135   0.102  0.00  0.00    +0.061 C 
ATOM     14  H   UNL     1      -1.883  -6.773   0.587  0.00  0.00    +0.152 HD
ENDROOT
BRANCH   6  15
ATOM     15  C   UNL     1       2.018  -4.727   1.687  0.00  0.00    -0.035 A 
ATOM     16  C   UNL     1       1.295  -5.231   2.753  0.00  0.00    +0.006 A 
ATOM     17  C   UNL     1       1.785  -5.114   4.039  0.00  0.00    +0.023 A 
ATOM     18  C   UNL     1       3.000  -4.479   4.262  0.00  0.00    +0.029 A 
ATOM     19  C   UNL     1       3.721  -3.969   3.190  0.00  0.00    +0.023 A 
ATOM     20  C   UNL     1       3.229  -4.095   1.906  0.00  0.00    +0.006 A 
BRANCH  18  21
ATOM     21  N   UNL     1       3.495  -4.353   5.562  0.00  0.00    -0.336 N 
ATOM     22  C   UNL     1       4.777  -3.683   5.796  0.00  0.00    +0.129 C 
ATOM     23  C   UNL     1       2.733  -4.891   6.692  0.00  0.00    +0.129 C 
ENDBRANCH  18  21
ENDBRANCH   6  15
BRANCH   1  25
ATOM     24  N   UNL     1       1.258  -2.055  -0.012  0.00  0.00    -0.267 N 
ATOM     25  C   UNL     1       0.113  -2.757   0.105  0.00  0.00    +0.248 C 
ATOM     26  O   UNL     1      -0.957  -2.177   0.134  0.00  0.00    -0.270 OA
ATOM     27  H   UNL     1       2.217  -2.582  -0.124  0.00  0.00    +0.157 HD
BRANCH  24  33
ATOM     28  C   UNL     1      -1.364   1.951   0.098  0.00  0.00    +0.065 C 
ATOM     29  C   UNL     1      -0.014   1.283   0.061  0.00  0.00    +0.040 A 
ATOM     30  C   UNL     1       1.129   2.058   0.048  0.00  0.00    +0.023 A 
ATOM     31  C   UNL     1       2.371   1.437   0.015  0.00  0.00    +0.005 A 
ATOM     32  C   UNL     1       2.417   0.054  -0.006  0.00  0.00    +0.044 A 
ATOM     33  C   UNL     1       1.226  -0.663   0.008  0.00  0.00    +0.125 A 
ATOM     34  N   UNL     1       0.061  -0.034   0.041  0.00  0.00    -0.237 NA
ENDBRANCH  24  33
ENDBRANCH   1  25
TORSDOF 4
