REMARK  Name = ZINC33657485
REMARK  10 active torsions:
REMARK  status: ('A' for Active; 'I' for Inactive)
REMARK    1  A    between atoms: C_4  and  C_7
REMARK    2  A    between atoms: C_8  and  C_9
REMARK    3  A    between atoms: C_12  and  C_15
REMARK    4  A    between atoms: N_23  and  C_26
REMARK    5  A    between atoms: C_26  and  C_27
REMARK    6  A    between atoms: C_27  and  O_28
REMARK    7  A    between atoms: O_28  and  C_29
REMARK    8  A    between atoms: C_35  and  C_37
REMARK    9  A    between atoms: C_35  and  C_39
REMARK   10  A    between atoms: C_37  and  O_38
REMARK                            x       y       z     vdW  Elec       q    Type
REMARK                         _______ _______ _______ _____ _____    ______ ____
ROOT
ATOM      1  C   UNL     1       8.741  -4.817  -0.109  0.00  0.00    -0.027 C 
ATOM      2  C   UNL     1       9.075  -5.359   1.278  0.00  0.00    +0.077 C 
ATOM      3  C   UNL     1      10.154  -6.412   0.822  0.00  0.00    +0.088 C 
ATOM      4  C   UNL     1      10.839  -6.694   2.060  0.00  0.00    +0.225 C 
ATOM      5  O   UNL     1      11.329  -7.746   2.410  0.00  0.00    -0.275 OA
ATOM      6  N   UNL     1      10.816  -5.510   2.755  0.00  0.00    -0.238 N 
ATOM      7  C   UNL     1       9.942  -4.586   2.220  0.00  0.00    +0.224 C 
ATOM      8  O   UNL     1       9.887  -3.398   2.455  0.00  0.00    -0.275 OA
ATOM      9  C   UNL     1       9.498  -7.116  -0.288  0.00  0.00    +0.071 C 
ATOM     10  N   UNL     1       8.648  -6.055  -0.949  0.00  0.00    +0.397 N 
ATOM     11  H   UNL     1       7.691  -6.371  -0.988  0.00  0.00    -0.083 HD
ATOM     12  H   UNL     1       8.985  -5.864  -1.880  0.00  0.00    -0.083 HD
ENDROOT
BRANCH   1  16
ATOM     13  C   UNL     1       5.003  -2.740  -0.061  0.00  0.00    -0.025 A 
ATOM     14  C   UNL     1       6.203  -2.024  -0.064  0.00  0.00    +0.008 A 
ATOM     15  C   UNL     1       7.405  -2.701  -0.079  0.00  0.00    +0.002 A 
ATOM     16  C   UNL     1       7.424  -4.085  -0.092  0.00  0.00    -0.061 A 
ATOM     17  C   UNL     1       6.239  -4.800  -0.090  0.00  0.00    +0.002 A 
ATOM     18  C   UNL     1       5.030  -4.137  -0.069  0.00  0.00    +0.008 A 
BRANCH  13  20
ATOM     19  C   UNL     1       3.693  -0.681  -0.037  0.00  0.00    +0.008 C 
ATOM     20  C   UNL     1       3.715  -2.024  -0.045  0.00  0.00    +0.008 C 
BRANCH  19  24
ATOM     21  C   UNL     1      -0.017   1.380   0.010  0.00  0.00    +0.000 A 
ATOM     22  C   UNL     1       1.168   2.095   0.002  0.00  0.00    +0.001 A 
ATOM     23  C   UNL     1       2.377   1.431  -0.013  0.00  0.00    +0.008 A 
ATOM     24  C   UNL     1       2.404   0.034  -0.021  0.00  0.00    -0.025 A 
ATOM     25  C   UNL     1       1.204  -0.681  -0.013  0.00  0.00    +0.008 A 
ATOM     26  C   UNL     1       0.002  -0.004   0.002  0.00  0.00    +0.001 A 
ENDBRANCH  19  24
ENDBRANCH  13  20
ENDBRANCH   1  16
BRANCH   9  27
ATOM     27  C   UNL     1       8.655  -8.250   0.235  0.00  0.00    +0.348 C 
ATOM     28  O   UNL     1       7.455  -8.268   0.019  0.00  0.00    -0.248 OA
ATOM     29  O   UNL     1       9.173  -9.151   0.873  0.00  0.00    -0.248 OA
ENDBRANCH   9  27
BRANCH   6  30
ATOM     30  C   UNL     1      11.624  -5.256   3.950  0.00  0.00    +0.157 C 
BRANCH  30  31
ATOM     31  C   UNL     1      12.972  -4.660   3.537  0.00  0.00    +0.248 C 
BRANCH  31  32
ATOM     32  O   UNL     1      12.762  -3.377   2.942  0.00  0.00    -0.490 OA
BRANCH  32  33
ATOM     33  C   UNL     1      13.866  -2.707   2.517  0.00  0.00    +0.121 A 
ATOM     34  C   UNL     1      15.123  -3.275   2.664  0.00  0.00    +0.045 A 
ATOM     35  C   UNL     1      16.243  -2.592   2.230  0.00  0.00    +0.004 A 
ATOM     36  C   UNL     1      16.112  -1.344   1.651  0.00  0.00    +0.000 A 
ATOM     37  C   UNL     1      14.860  -0.776   1.503  0.00  0.00    +0.004 A 
ATOM     38  C   UNL     1      13.736  -1.457   1.929  0.00  0.00    +0.045 A 
ENDBRANCH  32  33
ENDBRANCH  31  32
ENDBRANCH  30  31
ENDBRANCH   6  30
BRANCH   9  39
ATOM     39  C   UNL     1      10.540  -7.636  -1.280  0.00  0.00    +0.155 C 
BRANCH  39  40
ATOM     40  O   UNL     1       9.878  -8.214  -2.407  0.00  0.00    -0.396 OA
ATOM     41  H   UNL     1      10.479  -8.566  -3.078  0.00  0.00    +0.209 HD
ENDBRANCH  39  40
ENDBRANCH   9  39
TORSDOF 10
