REMARK  Name = ZINC09092238
REMARK  8 active torsions:
REMARK  status: ('A' for Active; 'I' for Inactive)
REMARK    1  A    between atoms: C_1  and  C_2
REMARK    2  A    between atoms: C_2  and  C_4
REMARK    3  A    between atoms: C_2  and  S_17
REMARK    4  A    between atoms: N_6  and  C_7
REMARK    5  A    between atoms: C_9  and  N_14
REMARK    6  A    between atoms: S_17  and  C_18
REMARK    7  A    between atoms: C_21  and  C_24
REMARK    8  A    between atoms: N_22  and  N_23
REMARK                            x       y       z     vdW  Elec       q    Type
REMARK                         _______ _______ _______ _____ _____    ______ ____
ROOT
ATOM      1  C   UNL     1      -2.869   0.403  -1.236  0.00  0.00    +0.029 C 
ATOM      2  C   UNL     1      -2.477   0.961   0.134  0.00  0.00    +0.137 C 
ENDROOT
BRANCH   2   3
ATOM      3  C   UNL     1      -1.155   1.676   0.025  0.00  0.00    +0.230 C 
ATOM      4  O   UNL     1      -1.125   2.886  -0.058  0.00  0.00    -0.274 OA
ATOM      5  N   UNL     1      -0.006   0.972   0.021  0.00  0.00    -0.283 N 
ATOM      6  H   UNL     1      -0.032   0.002   0.004  0.00  0.00    +0.155 HD
BRANCH   5   7
ATOM      7  C   UNL     1       1.224   1.639   0.036  0.00  0.00    +0.054 A 
ATOM      8  C   UNL     1       1.313   2.923   0.557  0.00  0.00    +0.057 A 
ATOM      9  C   UNL     1       2.528   3.579   0.570  0.00  0.00    +0.128 A 
ATOM     10  C   UNL     1       3.656   2.959   0.065  0.00  0.00    +0.034 A 
ATOM     11  C   UNL     1       3.572   1.681  -0.456  0.00  0.00    +0.024 A 
ATOM     12  C   UNL     1       2.360   1.016  -0.466  0.00  0.00    +0.062 A 
ATOM     13 CL   UNL     1       2.256  -0.591  -1.113  0.00  0.00    -0.082 Cl
BRANCH   9  14
ATOM     14  N   UNL     1       2.623   4.947   1.127  0.00  0.00    +0.056 N 
ATOM     15  O   UNL     1       1.630   5.494   1.572  0.00  0.00    -0.126 OA
ATOM     16  O   UNL     1       3.695   5.527   1.139  0.00  0.00    -0.126 OA
ENDBRANCH   9  14
ENDBRANCH   5   7
ENDBRANCH   2   3
BRANCH   2  17
ATOM     17  S   UNL     1      -3.747   2.121   0.698  0.00  0.00    -0.072 S 
BRANCH  17  18
ATOM     18  C   UNL     1      -5.110   1.019   0.879  0.00  0.00    +0.209 A 
ATOM     19  N   UNL     1      -5.104  -0.274   0.643  0.00  0.00    -0.121 NA
ATOM     20  N   UNL     1      -6.265  -0.771   0.877  0.00  0.00    -0.127 NA
ATOM     21  C   UNL     1      -7.084   0.174   1.277  0.00  0.00    +0.183 A 
ATOM     22  N   UNL     1      -6.368   1.348   1.295  0.00  0.00    -0.224 N 
BRANCH  21  23
ATOM     23  C   UNL     1      -8.506   0.006   1.645  0.00  0.00    +0.035 A 
ATOM     24  C   UNL     1      -9.476   0.849   1.098  0.00  0.00    +0.013 A 
ATOM     25  C   UNL     1     -10.801   0.687   1.444  0.00  0.00    +0.001 A 
ATOM     26  C   UNL     1     -11.171  -0.308   2.333  0.00  0.00    +0.001 A 
ATOM     27  C   UNL     1     -10.216  -1.146   2.879  0.00  0.00    +0.016 A 
ATOM     28  C   UNL     1      -8.887  -0.999   2.536  0.00  0.00    +0.029 A 
ATOM     29 BR   UNL     1      -7.583  -2.151   3.278  0.00  0.00    -0.050 Br
ENDBRANCH  21  23
BRANCH  22  30
ATOM     30  N   UNL     1      -6.821   2.586   1.653  0.00  0.00    -0.295 N 
ATOM     31  H   UNL     1      -7.119   3.110   0.844  0.00  0.00    +0.163 HD
ATOM     32  H   UNL     1      -7.564   2.517   2.332  0.00  0.00    +0.163 HD
ENDBRANCH  22  30
ENDBRANCH  17  18
ENDBRANCH   2  17
TORSDOF 7
