REMARK  Name = ZINC08771238
REMARK  7 active torsions:
REMARK  status: ('A' for Active; 'I' for Inactive)
REMARK    1  A    between atoms: C_1  and  N_57
REMARK    2  A    between atoms: C_3  and  C_27
REMARK    3  A    between atoms: C_5  and  C_19
REMARK    4  A    between atoms: C_10  and  O_17
REMARK    5  A    between atoms: O_17  and  C_18
REMARK    6  A    between atoms: C_19  and  C_21
REMARK    7  A    between atoms: C_31  and  N_33
REMARK                            x       y       z     vdW  Elec       q    Type
REMARK                         _______ _______ _______ _____ _____    ______ ____
ROOT
ATOM      1  C   UNL     1       0.155   2.169   3.499  0.00  0.00    -0.094 C 
ATOM      2  C   UNL     1       1.622   1.966   1.565  0.00  0.00    -0.068 C 
ATOM      3  C   UNL     1       1.399   1.719   0.051  0.00  0.00    +0.013 C 
ATOM      4  C   UNL     1      -0.013   1.086   0.008  0.00  0.00    +0.068 C 
ATOM      5  C   UNL     1      -0.680   1.525   1.317  0.00  0.00    +0.051 C 
ATOM      6  C   UNL     1      -1.093   0.334   2.139  0.00  0.00    -0.024 A 
ATOM      7  C   UNL     1      -0.397  -0.713   2.699  0.00  0.00    +0.050 A 
ATOM      8  C   UNL     1      -1.072  -1.687   3.422  0.00  0.00    +0.120 A 
ATOM      9  C   UNL     1      -2.448  -1.599   3.576  0.00  0.00    +0.047 A 
ATOM     10  C   UNL     1      -3.145  -0.550   3.015  0.00  0.00    +0.027 A 
ATOM     11  C   UNL     1      -2.473   0.431   2.288  0.00  0.00    +0.036 A 
ATOM     12  N   UNL     1      -2.950   1.572   1.636  0.00  0.00    -0.286 N 
ATOM     13  C   UNL     1      -1.963   2.268   1.043  0.00  0.00    +0.212 C 
ATOM     14  O   UNL     1      -2.082   3.296   0.411  0.00  0.00    -0.277 OA
ATOM     15  H   UNL     1      -3.885   1.831   1.614  0.00  0.00    +0.155 HD
ATOM     16  N   UNL     1       0.284   2.362   2.022  0.00  0.00    +0.391 N 
ATOM     17  H   UNL     1       0.118   3.350   1.796  0.00  0.00    -0.080 HD
ENDROOT
BRANCH   3  18
ATOM     18  C   UNL     1       2.429   0.764  -0.495  0.00  0.00    -0.043 A 
ATOM     19  C   UNL     1       2.621  -0.465   0.110  0.00  0.00    +0.004 A 
ATOM     20  C   UNL     1       3.562  -1.343  -0.394  0.00  0.00    +0.002 A 
ATOM     21  C   UNL     1       4.318  -0.989  -1.496  0.00  0.00    +0.033 A 
ATOM     22  C   UNL     1       4.130   0.241  -2.096  0.00  0.00    +0.126 A 
ATOM     23  C   UNL     1       3.185   1.118  -1.596  0.00  0.00    +0.036 A 
BRANCH  22  24
ATOM     24  N   UNL     1       4.940   0.621  -3.276  0.00  0.00    +0.056 N 
ATOM     25  O   UNL     1       4.774   1.705  -3.805  0.00  0.00    -0.126 OA
ATOM     26  O   UNL     1       5.773  -0.151  -3.716  0.00  0.00    -0.126 OA
ENDBRANCH  22  24
ENDBRANCH   3  18
BRANCH   8  27
ATOM     27  O   UNL     1      -0.387  -2.722   3.978  0.00  0.00    -0.495 OA
ATOM     28  C   UNL     1      -1.149  -3.685   4.708  0.00  0.00    +0.277 C 
ENDBRANCH   8  27
BRANCH   4  29
ATOM     29  C   UNL     1      -0.785   1.605  -1.177  0.00  0.00    +0.166 C 
ATOM     30  O   UNL     1      -0.521   2.693  -1.643  0.00  0.00    -0.292 OA
BRANCH  29  31
ATOM     31  C   UNL     1      -1.859   0.792  -1.770  0.00  0.00    +0.018 A 
ATOM     32  C   UNL     1      -2.162  -0.466  -1.239  0.00  0.00    +0.011 A 
ATOM     33  C   UNL     1      -3.174  -1.219  -1.796  0.00  0.00    +0.001 A 
ATOM     34  C   UNL     1      -3.880  -0.739  -2.885  0.00  0.00    +0.000 A 
ATOM     35  C   UNL     1      -3.582   0.503  -3.419  0.00  0.00    +0.001 A 
ATOM     36  C   UNL     1      -2.577   1.271  -2.870  0.00  0.00    +0.011 A 
ENDBRANCH  29  31
ENDBRANCH   4  29
TORSDOF 5
