REMARK  Name = ZINC47244233
REMARK  3 active torsions:
REMARK  status: ('A' for Active; 'I' for Inactive)
REMARK    1  A    between atoms: C_3  and  N_21
REMARK    2  A    between atoms: C_6  and  N_7
REMARK    3  A    between atoms: C_8  and  C_10
REMARK                            x       y       z     vdW  Elec       q    Type
REMARK                         _______ _______ _______ _____ _____    ______ ____
ROOT
ATOM      1  N   UNL     1      -1.201  -0.720   0.010  0.00  0.00    -0.285 N 
ATOM      2  C   UNL     1      -1.186  -2.064  -0.099  0.00  0.00    +0.223 C 
ATOM      3  O   UNL     1      -0.129  -2.659  -0.113  0.00  0.00    -0.275 OA
ATOM      4  H   UNL     1      -2.045  -0.249   0.089  0.00  0.00    +0.155 HD
ENDROOT
BRANCH   2   5
ATOM      5  C   UNL     1      -2.482  -2.825  -0.204  0.00  0.00    +0.048 C 
ATOM      6  C   UNL     1      -3.247  -2.362  -1.445  0.00  0.00    +0.019 C 
ATOM      7  C   UNL     1      -4.563  -3.136  -1.551  0.00  0.00    -0.009 C 
ATOM      8  C   UNL     1      -4.267  -4.633  -1.664  0.00  0.00    +0.007 C 
ATOM      9  C   UNL     1      -3.502  -5.096  -0.422  0.00  0.00    -0.009 C 
ATOM     10  C   UNL     1      -2.186  -4.322  -0.316  0.00  0.00    +0.019 C 
ATOM     11  C   UNL     1      -4.348  -4.836   0.825  0.00  0.00    +0.007 C 
ATOM     12  C   UNL     1      -4.644  -3.339   0.938  0.00  0.00    -0.009 C 
ATOM     13  C   UNL     1      -5.409  -2.876  -0.304  0.00  0.00    +0.007 C 
ATOM     14  C   UNL     1      -3.329  -2.565   1.044  0.00  0.00    +0.019 C 
ENDBRANCH   2   5
BRANCH   1  20
ATOM     15  C   UNL     1       0.065   1.248  -0.586  0.00  0.00    +0.025 A 
ATOM     16  C   UNL     1       1.251   1.955  -0.587  0.00  0.00    +0.032 A 
ATOM     17  C   UNL     1       2.382   1.414   0.009  0.00  0.00    +0.102 A 
ATOM     18  C   UNL     1       2.321   0.160   0.607  0.00  0.00    +0.150 A 
ATOM     19  C   UNL     1       1.133  -0.547   0.607  0.00  0.00    +0.063 A 
ATOM     20  C   UNL     1       0.003  -0.005   0.010  0.00  0.00    +0.036 A 
ATOM     21  F   UNL     1       3.421  -0.367   1.187  0.00  0.00    -0.203 F 
BRANCH  17  22
ATOM     22  N   UNL     1       3.587   2.133   0.009  0.00  0.00    -0.218 N 
ATOM     23  C   UNL     1       4.762   1.740   0.538  0.00  0.00    +0.225 A 
ATOM     24  N   UNL     1       5.638   2.690   0.330  0.00  0.00    -0.222 NA
ATOM     25  C   UNL     1       5.065   3.698  -0.326  0.00  0.00    +0.245 A 
ATOM     26  N   UNL     1       3.811   3.402  -0.550  0.00  0.00    -0.153 NA
ENDBRANCH  17  22
ENDBRANCH   1  20
TORSDOF 3
