REMARK  Name = ZINC64874274
REMARK  4 active torsions:
REMARK  status: ('A' for Active; 'I' for Inactive)
REMARK    1  A    between atoms: C_1  and  C_2
REMARK    2  A    between atoms: C_2  and  C_8
REMARK    3  A    between atoms: C_4  and  C_6
REMARK    4  A    between atoms: C_6  and  O_7
REMARK                            x       y       z     vdW  Elec       q    Type
REMARK                         _______ _______ _______ _____ _____    ______ ____
ROOT
ATOM      1  C   UNL     1      -0.019   1.526   0.010  0.00  0.00    +0.012 C 
ATOM      2  C   UNL     1       0.002  -0.004   0.002  0.00  0.00    -0.024 C 
ATOM      3  C   UNL     1      -1.204  -0.730   0.600  0.00  0.00    +0.013 C 
ATOM      4  C   UNL     1       0.129  -0.716   1.350  0.00  0.00    +0.021 C 
ENDROOT
BRANCH   2   5
ATOM      5  C   UNL     1       0.688  -0.648  -1.205  0.00  0.00    -0.005 C 
ATOM      6  C   UNL     1       1.893   0.080  -1.804  0.00  0.00    +0.004 C 
ATOM      7  C   UNL     1       0.559   0.063  -2.553  0.00  0.00    +0.004 C 
ENDBRANCH   2   5
BRANCH   4   8
ATOM      8  C   UNL     1       0.226   0.156   2.604  0.00  0.00    +0.160 C 
BRANCH   8   9
ATOM      9  O   UNL     1       0.454  -0.674   3.744  0.00  0.00    -0.395 OA
ATOM     10  H   UNL     1       0.526  -0.186   4.577  0.00  0.00    +0.209 HD
ENDBRANCH   8   9
ENDBRANCH   4   8
TORSDOF 3
