REMARK  Name = ZINC59250377
REMARK  6 active torsions:
REMARK  status: ('A' for Active; 'I' for Inactive)
REMARK    1  A    between atoms: C_4  and  C_7
REMARK    2  A    between atoms: C_10  and  C_15
REMARK    3  A    between atoms: N_17  and  C_18
REMARK    4  A    between atoms: C_18  and  C_19
REMARK    5  A    between atoms: C_19  and  C_21
REMARK    6  A    between atoms: C_19  and  C_27
REMARK                            x       y       z     vdW  Elec       q    Type
REMARK                         _______ _______ _______ _____ _____    ______ ____
ROOT
ATOM      1  C   UNL     1       7.373  -2.764  -0.088  0.00  0.00    +0.249 C 
ATOM      2  O   UNL     1       8.425  -2.159  -0.185  0.00  0.00    -0.270 OA
ATOM      3  N   UNL     1       7.376  -4.109   0.001  0.00  0.00    -0.310 N 
ATOM      4  H   UNL     1       6.537  -4.596   0.004  0.00  0.00    +0.149 HD
ENDROOT
BRANCH   1   8
ATOM      5  C   UNL     1       3.695  -0.682  -0.032  0.00  0.00    +0.049 A 
ATOM      6  C   UNL     1       4.876   0.036  -0.018  0.00  0.00    +0.027 A 
ATOM      7  C   UNL     1       6.093  -0.632  -0.036  0.00  0.00    +0.020 A 
ATOM      8  C   UNL     1       6.101  -2.028  -0.068  0.00  0.00    +0.101 A 
ATOM      9  C   UNL     1       4.868  -2.727  -0.081  0.00  0.00    +0.261 A 
ATOM     10  O   UNL     1       4.859  -3.946  -0.109  0.00  0.00    -0.267 OA
ATOM     11  N   UNL     1       3.707  -2.047  -0.058  0.00  0.00    -0.321 N 
ATOM     12  H   UNL     1       2.868  -2.533  -0.063  0.00  0.00    +0.169 HD
BRANCH   5  16
ATOM     13  C   UNL     1      -0.016   1.381   0.021  0.00  0.00    +0.000 A 
ATOM     14  C   UNL     1       1.169   2.095   0.031  0.00  0.00    +0.001 A 
ATOM     15  C   UNL     1       2.378   1.431   0.014  0.00  0.00    +0.010 A 
ATOM     16  C   UNL     1       2.405   0.035  -0.013  0.00  0.00    -0.002 A 
ATOM     17  C   UNL     1       1.204  -0.680  -0.022  0.00  0.00    +0.010 A 
ATOM     18  C   UNL     1       0.002  -0.003  -0.005  0.00  0.00    +0.001 A 
ENDBRANCH   5  16
ENDBRANCH   1   8
BRANCH   3  19
ATOM     19  C   UNL     1       8.645  -4.835   0.094  0.00  0.00    +0.117 C 
BRANCH  19  20
ATOM     20  C   UNL     1       8.368  -6.337   0.184  0.00  0.00    +0.068 C 
BRANCH  20  21
ATOM     21  C   UNL     1       9.664  -7.074   0.402  0.00  0.00    -0.013 A 
ATOM     22  C   UNL     1      10.733  -7.068  -0.409  0.00  0.00    +0.088 A 
ATOM     23  N   UNL     1      11.722  -7.853   0.117  0.00  0.00    -0.360 N 
ATOM     24  H   UNL     1      12.590  -8.004  -0.291  0.00  0.00    +0.165 HD
ATOM     25  C   UNL     1      11.303  -8.398   1.310  0.00  0.00    +0.047 A 
ATOM     26  C   UNL     1       9.998  -7.929   1.544  0.00  0.00    +0.003 A 
ATOM     27  C   UNL     1       9.315  -8.318   2.698  0.00  0.00    +0.010 A 
ATOM     28  C   UNL     1       9.920  -9.151   3.596  0.00  0.00    +0.001 A 
ATOM     29  C   UNL     1      11.209  -9.613   3.372  0.00  0.00    +0.002 A 
ATOM     30  C   UNL     1      11.898  -9.249   2.235  0.00  0.00    +0.026 A 
ENDBRANCH  20  21
BRANCH  20  31
ATOM     31  C   UNL     1       7.732  -6.808  -1.099  0.00  0.00    -0.038 A 
ATOM     32  C   UNL     1       8.408  -6.668  -2.297  0.00  0.00    +0.004 A 
ATOM     33  C   UNL     1       7.824  -7.100  -3.474  0.00  0.00    +0.000 A 
ATOM     34  C   UNL     1       6.566  -7.672  -3.452  0.00  0.00    +0.000 A 
ATOM     35  C   UNL     1       5.891  -7.812  -2.254  0.00  0.00    +0.000 A 
ATOM     36  C   UNL     1       6.476  -7.384  -1.077  0.00  0.00    +0.004 A 
ENDBRANCH  20  31
ENDBRANCH  19  20
ENDBRANCH   3  19
TORSDOF 6
