REMARK  Name = ZINC62957650
REMARK  17 active torsions:
REMARK  status: ('A' for Active; 'I' for Inactive)
REMARK    1  A    between atoms: C_1  and  C_2
REMARK    2  A    between atoms: C_2  and  N_3
REMARK    3  A    between atoms: N_3  and  C_4
REMARK    4  A    between atoms: N_3  and  C_6
REMARK    5  A    between atoms: C_4  and  C_5
REMARK    6  A    between atoms: C_9  and  C_12
REMARK    7  A    between atoms: C_19  and  O_33
REMARK    8  A    between atoms: C_20  and  C_23
REMARK    9  A    between atoms: C_23  and  N_24
REMARK   10  A    between atoms: N_24  and  C_25
REMARK   11  A    between atoms: N_24  and  C_29
REMARK   12  A    between atoms: C_25  and  C_26
REMARK   13  A    between atoms: C_26  and  C_27
REMARK   14  A    between atoms: C_26  and  C_28
REMARK   15  A    between atoms: C_29  and  C_30
REMARK   16  A    between atoms: C_30  and  C_31
REMARK   17  A    between atoms: C_30  and  C_32
REMARK                            x       y       z     vdW  Elec       q    Type
REMARK                         _______ _______ _______ _____ _____    ______ ____
ROOT
ATOM      1  C   UNL     1       0.353  -8.957  -0.028  0.00  0.00    +0.058 C 
ATOM      2  C   UNL     1      -0.274  -8.821  -1.222  0.00  0.00    +0.176 C 
ATOM      3  C   UNL     1      -0.382  -7.583  -2.013  0.00  0.00    +0.231 C 
ATOM      4  O   UNL     1       0.065  -6.483  -1.740  0.00  0.00    -0.283 OA
ATOM      5  C   UNL     1      -1.150  -7.975  -3.208  0.00  0.00    +0.068 A 
ATOM      6  C   UNL     1      -1.587  -7.274  -4.333  0.00  0.00    +0.019 A 
ATOM      7  C   UNL     1      -2.299  -7.920  -5.304  0.00  0.00    +0.046 A 
ATOM      8  C   UNL     1      -2.590  -9.276  -5.172  0.00  0.00    +0.122 A 
ATOM      9  C   UNL     1      -2.162  -9.984  -4.061  0.00  0.00    +0.020 A 
ATOM     10  C   UNL     1      -1.437  -9.342  -3.065  0.00  0.00    +0.144 A 
ATOM     11  O   UNL     1      -0.911  -9.799  -1.907  0.00  0.00    -0.451 OA
ENDROOT
BRANCH   1  15
ATOM     12  C   UNL     1       1.770  -5.527   2.025  0.00  0.00    +0.013 A 
ATOM     13  C   UNL     1       2.535  -6.681   2.002  0.00  0.00    +0.022 A 
ATOM     14  C   UNL     1       2.081  -7.800   1.337  0.00  0.00    +0.010 A 
ATOM     15  C   UNL     1       0.844  -7.768   0.684  0.00  0.00    -0.021 A 
ATOM     16  C   UNL     1       0.077  -6.598   0.712  0.00  0.00    +0.010 A 
ATOM     17  C   UNL     1       0.543  -5.489   1.386  0.00  0.00    +0.022 A 
BRANCH  12  18
ATOM     18  N   UNL     1       2.237  -4.397   2.701  0.00  0.00    -0.394 NA
ATOM     19  H   UNL     1       1.560  -3.653   2.622  0.00  0.00    +0.126 HD
BRANCH  18  21
ATOM     20  C   UNL     1       1.093  -5.043   4.768  0.00  0.00    +0.022 C 
ATOM     21  C   UNL     1       2.441  -4.724   4.119  0.00  0.00    +0.081 C 
ENDBRANCH  18  21
BRANCH  18  22
ATOM     22  C   UNL     1       3.511  -3.964   2.110  0.00  0.00    +0.081 C 
ATOM     23  C   UNL     1       3.278  -3.519   0.665  0.00  0.00    +0.022 C 
ENDBRANCH  18  22
ENDBRANCH  12  18
ENDBRANCH   1  15
BRANCH   8  24
ATOM     24  O   UNL     1      -3.298  -9.909  -6.141  0.00  0.00    -0.506 OA
ATOM     25  H   UNL     1      -2.752 -10.294  -6.840  0.00  0.00    +0.292 HD
ENDBRANCH   8  24
BRANCH   9  26
ATOM     26  C   UNL     1      -2.484 -11.450  -3.932  0.00  0.00    -0.036 C 
BRANCH  26  27
ATOM     27  N   UNL     1      -1.410 -12.243  -4.545  0.00  0.00    +0.383 N 
ATOM     28  H   UNL     1      -1.279 -11.949  -5.501  0.00  0.00    -0.081 HD
BRANCH  27  29
ATOM     29  C   UNL     1      -0.164 -12.042  -3.794  0.00  0.00    -0.075 C 
BRANCH  29  30
ATOM     30  C   UNL     1       0.985 -12.753  -4.513  0.00  0.00    -0.034 C 
ATOM     31  C   UNL     1       1.191 -12.122  -5.892  0.00  0.00    +0.005 C 
ATOM     32  C   UNL     1       2.267 -12.612  -3.690  0.00  0.00    +0.005 C 
ENDBRANCH  29  30
ENDBRANCH  27  29
BRANCH  27  33
ATOM     33  C   UNL     1      -1.775 -13.666  -4.517  0.00  0.00    -0.075 C 
BRANCH  33  34
ATOM     34  C   UNL     1      -2.633 -13.997  -5.740  0.00  0.00    -0.034 C 
ATOM     35  C   UNL     1      -2.872 -15.507  -5.801  0.00  0.00    +0.005 C 
ATOM     36  C   UNL     1      -3.976 -13.272  -5.632  0.00  0.00    +0.005 C 
ENDBRANCH  33  34
ENDBRANCH  27  33
ENDBRANCH  26  27
ENDBRANCH   9  26
TORSDOF 11
