REMARK  Name = ZINC36876112
REMARK  9 active torsions:
REMARK  status: ('A' for Active; 'I' for Inactive)
REMARK    1  A    between atoms: C_1  and  C_2
REMARK    2  A    between atoms: C_2  and  C_3
REMARK    3  A    between atoms: C_3  and  C_23
REMARK    4  A    between atoms: N_6  and  C_10
REMARK    5  A    between atoms: C_10  and  C_11
REMARK    6  A    between atoms: N_13  and  C_14
REMARK    7  A    between atoms: C_15  and  C_22
REMARK    8  A    between atoms: C_17  and  C_21
REMARK    9  A    between atoms: C_19  and  C_20
REMARK                            x       y       z     vdW  Elec       q    Type
REMARK                         _______ _______ _______ _____ _____    ______ ____
ROOT
ATOM      1  C   UNL     1      -0.279   1.136  -3.954  0.00  0.00    +0.138 C 
ATOM      2  C   UNL     1       1.054   0.876  -3.280  0.00  0.00    +0.251 C 
ATOM      3  O   UNL     1       1.304   0.021  -2.458  0.00  0.00    -0.272 OA
ATOM      4  N   UNL     1       1.903   1.791  -3.786  0.00  0.00    -0.215 N 
ATOM      5  C   UNL     1       1.299   2.586  -4.677  0.00  0.00    +0.310 C 
ATOM      6  O   UNL     1       1.860   3.488  -5.268  0.00  0.00    -0.252 OA
ATOM      7  N   UNL     1       0.001   2.276  -4.845  0.00  0.00    -0.281 N 
ATOM      8  H   UNL     1      -0.628   2.716  -5.438  0.00  0.00    +0.152 HD
ENDROOT
BRANCH   1   9
ATOM      9  C   UNL     1      -0.718  -0.065  -4.751  0.00  0.00    -0.015 A 
ATOM     10  C   UNL     1      -1.544  -1.012  -4.175  0.00  0.00    +0.007 A 
ATOM     11  C   UNL     1      -1.946  -2.114  -4.905  0.00  0.00    +0.020 A 
ATOM     12  C   UNL     1      -1.523  -2.269  -6.213  0.00  0.00    +0.041 A 
ATOM     13  C   UNL     1      -0.697  -1.321  -6.789  0.00  0.00    +0.020 A 
ATOM     14  C   UNL     1      -0.299  -0.216  -6.059  0.00  0.00    +0.007 A 
ATOM     15 CL   UNL     1      -2.028  -3.653  -7.131  0.00  0.00    -0.084 Cl
ENDBRANCH   1   9
BRANCH   1  17
ATOM     16  C   UNL     1      -0.904   2.774  -2.173  0.00  0.00    +0.007 C 
ATOM     17  C   UNL     1      -1.341   1.511  -2.918  0.00  0.00    +0.037 C 
ENDBRANCH   1  17
BRANCH   4  18
ATOM     18  C   UNL     1       3.314   1.903  -3.408  0.00  0.00    +0.214 C 
BRANCH  18  19
ATOM     19  C   UNL     1       4.149   1.041  -4.319  0.00  0.00    +0.235 C 
ATOM     20  O   UNL     1       3.617   0.396  -5.198  0.00  0.00    -0.274 OA
ATOM     21  N   UNL     1       5.486   0.986  -4.157  0.00  0.00    -0.284 N 
ATOM     22  H   UNL     1       5.916   1.542  -3.490  0.00  0.00    +0.155 HD
BRANCH  21  23
ATOM     23  C   UNL     1       6.252   0.125  -4.951  0.00  0.00    +0.039 A 
ATOM     24  C   UNL     1       5.920  -1.221  -5.038  0.00  0.00    -0.029 A 
ATOM     25  C   UNL     1       6.678  -2.067  -5.823  0.00  0.00    +0.008 A 
ATOM     26  C   UNL     1       7.767  -1.576  -6.521  0.00  0.00    -0.050 A 
ATOM     27  C   UNL     1       8.100  -0.237  -6.435  0.00  0.00    +0.008 A 
ATOM     28  C   UNL     1       7.342   0.616  -5.657  0.00  0.00    -0.029 A 
ATOM     29  C   UNL     1       7.701   2.077  -5.570  0.00  0.00    +0.045 C 
ATOM     30  C   UNL     1       8.592  -2.503  -7.376  0.00  0.00    +0.044 C 
ATOM     31  C   UNL     1       4.734  -1.756  -4.278  0.00  0.00    +0.045 C 
ENDBRANCH  21  23
ENDBRANCH  18  19
ENDBRANCH   4  18
TORSDOF 5
