REMARK  Name = ZINC17087549
REMARK  5 active torsions:
REMARK  status: ('A' for Active; 'I' for Inactive)
REMARK    1  A    between atoms: C_6  and  C_7
REMARK    2  A    between atoms: C_7  and  C_8
REMARK    3  A    between atoms: N_10  and  C_11
REMARK    4  A    between atoms: C_11  and  N_13
REMARK    5  A    between atoms: C_19  and  N_23
REMARK                            x       y       z     vdW  Elec       q    Type
REMARK                         _______ _______ _______ _____ _____    ______ ____
ROOT
ATOM      1  C   UNL     1      -3.278  -1.924  -2.914  0.00  0.00    +0.142 C 
ATOM      2  S   UNL     1      -2.335  -1.348  -4.221  0.00  0.00    -0.018 S 
ENDROOT
BRANCH   1   3
ATOM      3  N   UNL     1      -4.419  -2.600  -3.152  0.00  0.00    -0.276 N 
ATOM      4  C   UNL     1      -4.828  -2.829  -4.455  0.00  0.00    +0.165 A 
ATOM      5  N   UNL     1      -4.244  -2.476  -5.576  0.00  0.00    -0.225 NA
ATOM      6  C   UNL     1      -4.762  -2.769  -6.788  0.00  0.00    +0.080 A 
ATOM      7  C   UNL     1      -4.238  -2.449  -8.062  0.00  0.00    +0.031 A 
ATOM      8  C   UNL     1      -4.895  -2.825  -9.204  0.00  0.00    +0.035 A 
ATOM      9  C   UNL     1      -6.090  -3.528  -9.155  0.00  0.00    +0.127 A 
ATOM     10  C   UNL     1      -6.632  -3.857  -7.926  0.00  0.00    +0.050 A 
ATOM     11  C   UNL     1      -5.980  -3.486  -6.777  0.00  0.00    +0.043 A 
ATOM     12  S   UNL     1      -6.283  -3.689  -5.038  0.00  0.00    -0.052 S 
ATOM     13  H   UNL     1      -4.953  -2.927  -2.412  0.00  0.00    +0.156 HD
BRANCH   9  14
ATOM     14  N   UNL     1      -6.779  -3.920 -10.405  0.00  0.00    +0.056 N 
ATOM     15  O   UNL     1      -6.301  -3.628 -11.476  0.00  0.00    -0.126 OA
ATOM     16  O   UNL     1      -7.821  -4.532 -10.355  0.00  0.00    -0.126 OA
ENDBRANCH   9  14
ENDBRANCH   1   3
BRANCH   1  19
ATOM     17  C   UNL     1      -1.738  -1.024  -1.407  0.00  0.00    +0.223 C 
ATOM     18  O   UNL     1      -1.071  -0.616  -2.333  0.00  0.00    -0.275 OA
ATOM     19  N   UNL     1      -2.880  -1.701  -1.646  0.00  0.00    -0.267 N 
ATOM     20  H   UNL     1      -3.414  -2.027  -0.905  0.00  0.00    +0.157 HD
BRANCH  17  21
ATOM     21  C   UNL     1      -1.293  -0.775   0.011  0.00  0.00    +0.131 C 
BRANCH  21  27
ATOM     22  C   UNL     1      -0.017   1.378   0.010  0.00  0.00    +0.005 A 
ATOM     23  C   UNL     1       1.171   2.086   0.002  0.00  0.00    +0.020 A 
ATOM     24  C   UNL     1       2.378   1.410  -0.013  0.00  0.00    +0.041 A 
ATOM     25  C   UNL     1       2.396   0.027  -0.021  0.00  0.00    +0.020 A 
ATOM     26  C   UNL     1       1.208  -0.679  -0.013  0.00  0.00    +0.005 A 
ATOM     27  C   UNL     1       0.002  -0.004   0.002  0.00  0.00    -0.039 A 
ATOM     28 CL   UNL     1       3.870   2.298  -0.023  0.00  0.00    -0.084 Cl
ENDBRANCH  21  27
ENDBRANCH  17  21
ENDBRANCH   1  19
TORSDOF 5
