REMARK  Name = ZINC07884076
REMARK  8 active torsions:
REMARK  status: ('A' for Active; 'I' for Inactive)
REMARK    1  A    between atoms: C_1  and  C_2
REMARK    2  A    between atoms: C_2  and  O_3
REMARK    3  A    between atoms: O_3  and  C_4
REMARK    4  A    between atoms: C_7  and  N_10
REMARK    5  A    between atoms: C_11  and  C_22
REMARK    6  A    between atoms: C_26  and  O_29
REMARK    7  A    between atoms: C_27  and  O_28
REMARK    8  A    between atoms: O_29  and  C_30
REMARK                            x       y       z     vdW  Elec       q    Type
REMARK                         _______ _______ _______ _____ _____    ______ ____
ROOT
ATOM      1  N   UNL     1      -3.599   3.002  -0.525  0.00  0.00    -0.244 N 
ATOM      2  C   UNL     1      -2.521   3.816   0.038  0.00  0.00    +0.201 C 
ATOM      3  N   UNL     1      -2.385   5.068  -0.715  0.00  0.00    -0.321 N 
ATOM      4  C   UNL     1      -2.443   5.030  -2.100  0.00  0.00    +0.041 A 
ATOM      5  C   UNL     1      -1.789   5.965  -2.885  0.00  0.00    +0.024 A 
ATOM      6  C   UNL     1      -1.897   5.899  -4.261  0.00  0.00    +0.002 A 
ATOM      7  C   UNL     1      -2.654   4.905  -4.861  0.00  0.00    +0.001 A 
ATOM      8  C   UNL     1      -3.307   3.962  -4.094  0.00  0.00    +0.015 A 
ATOM      9  C   UNL     1      -3.204   4.015  -2.706  0.00  0.00    +0.058 A 
ATOM     10  C   UNL     1      -3.875   3.026  -1.844  0.00  0.00    +0.254 C 
ATOM     11  O   UNL     1      -4.670   2.238  -2.319  0.00  0.00    -0.270 OA
ATOM     12  H   UNL     1      -2.256   5.911  -0.253  0.00  0.00    +0.148 HD
ENDROOT
BRANCH   1  16
ATOM     13  C   UNL     1      -5.860   0.571   1.997  0.00  0.00    +0.121 A 
ATOM     14  C   UNL     1      -5.793   1.938   2.228  0.00  0.00    +0.047 A 
ATOM     15  C   UNL     1      -5.044   2.743   1.394  0.00  0.00    +0.027 A 
ATOM     16  C   UNL     1      -4.358   2.186   0.322  0.00  0.00    +0.039 A 
ATOM     17  C   UNL     1      -4.431   0.819   0.088  0.00  0.00    +0.027 A 
ATOM     18  C   UNL     1      -5.176   0.014   0.927  0.00  0.00    +0.047 A 
BRANCH  13  19
ATOM     19  O   UNL     1      -6.598  -0.222   2.819  0.00  0.00    -0.492 OA
BRANCH  19  21
ATOM     20  C   UNL     1      -7.497  -2.343   3.548  0.00  0.00    +0.048 C 
ATOM     21  C   UNL     1      -6.623  -1.619   2.522  0.00  0.00    +0.225 C 
ENDBRANCH  19  21
ENDBRANCH  13  19
ENDBRANCH   1  16
BRANCH   2  22
ATOM     22  C   UNL     1      -1.226   3.047  -0.036  0.00  0.00    +0.036 A 
ATOM     23  C   UNL     1      -1.244   1.665  -0.085  0.00  0.00    +0.011 A 
ATOM     24  C   UNL     1      -0.059   0.958  -0.147  0.00  0.00    +0.004 A 
ATOM     25  C   UNL     1       1.150   1.629  -0.171  0.00  0.00    +0.049 A 
ATOM     26  C   UNL     1       1.175   3.013  -0.127  0.00  0.00    +0.162 A 
ATOM     27  C   UNL     1      -0.018   3.726  -0.059  0.00  0.00    +0.165 A 
BRANCH  27  28
ATOM     28  O   UNL     1       0.001   5.085  -0.016  0.00  0.00    -0.503 OA
ATOM     29  H   UNL     1      -0.027   5.506  -0.886  0.00  0.00    +0.292 HD
ENDBRANCH  27  28
BRANCH  26  30
ATOM     30  O   UNL     1       2.363   3.674  -0.149  0.00  0.00    -0.491 OA
ATOM     31  C   UNL     1       3.548   2.878  -0.219  0.00  0.00    +0.277 C 
ENDBRANCH  26  30
ENDBRANCH   2  22
TORSDOF 6
