REMARK  Name = ZINC09230690
REMARK  6 active torsions:
REMARK  status: ('A' for Active; 'I' for Inactive)
REMARK    1  A    between atoms: C_1  and  C_2
REMARK    2  A    between atoms: C_2  and  C_3
REMARK    3  A    between atoms: C_2  and  C_4
REMARK    4  A    between atoms: C_9  and  O_10
REMARK    5  A    between atoms: O_10  and  C_11
REMARK    6  A    between atoms: C_11  and  C_13
REMARK                            x       y       z     vdW  Elec       q    Type
REMARK                         _______ _______ _______ _____ _____    ______ ____
ROOT
ATOM      1  C   UNL     1      -1.259   3.150   0.099  0.00  0.00    -0.001 A 
ATOM      2  C   UNL     1      -0.077   3.866   0.094  0.00  0.00    +0.022 A 
ATOM      3  C   UNL     1       1.134   3.203   0.015  0.00  0.00    +0.018 A 
ATOM      4  C   UNL     1       1.165   1.821  -0.059  0.00  0.00    +0.019 A 
ATOM      5  C   UNL     1      -0.014   1.102  -0.054  0.00  0.00    +0.048 A 
ATOM      6  C   UNL     1      -1.230   1.766   0.020  0.00  0.00    +0.136 A 
ATOM      7 BR   UNL     1       2.750   4.185   0.008  0.00  0.00    -0.050 Br
ENDROOT
BRANCH   1   9
ATOM      8  C   UNL     1      -2.632   4.685   1.480  0.00  0.00    +0.012 C 
ATOM      9  C   UNL     1      -2.579   3.873   0.184  0.00  0.00    +0.016 C 
ATOM     10  C   UNL     1      -2.723   4.814  -1.013  0.00  0.00    +0.012 C 
ENDBRANCH   1   9
BRANCH   6  11
ATOM     11  O   UNL     1      -2.392   1.060   0.020  0.00  0.00    -0.420 OA
BRANCH  11  12
ATOM     12  C   UNL     1      -3.048   0.920  -1.151  0.00  0.00    +0.380 C 
ATOM     13  O   UNL     1      -2.547   1.329  -2.182  0.00  0.00    -0.241 OA
BRANCH  12  14
ATOM     14  C   UNL     1      -4.362   0.277  -1.181  0.00  0.00    +0.213 A 
ATOM     15  C   UNL     1      -5.131   0.072  -2.293  0.00  0.00    +0.058 A 
ATOM     16  C   UNL     1      -6.300  -0.571  -1.862  0.00  0.00    +0.058 A 
ATOM     17  C   UNL     1      -6.197  -0.731  -0.522  0.00  0.00    +0.171 A 
ATOM     18  O   UNL     1      -5.025  -0.223  -0.117  0.00  0.00    -0.442 OA
ATOM     19 BR   UNL     1      -7.490  -1.543   0.593  0.00  0.00    -0.008 Br
ENDBRANCH  12  14
ENDBRANCH  11  12
ENDBRANCH   6  11
TORSDOF 4
