REMARK  Name = ZINC36605138
REMARK  15 active torsions:
REMARK  status: ('A' for Active; 'I' for Inactive)
REMARK    1  A    between atoms: C_1  and  C_2
REMARK    2  A    between atoms: C_5  and  S_8
REMARK    3  A    between atoms: S_8  and  C_11
REMARK    4  A    between atoms: C_11  and  N_12
REMARK    5  A    between atoms: C_13  and  C_15
REMARK    6  A    between atoms: C_15  and  C_17
REMARK    7  A    between atoms: C_15  and  N_26
REMARK    8  A    between atoms: C_20  and  N_23
REMARK    9  A    between atoms: N_23  and  C_24
REMARK   10  A    between atoms: N_23  and  C_25
REMARK   11  A    between atoms: N_26  and  C_27
REMARK   12  A    between atoms: C_33  and  C_35
REMARK   13  A    between atoms: C_35  and  C_36
REMARK   14  A    between atoms: C_36  and  C_37
REMARK   15  A    between atoms: C_36  and  C_38
REMARK                            x       y       z     vdW  Elec       q    Type
REMARK                         _______ _______ _______ _____ _____    ______ ____
ROOT
ATOM      1  C   UNL     1       3.334  -4.879   3.570  0.00  0.00    +0.197 C 
ENDROOT
BRANCH   1   2
ATOM      2  C   UNL     1       2.880  -4.424   4.933  0.00  0.00    -0.018 A 
ATOM      3  C   UNL     1       2.268  -5.320   5.791  0.00  0.00    +0.008 A 
ATOM      4  C   UNL     1       1.850  -4.907   7.041  0.00  0.00    +0.023 A 
ATOM      5  C   UNL     1       2.045  -3.589   7.436  0.00  0.00    +0.029 A 
ATOM      6  C   UNL     1       2.660  -2.692   6.572  0.00  0.00    +0.023 A 
ATOM      7  C   UNL     1       3.080  -3.114   5.326  0.00  0.00    +0.008 A 
BRANCH   5   8
ATOM      8  N   UNL     1       1.623  -3.168   8.699  0.00  0.00    -0.336 N 
ATOM      9  C   UNL     1       0.975  -4.115   9.609  0.00  0.00    +0.129 C 
ATOM     10  C   UNL     1       1.830  -1.778   9.114  0.00  0.00    +0.129 C 
ENDBRANCH   5   8
ENDBRANCH   1   2
BRANCH   1  12
ATOM     11  N   UNL     1       2.138  -3.071   2.379  0.00  0.00    -0.294 N 
ATOM     12  C   UNL     1       2.361  -4.392   2.528  0.00  0.00    +0.240 C 
ATOM     13  O   UNL     1       1.779  -5.188   1.823  0.00  0.00    -0.273 OA
ATOM     14  H   UNL     1       2.604  -2.434   2.943  0.00  0.00    +0.150 HD
BRANCH  11  15
ATOM     15  C   UNL     1       1.192  -2.597   1.366  0.00  0.00    +0.278 C 
BRANCH  15  16
ATOM     16  S   UNL     1      -0.435  -2.346   2.128  0.00  0.00    +0.013 S 
ATOM     17  O   UNL     1      -0.781  -3.471   2.924  0.00  0.00    -0.168 OA
ATOM     18  O   UNL     1      -1.348  -1.826   1.171  0.00  0.00    -0.168 OA
BRANCH  16  23
ATOM     19  C   UNL     1       0.376   2.142   6.078  0.00  0.00    +0.044 C 
ATOM     20  C   UNL     1       0.174   1.021   5.091  0.00  0.00    -0.050 A 
ATOM     21  C   UNL     1      -0.193   1.305   3.789  0.00  0.00    +0.005 A 
ATOM     22  C   UNL     1      -0.379   0.277   2.884  0.00  0.00    +0.027 A 
ATOM     23  C   UNL     1      -0.197  -1.035   3.281  0.00  0.00    +0.090 A 
ATOM     24  C   UNL     1       0.171  -1.318   4.583  0.00  0.00    +0.027 A 
ATOM     25  C   UNL     1       0.360  -0.290   5.487  0.00  0.00    +0.005 A 
ENDBRANCH  16  23
ENDBRANCH  15  16
ENDBRANCH  11  15
ENDBRANCH   1  12
BRANCH   1  26
ATOM     26  N   UNL     1       3.392  -6.342   3.538  0.00  0.00    -0.255 N 
ATOM     27  C   UNL     1       2.256  -7.064   3.604  0.00  0.00    +0.221 C 
ATOM     28  O   UNL     1       1.181  -6.502   3.619  0.00  0.00    -0.275 OA
BRANCH  26  29
ATOM     29  C   UNL     1       4.628  -6.991   3.438  0.00  0.00    +0.037 A 
ATOM     30  C   UNL     1       5.620  -6.476   2.614  0.00  0.00    +0.023 A 
ATOM     31  C   UNL     1       6.839  -7.119   2.518  0.00  0.00    +0.002 A 
ATOM     32  C   UNL     1       7.072  -8.274   3.241  0.00  0.00    +0.000 A 
ATOM     33  C   UNL     1       6.086  -8.790   4.062  0.00  0.00    +0.002 A 
ATOM     34  C   UNL     1       4.867  -8.149   4.167  0.00  0.00    +0.023 A 
ENDBRANCH  26  29
BRANCH  27  35
ATOM     35  C   UNL     1       2.320  -8.568   3.660  0.00  0.00    +0.099 C 
BRANCH  35  36
ATOM     36  C   UNL     1       1.245  -9.159   2.746  0.00  0.00    -0.008 C 
ATOM     37  C   UNL     1       1.390 -10.681   2.705  0.00  0.00    +0.008 C 
ATOM     38  C   UNL     1      -0.140  -8.793   3.284  0.00  0.00    +0.008 C 
ENDBRANCH  35  36
ENDBRANCH  27  35
ENDBRANCH   1  26
TORSDOF 10
