REMARK  Name = ZINC60241931
REMARK  6 active torsions:
REMARK  status: ('A' for Active; 'I' for Inactive)
REMARK    1  A    between atoms: C_1  and  C_2
REMARK    2  A    between atoms: C_2  and  C_3
REMARK    3  A    between atoms: C_2  and  C_4
REMARK    4  A    between atoms: C_2  and  C_5
REMARK    5  A    between atoms: C_12  and  C_14
REMARK    6  A    between atoms: C_24  and  C_26
REMARK                            x       y       z     vdW  Elec       q    Type
REMARK                         _______ _______ _______ _____ _____    ______ ____
ROOT
ATOM      1  C   UNL     1       6.007  -0.738  -4.546  0.00  0.00    +0.258 C 
ATOM      2  O   UNL     1       6.934  -0.474  -3.802  0.00  0.00    -0.269 OA
ATOM      3  N   UNL     1       6.250  -1.180  -5.795  0.00  0.00    -0.255 N 
ATOM      4  C   UNL     1       7.521  -1.403  -6.333  0.00  0.00    +0.041 A 
ATOM      5  C   UNL     1       8.774  -1.231  -5.742  0.00  0.00    +0.024 A 
ATOM      6  C   UNL     1       9.922  -1.511  -6.453  0.00  0.00    +0.002 A 
ATOM      7  C   UNL     1       9.840  -1.963  -7.757  0.00  0.00    +0.000 A 
ATOM      8  C   UNL     1       8.603  -2.135  -8.349  0.00  0.00    +0.005 A 
ATOM      9  C   UNL     1       7.450  -1.857  -7.640  0.00  0.00    -0.024 A 
ATOM     10  C   UNL     1       5.994  -1.955  -8.037  0.00  0.00    +0.069 C 
ATOM     11  C   UNL     1       5.221  -1.503  -6.787  0.00  0.00    +0.171 C 
ENDROOT
BRANCH   1  18
ATOM     12  C   UNL     1       0.664  -0.268  -1.372  0.00  0.00    -0.001 C 
ATOM     13  C   UNL     1      -0.007   0.353  -2.600  0.00  0.00    +0.009 C 
ATOM     14  C   UNL     1       0.531  -0.340  -3.860  0.00  0.00    +0.043 C 
ATOM     15  C   UNL     1       2.027  -0.389  -3.772  0.00  0.00    -0.006 A 
ATOM     16  C   UNL     1       2.787  -0.176  -2.659  0.00  0.00    -0.036 A 
ATOM     17  C   UNL     1       4.162  -0.272  -2.815  0.00  0.00    +0.024 A 
ATOM     18  C   UNL     1       4.626  -0.574  -4.082  0.00  0.00    +0.075 A 
ATOM     19  S   UNL     1       3.107  -0.711  -5.005  0.00  0.00    -0.088 S 
ATOM     20  C   UNL     1       2.134   0.150  -1.319  0.00  0.00    +0.040 C 
BRANCH  12  22
ATOM     21  C   UNL     1       0.044   1.738  -0.018  0.00  0.00    +0.011 C 
ATOM     22  C   UNL     1      -0.048   0.214  -0.106  0.00  0.00    -0.035 C 
ATOM     23  C   UNL     1       0.619  -0.409   1.122  0.00  0.00    +0.011 C 
ATOM     24  C   UNL     1      -1.518  -0.207  -0.156  0.00  0.00    +0.011 C 
ENDBRANCH  12  22
ENDBRANCH   1  18
BRANCH  11  25
ATOM     25  C   UNL     1       4.340  -2.617  -6.283  0.00  0.00    +0.232 C 
ATOM     26  O   UNL     1       4.546  -3.105  -5.192  0.00  0.00    -0.274 OA
ATOM     27  N   UNL     1       3.325  -3.070  -7.044  0.00  0.00    -0.328 N 
ATOM     28  H   UNL     1       3.161  -2.680  -7.917  0.00  0.00    +0.145 HD
ATOM     29  H   UNL     1       2.758  -3.788  -6.720  0.00  0.00    +0.145 HD
ENDBRANCH  11  25
TORSDOF 3
