REMARK  Name = ZINC55501808
REMARK  10 active torsions:
REMARK  status: ('A' for Active; 'I' for Inactive)
REMARK    1  A    between atoms: C_1  and  C_2
REMARK    2  A    between atoms: C_4  and  C_28
REMARK    3  A    between atoms: C_5  and  N_9
REMARK    4  A    between atoms: C_6  and  C_8
REMARK    5  A    between atoms: C_10  and  C_12
REMARK    6  A    between atoms: C_12  and  C_13
REMARK    7  A    between atoms: C_19  and  C_24
REMARK    8  A    between atoms: C_24  and  C_25
REMARK    9  A    between atoms: C_25  and  C_26
REMARK   10  A    between atoms: C_25  and  C_27
REMARK                            x       y       z     vdW  Elec       q    Type
REMARK                         _______ _______ _______ _____ _____    ______ ____
ROOT
ATOM      1  C   UNL     1      -0.397  -7.461   2.211  0.00  0.00    +0.120 A 
ATOM      2  N   UNL     1      -0.581  -8.776   2.497  0.00  0.00    -0.310 N 
ATOM      3  H   UNL     1      -0.708  -9.407   1.771  0.00  0.00    +0.170 HD
ATOM      4  C   UNL     1      -0.591  -9.222   3.767  0.00  0.00    +0.260 A 
ATOM      5  O   UNL     1      -0.757 -10.405   4.006  0.00  0.00    -0.267 OA
ATOM      6  C   UNL     1      -0.403  -8.283   4.833  0.00  0.00    +0.075 A 
ATOM      7  C   UNL     1      -0.373  -8.511   6.265  0.00  0.00    -0.026 A 
ATOM      8  C   UNL     1      -0.180  -7.469   7.091  0.00  0.00    +0.051 A 
ATOM      9  S   UNL     1      -0.023  -6.085   5.979  0.00  0.00    -0.077 S 
ATOM     10  C   UNL     1      -0.221  -6.945   4.439  0.00  0.00    +0.116 A 
ATOM     11  N   UNL     1      -0.217  -6.582   3.160  0.00  0.00    -0.226 NA
ENDROOT
BRANCH   1  12
ATOM     12  C   UNL     1      -0.393  -7.010   0.773  0.00  0.00    +0.170 C 
BRANCH  12  14
ATOM     13  N   UNL     1      -0.123  -4.892  -0.477  0.00  0.00    -0.285 N 
ATOM     14  C   UNL     1      -0.166  -5.521   0.715  0.00  0.00    +0.225 C 
ATOM     15  O   UNL     1      -0.021  -4.889   1.740  0.00  0.00    -0.275 OA
ATOM     16  H   UNL     1      -0.159  -5.407  -1.298  0.00  0.00    +0.155 HD
BRANCH  13  21
ATOM     17  C   UNL     1       0.269   0.763  -0.688  0.00  0.00    +0.044 C 
ATOM     18  C   UNL     1       0.165  -0.739  -0.632  0.00  0.00    -0.050 A 
ATOM     19  C   UNL     1       1.119  -1.472   0.050  0.00  0.00    +0.008 A 
ATOM     20  C   UNL     1       1.027  -2.849   0.103  0.00  0.00    -0.029 A 
ATOM     21  C   UNL     1      -0.026  -3.498  -0.528  0.00  0.00    +0.039 A 
ATOM     22  C   UNL     1      -0.984  -2.759  -1.212  0.00  0.00    -0.029 A 
ATOM     23  C   UNL     1      -0.888  -1.382  -1.257  0.00  0.00    +0.008 A 
ATOM     24  C   UNL     1      -2.128  -3.458  -1.899  0.00  0.00    +0.045 C 
ATOM     25  C   UNL     1       2.068  -3.647   0.845  0.00  0.00    +0.045 C 
ENDBRANCH  13  21
ENDBRANCH  12  14
ENDBRANCH   1  12
BRANCH   7  26
ATOM     26  C   UNL     1      -0.556  -9.899   6.821  0.00  0.00    +0.039 C 
BRANCH  26  27
ATOM     27  C   UNL     1      -2.044 -10.257   6.819  0.00  0.00    -0.013 C 
ATOM     28  C   UNL     1      -2.218 -11.715   7.248  0.00  0.00    +0.007 C 
ATOM     29  C   UNL     1      -2.788  -9.346   7.798  0.00  0.00    +0.007 C 
ENDBRANCH  26  27
ENDBRANCH   7  26
TORSDOF 5
