REMARK  Name = ZINC18077530
REMARK  10 active torsions:
REMARK  status: ('A' for Active; 'I' for Inactive)
REMARK    1  A    between atoms: C_1  and  O_2
REMARK    2  A    between atoms: O_2  and  C_3
REMARK    3  A    between atoms: C_3  and  C_5
REMARK    4  A    between atoms: C_5  and  C_6
REMARK    5  A    between atoms: N_14  and  C_15
REMARK    6  A    between atoms: N_16  and  C_17
REMARK    7  A    between atoms: C_17  and  C_19
REMARK    8  A    between atoms: N_25  and  C_26
REMARK    9  A    between atoms: C_29  and  O_32
REMARK   10  A    between atoms: O_32  and  C_33
REMARK                            x       y       z     vdW  Elec       q    Type
REMARK                         _______ _______ _______ _____ _____    ______ ____
ROOT
ATOM      1  C   UNL     1       1.014  -4.178  -7.110  0.00  0.00    +0.224 C 
ATOM      2  N   UNL     1       2.306  -4.455  -6.915  0.00  0.00    -0.141 NA
ATOM      3  N   UNL     1       0.591  -3.690  -8.323  0.00  0.00    -0.326 N 
ATOM      4  H   UNL     1       1.209  -3.643  -9.069  0.00  0.00    +0.169 HD
ENDROOT
BRANCH   1  13
ATOM      5  C   UNL     1       0.048  -5.531  -2.742  0.00  0.00    +0.035 A 
ATOM      6  C   UNL     1       1.361  -5.810  -2.550  0.00  0.00    +0.093 A 
ATOM      7  C   UNL     1       2.269  -5.594  -3.602  0.00  0.00    +0.275 A 
ATOM      8  O   UNL     1       3.582  -5.867  -3.430  0.00  0.00    -0.266 OA
ATOM      9  N   UNL     1       1.836  -5.123  -4.762  0.00  0.00    -0.173 NA
ATOM     10  C   UNL     1       0.547  -4.850  -4.947  0.00  0.00    +0.234 A 
ATOM     11  N   UNL     1      -0.362  -5.054  -3.948  0.00  0.00    -0.327 N 
ATOM     12  H   UNL     1      -1.299  -4.855  -4.098  0.00  0.00    +0.169 HD
ATOM     13  N   UNL     1       0.136  -4.375  -6.128  0.00  0.00    -0.179 NA
BRANCH   5  14
ATOM     14  C   UNL     1      -0.948  -5.753  -1.632  0.00  0.00    +0.174 C 
BRANCH  14  15
ATOM     15  C   UNL     1      -1.161  -4.462  -0.883  0.00  0.00    +0.313 C 
ATOM     16  O   UNL     1      -0.566  -3.465  -1.217  0.00  0.00    -0.250 OA
BRANCH  15  18
ATOM     17  C   UNL     1      -2.166  -3.164   0.817  0.00  0.00    +0.280 C 
ATOM     18  O   UNL     1      -2.012  -4.421   0.153  0.00  0.00    -0.468 OA
ENDBRANCH  15  18
ENDBRANCH  14  15
ENDBRANCH   5  14
ENDBRANCH   1  13
BRANCH   3  19
ATOM     19  C   UNL     1      -0.732  -3.260  -8.482  0.00  0.00    +0.042 A 
ATOM     20  C   UNL     1      -1.398  -2.656  -7.424  0.00  0.00    +0.029 A 
ATOM     21  C   UNL     1      -2.702  -2.232  -7.581  0.00  0.00    +0.048 A 
ATOM     22  C   UNL     1      -3.348  -2.409  -8.796  0.00  0.00    +0.129 A 
ATOM     23  C   UNL     1      -2.683  -3.013  -9.854  0.00  0.00    +0.048 A 
ATOM     24  C   UNL     1      -1.377  -3.432  -9.700  0.00  0.00    +0.029 A 
BRANCH  22  25
ATOM     25  O   UNL     1      -4.633  -1.992  -8.950  0.00  0.00    -0.456 OA
BRANCH  25  26
ATOM     26  C   UNL     1      -5.221  -1.343  -7.912  0.00  0.00    +0.128 A 
ATOM     27  C   UNL     1      -4.914  -0.014  -7.659  0.00  0.00    +0.046 A 
ATOM     28  C   UNL     1      -5.514   0.643  -6.603  0.00  0.00    +0.004 A 
ATOM     29  C   UNL     1      -6.421  -0.022  -5.798  0.00  0.00    +0.000 A 
ATOM     30  C   UNL     1      -6.729  -1.346  -6.048  0.00  0.00    +0.004 A 
ATOM     31  C   UNL     1      -6.136  -2.007  -7.106  0.00  0.00    +0.046 A 
ENDBRANCH  25  26
ENDBRANCH  22  25
ENDBRANCH   3  19
BRANCH   2  32
ATOM     32  C   UNL     1       3.165  -4.378  -7.933  0.00  0.00    +0.270 C 
ATOM     33  O   UNL     1       2.794  -3.954  -9.014  0.00  0.00    -0.268 OA
BRANCH  32  34
ATOM     34  C   UNL     1       4.571  -4.808  -7.749  0.00  0.00    +0.039 A 
ATOM     35  C   UNL     1       5.026  -5.194  -6.489  0.00  0.00    +0.013 A 
ATOM     36  C   UNL     1       6.337  -5.593  -6.324  0.00  0.00    +0.001 A 
ATOM     37  C   UNL     1       7.199  -5.610  -7.405  0.00  0.00    +0.000 A 
ATOM     38  C   UNL     1       6.754  -5.227  -8.658  0.00  0.00    +0.001 A 
ATOM     39  C   UNL     1       5.444  -4.833  -8.837  0.00  0.00    +0.013 A 
ENDBRANCH  32  34
ENDBRANCH   2  32
TORSDOF 9
