REMARK  Name = ZINC41353622
REMARK  5 active torsions:
REMARK  status: ('A' for Active; 'I' for Inactive)
REMARK    1  A    between atoms: C_1  and  C_2
REMARK    2  A    between atoms: C_4  and  O_18
REMARK    3  A    between atoms: C_11  and  C_12
REMARK    4  A    between atoms: O_18  and  C_19
REMARK    5  A    between atoms: C_19  and  C_21
REMARK                            x       y       z     vdW  Elec       q    Type
REMARK                         _______ _______ _______ _____ _____    ______ ____
ROOT
ATOM      1  C   UNL     1      -0.243   1.517  -0.030  0.00  0.00    +0.045 C 
ATOM      2  C   UNL     1      -0.114   0.015  -0.025  0.00  0.00    -0.033 A 
ATOM      3  C   UNL     1      -0.102  -0.675  -1.204  0.00  0.00    +0.050 A 
ATOM      4  C   UNL     1       0.018  -2.062  -1.203  0.00  0.00    +0.136 A 
ATOM      5  C   UNL     1       0.126  -2.759  -0.010  0.00  0.00    +0.093 A 
ATOM      6  C   UNL     1       0.116  -2.072   1.196  0.00  0.00    +0.143 A 
ATOM      7  C   UNL     1       0.001  -0.672   1.183  0.00  0.00    +0.071 A 
ATOM      8  C   UNL     1       0.028  -0.247   2.594  0.00  0.00    +0.232 C 
ATOM      9  O   UNL     1      -0.050   0.891   3.027  0.00  0.00    -0.283 OA
ATOM     10  C   UNL     1       0.166  -1.447   3.341  0.00  0.00    +0.177 C 
ATOM     11  C   UNL     1       0.235  -1.536   4.701  0.00  0.00    +0.065 C 
ATOM     12  O   UNL     1       0.204  -2.489   2.477  0.00  0.00    -0.451 OA
ENDROOT
BRANCH  11  13
ATOM     13  C   UNL     1       0.373  -2.798   5.320  0.00  0.00    +0.016 A 
ATOM     14  C   UNL     1       0.455  -3.107   6.676  0.00  0.00    +0.015 A 
ATOM     15  C   UNL     1       0.585  -4.441   6.974  0.00  0.00    +0.008 A 
ATOM     16  C   UNL     1       0.623  -5.343   5.961  0.00  0.00    +0.046 A 
ATOM     17  S   UNL     1       0.477  -4.412   4.571  0.00  0.00    -0.097 S 
ENDBRANCH  11  13
BRANCH   4  18
ATOM     18  O   UNL     1       0.028  -2.738  -2.381  0.00  0.00    -0.420 OA
BRANCH  18  19
ATOM     19  C   UNL     1       1.101  -2.594  -3.184  0.00  0.00    +0.380 C 
ATOM     20  O   UNL     1       2.066  -1.960  -2.802  0.00  0.00    -0.241 OA
BRANCH  19  21
ATOM     21  C   UNL     1       1.104  -3.201  -4.521  0.00  0.00    +0.213 A 
ATOM     22  C   UNL     1       2.128  -3.126  -5.412  0.00  0.00    +0.065 A 
ATOM     23  C   UNL     1       1.692  -3.869  -6.593  0.00  0.00    +0.022 A 
ATOM     24  C   UNL     1       2.273  -4.160  -7.830  0.00  0.00    +0.027 A 
ATOM     25  C   UNL     1       1.581  -4.902  -8.746  0.00  0.00    +0.019 A 
ATOM     26  C   UNL     1       0.305  -5.368  -8.454  0.00  0.00    +0.019 A 
ATOM     27  C   UNL     1      -0.285  -5.092  -7.240  0.00  0.00    +0.048 A 
ATOM     28  C   UNL     1       0.399  -4.339  -6.293  0.00  0.00    +0.136 A 
ATOM     29  O   UNL     1       0.093  -3.923  -5.048  0.00  0.00    -0.448 OA
ATOM     30 BR   UNL     1       2.364  -5.296 -10.421  0.00  0.00    -0.050 Br
ENDBRANCH  19  21
ENDBRANCH  18  19
ENDBRANCH   4  18
TORSDOF 4
