REMARK  Name = ZINC61821801
REMARK  8 active torsions:
REMARK  status: ('A' for Active; 'I' for Inactive)
REMARK    1  A    between atoms: C_1  and  C_2
REMARK    2  A    between atoms: C_2  and  C_3
REMARK    3  A    between atoms: C_2  and  N_4
REMARK    4  A    between atoms: N_4  and  C_5
REMARK    5  A    between atoms: C_5  and  C_6
REMARK    6  A    between atoms: C_5  and  C_7
REMARK    7  A    between atoms: C_5  and  C_19
REMARK    8  A    between atoms: C_7  and  N_8
REMARK                            x       y       z     vdW  Elec       q    Type
REMARK                         _______ _______ _______ _____ _____    ______ ____
ROOT
ATOM      1  C   UNL     1       2.742  -1.150  -2.481  0.00  0.00    -0.047 C 
ENDROOT
BRANCH   1   2
ATOM      2  N   UNL     1       2.612  -0.164  -3.562  0.00  0.00    +0.381 N 
ATOM      3  C   UNL     1       1.190   0.070  -3.840  0.00  0.00    -0.078 C 
ATOM      4  C   UNL     1       1.047   1.155  -4.910  0.00  0.00    -0.012 C 
ATOM      5  C   UNL     1       1.752   0.698  -6.189  0.00  0.00    -0.033 C 
ATOM      6  C   UNL     1       1.068  -0.559  -6.729  0.00  0.00    +0.007 C 
ATOM      7  C   UNL     1       1.775  -1.017  -8.006  0.00  0.00    +0.001 C 
ATOM      8  C   UNL     1       1.703   0.095  -9.055  0.00  0.00    +0.000 C 
ATOM      9  C   UNL     1       2.389   1.351  -8.515  0.00  0.00    +0.001 C 
ATOM     10  C   UNL     1       1.682   1.810  -7.237  0.00  0.00    +0.007 C 
ATOM     11  C   UNL     1       3.217   0.386  -5.872  0.00  0.00    -0.012 C 
ATOM     12  C   UNL     1       3.279  -0.671  -4.767  0.00  0.00    -0.078 C 
ATOM     13  H   UNL     1       3.044   0.703  -3.279  0.00  0.00    -0.082 HD
ENDBRANCH   1   2
BRANCH   1  14
ATOM     14  C   UNL     1       2.207  -0.551  -1.178  0.00  0.00    +0.078 C 
ATOM     15  C   UNL     1       2.899   0.786  -0.909  0.00  0.00    +0.035 C 
BRANCH  14  16
ATOM     16  C   UNL     1       2.485  -1.498  -0.039  0.00  0.00    +0.229 C 
ATOM     17  O   UNL     1       3.478  -1.354   0.641  0.00  0.00    -0.274 OA
ATOM     18  N   UNL     1       1.629  -2.506   0.224  0.00  0.00    -0.328 N 
ATOM     19  H   UNL     1       0.834  -2.622  -0.321  0.00  0.00    +0.145 HD
ATOM     20  H   UNL     1       1.807  -3.115   0.957  0.00  0.00    +0.145 HD
ENDBRANCH  14  16
BRANCH  14  21
ATOM     21  N   UNL     1       0.758  -0.338  -1.296  0.00  0.00    -0.303 NA
ATOM     22  H   UNL     1       0.280  -1.205  -1.489  0.00  0.00    +0.123 HD
BRANCH  21  24
ATOM     23  C   UNL     1       0.037   1.800  -0.344  0.00  0.00    +0.023 C 
ATOM     24  C   UNL     1       0.221   0.303  -0.088  0.00  0.00    +0.048 C 
ATOM     25  C   UNL     1      -1.130  -0.324   0.263  0.00  0.00    +0.023 C 
ENDBRANCH  21  24
ENDBRANCH  14  21
ENDBRANCH   1  14
TORSDOF 5
