REMARK  Name = ZINC28294130
REMARK  12 active torsions:
REMARK  status: ('A' for Active; 'I' for Inactive)
REMARK    1  A    between atoms: C_1  and  C_2
REMARK    2  A    between atoms: C_2  and  N_3
REMARK    3  A    between atoms: N_3  and  C_4
REMARK    4  A    between atoms: C_4  and  C_5
REMARK    5  A    between atoms: N_8  and  C_9
REMARK    6  A    between atoms: C_9  and  C_11
REMARK    7  A    between atoms: C_9  and  N_15
REMARK    8  A    between atoms: N_15  and  C_16
REMARK    9  A    between atoms: C_16  and  N_18
REMARK   10  A    between atoms: N_18  and  C_19
REMARK   11  A    between atoms: C_22  and  N_28
REMARK   12  A    between atoms: C_24  and  N_25
REMARK                            x       y       z     vdW  Elec       q    Type
REMARK                         _______ _______ _______ _____ _____    ______ ____
ROOT
ATOM      1  N   UNL     1      -3.015   1.493  -1.595  0.00  0.00    -0.305 N 
ATOM      2  H   UNL     1      -3.191   2.456  -2.096  0.00  0.00    +0.150 HD
ENDROOT
BRANCH   1   3
ATOM      3  C   UNL     1      -3.090   0.345  -2.296  0.00  0.00    +0.136 C 
ATOM      4  S   UNL     1      -2.816  -1.154  -1.515  0.00  0.00    -0.019 S 
BRANCH   3   5
ATOM      5  N   UNL     1      -3.381   0.376  -3.611  0.00  0.00    -0.295 N 
ATOM      6  H   UNL     1      -3.651   1.327  -4.092  0.00  0.00    +0.154 HD
BRANCH   5   7
ATOM      7  C   UNL     1      -3.341  -0.802  -4.364  0.00  0.00    +0.063 A 
ATOM      8  C   UNL     1      -2.263  -1.669  -4.243  0.00  0.00    +0.028 A 
ATOM      9  C   UNL     1      -2.226  -2.832  -4.988  0.00  0.00    +0.034 A 
ATOM     10  C   UNL     1      -3.261  -3.132  -5.855  0.00  0.00    +0.128 A 
ATOM     11  C   UNL     1      -4.336  -2.271  -5.978  0.00  0.00    +0.067 A 
ATOM     12  C   UNL     1      -4.381  -1.110  -5.231  0.00  0.00    +0.149 A 
BRANCH  12  13
ATOM     13  N   UNL     1      -5.535  -0.192  -5.359  0.00  0.00    +0.058 N 
ATOM     14  O   UNL     1      -6.411  -0.424  -6.173  0.00  0.00    -0.126 OA
ATOM     15  O   UNL     1      -5.609   0.796  -4.649  0.00  0.00    -0.126 OA
ENDBRANCH  12  13
BRANCH  10  16
ATOM     16  N   UNL     1      -3.218  -4.379  -6.652  0.00  0.00    +0.056 N 
ATOM     17  O   UNL     1      -2.272  -5.138  -6.544  0.00  0.00    -0.126 OA
ATOM     18  O   UNL     1      -4.129  -4.645  -7.415  0.00  0.00    -0.126 OA
ENDBRANCH  10  16
ENDBRANCH   5   7
ENDBRANCH   3   5
ENDBRANCH   1   3
BRANCH   1  19
ATOM     19  C   UNL     1      -2.698   1.460  -0.165  0.00  0.00    +0.212 C 
BRANCH  19  23
ATOM     20  N   UNL     1       0.915   1.387   0.511  0.00  0.00    -0.286 N 
ATOM     21  C   UNL     1      -0.359   0.988   0.329  0.00  0.00    +0.304 C 
ATOM     22  O   UNL     1      -0.646  -0.190   0.420  0.00  0.00    -0.253 OA
ATOM     23  N   UNL     1      -1.314   1.894   0.040  0.00  0.00    -0.277 N 
ATOM     24  H   UNL     1      -1.054   2.960  -0.043  0.00  0.00    +0.152 HD
BRANCH  20  26
ATOM     25  C   UNL     1       1.126   3.472   1.772  0.00  0.00    +0.024 C 
ATOM     26  C   UNL     1       1.261   2.807   0.401  0.00  0.00    +0.106 C 
ENDBRANCH  20  26
BRANCH  20  27
ATOM     27  C   UNL     1       1.955   0.402   0.819  0.00  0.00    +0.106 C 
ATOM     28  C   UNL     1       2.572  -0.113  -0.483  0.00  0.00    +0.024 C 
ENDBRANCH  20  27
ENDBRANCH  19  23
BRANCH  19  29
ATOM     29  C   UNL     1      -3.643   2.397   0.589  0.00  0.00    +0.225 C 
ATOM     30 CL   UNL     1      -3.444   4.078  -0.031  0.00  0.00    -0.080 Cl
ATOM     31 CL   UNL     1      -5.347   1.862   0.338  0.00  0.00    -0.080 Cl
ATOM     32 CL   UNL     1      -3.254   2.355   2.349  0.00  0.00    -0.080 Cl
ENDBRANCH  19  29
ENDBRANCH   1  19
TORSDOF 10
