REMARK  Name = ZINC33695098
REMARK  9 active torsions:
REMARK  status: ('A' for Active; 'I' for Inactive)
REMARK    1  A    between atoms: C_1  and  C_2
REMARK    2  A    between atoms: C_2  and  C_3
REMARK    3  A    between atoms: C_6  and  N_9
REMARK    4  A    between atoms: C_14  and  C_26
REMARK    5  A    between atoms: N_16  and  C_22
REMARK    6  A    between atoms: C_22  and  C_23
REMARK    7  A    between atoms: C_29  and  O_34
REMARK    8  A    between atoms: C_30  and  O_32
REMARK    9  A    between atoms: O_32  and  C_33
REMARK                            x       y       z     vdW  Elec       q    Type
REMARK                         _______ _______ _______ _____ _____    ______ ____
ROOT
ATOM      1  N   UNL     1       0.773   3.740   4.579  0.00  0.00    -0.208 N 
ATOM      2  C   UNL     1       0.750   2.369   4.554  0.00  0.00    +0.234 C 
ATOM      3  O   UNL     1       0.962   1.609   5.474  0.00  0.00    -0.274 OA
ATOM      4  C   UNL     1       0.416   2.030   3.187  0.00  0.00    +0.139 C 
ATOM      5  C   UNL     1      -0.153   0.889   2.445  0.00  0.00    +0.130 C 
ATOM      6  N   UNL     1      -0.709   1.551   1.216  0.00  0.00    -0.170 NA
ATOM      7  O   UNL     1      -0.516   3.021   1.391  0.00  0.00    -0.282 OA
ATOM      8  C   UNL     1      -0.578   3.200   2.809  0.00  0.00    +0.242 C 
ATOM      9  C   UNL     1       0.215   4.298   3.465  0.00  0.00    +0.258 C 
ATOM     10  O   UNL     1       0.334   5.442   3.083  0.00  0.00    -0.272 OA
ENDROOT
BRANCH   1  14
ATOM     11  C   UNL     1       2.374   5.965   7.720  0.00  0.00    -0.048 A 
ATOM     12  C   UNL     1       1.827   6.610   6.627  0.00  0.00    +0.005 A 
ATOM     13  C   UNL     1       1.296   5.876   5.584  0.00  0.00    +0.024 A 
ATOM     14  C   UNL     1       1.311   4.488   5.636  0.00  0.00    +0.044 A 
ATOM     15  C   UNL     1       1.856   3.843   6.738  0.00  0.00    +0.024 A 
ATOM     16  C   UNL     1       2.391   4.583   7.774  0.00  0.00    +0.005 A 
BRANCH  11  18
ATOM     17  C   UNL     1       1.861   7.050   9.890  0.00  0.00    +0.009 C 
ATOM     18  C   UNL     1       2.953   6.769   8.856  0.00  0.00    +0.032 C 
ENDBRANCH  11  18
ENDBRANCH   1  14
BRANCH   5  19
ATOM     19  C   UNL     1       0.922  -0.102   2.081  0.00  0.00    -0.024 A 
ATOM     20  C   UNL     1       0.726  -1.450   2.318  0.00  0.00    +0.009 A 
ATOM     21  C   UNL     1       1.706  -2.364   1.981  0.00  0.00    +0.049 A 
ATOM     22  C   UNL     1       2.893  -1.929   1.414  0.00  0.00    +0.158 A 
ATOM     23  C   UNL     1       3.093  -0.572   1.181  0.00  0.00    +0.162 A 
ATOM     24  C   UNL     1       2.104   0.338   1.516  0.00  0.00    +0.054 A 
BRANCH  23  25
ATOM     25  O   UNL     1       4.257  -0.141   0.625  0.00  0.00    -0.491 OA
ATOM     26  C   UNL     1       4.392   1.266   0.414  0.00  0.00    +0.277 C 
ENDBRANCH  23  25
BRANCH  22  27
ATOM     27  O   UNL     1       3.861  -2.827   1.087  0.00  0.00    -0.503 OA
ATOM     28  H   UNL     1       4.803  -2.480   0.637  0.00  0.00    +0.292 HD
ENDBRANCH  22  27
ENDBRANCH   5  19
BRANCH   6  29
ATOM     29  C   UNL     1      -0.027   1.071   0.006  0.00  0.00    +0.210 C 
BRANCH  29  30
ATOM     30  C   UNL     1      -0.804   1.500  -1.212  0.00  0.00    +0.227 C 
ATOM     31  O   UNL     1      -1.825   2.142  -1.085  0.00  0.00    -0.275 OA
ATOM     32  N   UNL     1      -0.364   1.170  -2.442  0.00  0.00    -0.328 N 
ATOM     33  H   UNL     1      -0.931   1.483  -3.332  0.00  0.00    +0.145 HD
ATOM     34  H   UNL     1       0.562   0.588  -2.558  0.00  0.00    +0.145 HD
ENDBRANCH  29  30
ENDBRANCH   6  29
TORSDOF 7
