REMARK  Name = ZINC63194311
REMARK  5 active torsions:
REMARK  status: ('A' for Active; 'I' for Inactive)
REMARK    1  A    between atoms: C_1  and  C_2
REMARK    2  A    between atoms: C_2  and  C_4
REMARK    3  A    between atoms: C_2  and  N_20
REMARK    4  A    between atoms: N_10  and  S_11
REMARK    5  A    between atoms: S_11  and  C_14
REMARK                            x       y       z     vdW  Elec       q    Type
REMARK                         _______ _______ _______ _____ _____    ______ ____
ROOT
ATOM      1  C   UNL     1       0.611  -0.381  -1.326  0.00  0.00    +0.065 C 
ATOM      2  C   UNL     1       2.086   0.010  -1.462  0.00  0.00    +0.019 C 
ATOM      3  C   UNL     1       2.614  -0.468  -2.816  0.00  0.00    +0.003 C 
ATOM      4  C   UNL     1       2.509  -1.992  -2.897  0.00  0.00    +0.017 C 
ATOM      5  C   UNL     1       1.039  -2.406  -2.778  0.00  0.00    +0.110 C 
ATOM      6  N   UNL     1       0.480  -1.828  -1.548  0.00  0.00    -0.175 NA
ENDROOT
BRANCH   6   7
ATOM      7  S   UNL     1      -0.278  -2.788  -0.432  0.00  0.00    +0.067 S 
ATOM      8  O   UNL     1       0.616  -3.852  -0.137  0.00  0.00    -0.152 OA
ATOM      9  O   UNL     1      -0.787  -1.920   0.572  0.00  0.00    -0.152 OA
BRANCH   7  10
ATOM     10  C   UNL     1      -1.674  -3.510  -1.228  0.00  0.00    +0.144 A 
ATOM     11  C   UNL     1      -1.779  -4.715  -1.839  0.00  0.00    +0.038 A 
ATOM     12  C   UNL     1      -2.988  -5.078  -2.403  0.00  0.00    +0.030 A 
ATOM     13  C   UNL     1      -4.033  -4.216  -2.329  0.00  0.00    +0.080 A 
ATOM     14  S   UNL     1      -3.319  -2.846  -1.434  0.00  0.00    -0.057 S 
ATOM     15 CL   UNL     1      -5.648  -4.400  -2.939  0.00  0.00    -0.076 Cl
ENDBRANCH   7  10
ENDBRANCH   6   7
BRANCH   1  17
ATOM     16  C   UNL     1       0.963  -0.767   1.117  0.00  0.00    -0.013 C 
ATOM     17  C   UNL     1       0.114  -0.031   0.078  0.00  0.00    -0.059 C 
BRANCH  17  18
ATOM     18  N   UNL     1       0.228   1.418   0.291  0.00  0.00    +0.381 N 
ATOM     19  H   UNL     1       1.202   1.682   0.298  0.00  0.00    -0.090 HD
ATOM     20  H   UNL     1      -0.247   1.905  -0.454  0.00  0.00    -0.090 HD
ATOM     21  H   UNL     1      -0.193   1.663   1.175  0.00  0.00    -0.090 HD
ENDBRANCH  17  18
ENDBRANCH   1  17
TORSDOF 4
