REMARK  Name = ZINC63289652
REMARK  6 active torsions:
REMARK  status: ('A' for Active; 'I' for Inactive)
REMARK    1  A    between atoms: C_1  and  C_2
REMARK    2  A    between atoms: C_5  and  C_8
REMARK    3  A    between atoms: C_11  and  N_14
REMARK    4  A    between atoms: C_15  and  C_17
REMARK    5  A    between atoms: C_17  and  S_18
REMARK    6  A    between atoms: S_18  and  C_19
REMARK                            x       y       z     vdW  Elec       q    Type
REMARK                         _______ _______ _______ _____ _____    ______ ____
ROOT
ATOM      1  N   UNL     1      -1.244  -6.916  -1.425  0.00  0.00    -0.285 N 
ATOM      2  C   UNL     1      -1.396  -8.240  -1.626  0.00  0.00    +0.225 C 
ATOM      3  O   UNL     1      -0.438  -8.979  -1.547  0.00  0.00    -0.275 OA
ATOM      4  H   UNL     1      -2.010  -6.324  -1.488  0.00  0.00    +0.152 HD
ENDROOT
BRANCH   1   8
ATOM      5  C   UNL     1       0.059  -4.249  -0.021  0.00  0.00    +0.056 C 
ATOM      6  C   UNL     1       0.076  -5.035   1.282  0.00  0.00    +0.128 C 
ATOM      7  S   UNL     1       0.540  -6.705   0.644  0.00  0.00    -0.109 S 
ATOM      8  C   UNL     1       0.079  -6.370  -1.112  0.00  0.00    +0.251 C 
ATOM      9  N   UNL     1       0.057  -4.893  -1.117  0.00  0.00    -0.254 NA
BRANCH   5  14
ATOM     10  C   UNL     1      -0.018   1.503   0.010  0.00  0.00    +0.044 C 
ATOM     11  C   UNL     1       0.002  -0.004   0.002  0.00  0.00    -0.050 A 
ATOM     12  C   UNL     1       0.006  -0.686  -1.202  0.00  0.00    +0.004 A 
ATOM     13  C   UNL     1       0.024  -2.065  -1.217  0.00  0.00    +0.010 A 
ATOM     14  C   UNL     1       0.040  -2.773  -0.013  0.00  0.00    -0.003 A 
ATOM     15  C   UNL     1       0.036  -2.079   1.198  0.00  0.00    +0.010 A 
ATOM     16  C   UNL     1       0.023  -0.699   1.198  0.00  0.00    +0.004 A 
ENDBRANCH   5  14
ENDBRANCH   1   8
BRANCH   2  17
ATOM     17  C   UNL     1      -2.756  -8.802  -1.948  0.00  0.00    +0.168 C 
BRANCH  17  18
ATOM     18  S   UNL     1      -2.634 -10.599  -2.160  0.00  0.00    -0.106 S 
BRANCH  18  19
ATOM     19  C   UNL     1      -4.332 -11.113  -2.538  0.00  0.00    +0.236 C 
ATOM     20  N   UNL     1      -4.825 -10.394  -3.719  0.00  0.00    -0.355 N 
ATOM     21  C   UNL     1      -5.867  -9.706  -3.351  0.00  0.00    +0.061 A 
ATOM     22  C   UNL     1      -6.775  -8.804  -4.073  0.00  0.00    +0.027 A 
ATOM     23  C   UNL     1      -7.794  -8.218  -3.413  0.00  0.00    +0.002 A 
ATOM     24  C   UNL     1      -8.034  -8.433  -2.044  0.00  0.00    +0.002 A 
ATOM     25  C   UNL     1      -7.263  -9.241  -1.289  0.00  0.00    +0.027 A 
ATOM     26  C   UNL     1      -6.121  -9.933  -1.902  0.00  0.00    +0.061 A 
ATOM     27  N   UNL     1      -5.226 -10.752  -1.430  0.00  0.00    -0.355 N 
ATOM     28  H   UNL     1      -4.444 -10.425  -4.611  0.00  0.00    +0.162 HD
ATOM     29  H   UNL     1      -5.162 -11.067  -0.515  0.00  0.00    +0.162 HD
ENDBRANCH  18  19
ENDBRANCH  17  18
ENDBRANCH   2  17
TORSDOF 5
