REMARK  Name = ZINC39467095
REMARK  6 active torsions:
REMARK  status: ('A' for Active; 'I' for Inactive)
REMARK    1  A    between atoms: C_4  and  O_39
REMARK    2  A    between atoms: C_5  and  C_7
REMARK    3  A    between atoms: P_16  and  C_32
REMARK    4  A    between atoms: C_24  and  C_25
REMARK    5  A    between atoms: C_30  and  O_31
REMARK    6  A    between atoms: C_37  and  O_38
REMARK                            x       y       z     vdW  Elec       q    Type
REMARK                         _______ _______ _______ _____ _____    ______ ____
ROOT
ATOM      1  C   UNL     1       1.245  -2.165  -0.022  0.00  0.00    -0.011 C 
ATOM      2  C   UNL     1       1.551  -2.829  -1.146  0.00  0.00    -0.014 C 
ATOM      3  C   UNL     1       1.585  -4.334  -1.142  0.00  0.00    +0.016 C 
ATOM      4  C   UNL     1       2.503  -4.843  -2.245  0.00  0.00    -0.003 C 
ATOM      5  C   UNL     1       3.077  -6.223  -1.897  0.00  0.00    -0.020 C 
ATOM      6  C   UNL     1       3.343  -6.912  -3.243  0.00  0.00    +0.157 C 
ATOM      7  O   UNL     1       3.913  -8.214  -3.035  0.00  0.00    -0.316 OA
ATOM      8  P   UNL     1       3.144  -9.207  -1.999  0.00  0.00    +0.291 P 
ATOM      9  O   UNL     1       4.068 -10.254  -1.507  0.00  0.00    -0.269 OA
ATOM     10  N   UNL     1       2.666  -8.234  -0.758  0.00  0.00    -0.288 NA
ATOM     11  N   UNL     1       2.156  -6.990  -1.067  0.00  0.00    +0.398 N 
ATOM     12  C   UNL     1       1.938  -6.365   0.247  0.00  0.00    -0.046 C 
ATOM     13  C   UNL     1       2.110  -4.840   0.199  0.00  0.00    +0.005 C 
ATOM     14  C   UNL     1       1.346  -4.197   1.325  0.00  0.00    -0.016 C 
ATOM     15  C   UNL     1       0.939  -2.926   1.215  0.00  0.00    -0.011 C 
ATOM     16  H   UNL     1       2.737  -8.535   0.162  0.00  0.00    +0.111 HD
ATOM     17  H   UNL     1       1.272  -7.086  -1.545  0.00  0.00    -0.055 HD
ENDROOT
BRANCH   1  22
ATOM     18  C   UNL     1      -0.017   1.376   0.010  0.00  0.00    +0.001 A 
ATOM     19  C   UNL     1       1.169   2.089   0.002  0.00  0.00    +0.004 A 
ATOM     20  C   UNL     1       2.382   1.426  -0.013  0.00  0.00    +0.046 A 
ATOM     21  C   UNL     1       2.416   0.041  -0.021  0.00  0.00    +0.125 A 
ATOM     22  C   UNL     1       1.219  -0.683  -0.013  0.00  0.00    +0.024 A 
ATOM     23  C   UNL     1       0.002  -0.004   0.002  0.00  0.00    +0.012 A 
BRANCH  21  24
ATOM     24  O   UNL     1       3.607  -0.612  -0.036  0.00  0.00    -0.506 OA
ATOM     25  H   UNL     1       3.961  -0.805   0.843  0.00  0.00    +0.292 HD
ENDBRANCH  21  24
ENDBRANCH   1  22
BRANCH  15  26
ATOM     26  C   UNL     1       0.182  -2.288   2.318  0.00  0.00    +0.024 A 
ATOM     27  C   UNL     1       0.804  -1.352   3.143  0.00  0.00    +0.012 A 
ATOM     28  C   UNL     1       0.095  -0.761   4.169  0.00  0.00    +0.001 A 
ATOM     29  C   UNL     1      -1.231  -1.094   4.382  0.00  0.00    +0.004 A 
ATOM     30  C   UNL     1      -1.857  -2.020   3.571  0.00  0.00    +0.046 A 
ATOM     31  C   UNL     1      -1.160  -2.617   2.532  0.00  0.00    +0.125 A 
BRANCH  31  32
ATOM     32  O   UNL     1      -1.776  -3.524   1.730  0.00  0.00    -0.506 OA
ATOM     33  H   UNL     1      -1.708  -4.436   2.043  0.00  0.00    +0.292 HD
ENDBRANCH  31  32
ENDBRANCH  15  26
BRANCH   8  34
ATOM     34  C   UNL     1       1.705  -9.965  -2.803  0.00  0.00    +0.091 A 
ATOM     35  C   UNL     1       0.474  -9.340  -2.748  0.00  0.00    +0.018 A 
ATOM     36  C   UNL     1      -0.623  -9.918  -3.360  0.00  0.00    +0.001 A 
ATOM     37  C   UNL     1      -0.492 -11.121  -4.028  0.00  0.00    +0.004 A 
ATOM     38  C   UNL     1       0.737 -11.749  -4.086  0.00  0.00    +0.046 A 
ATOM     39  C   UNL     1       1.841 -11.169  -3.477  0.00  0.00    +0.131 A 
BRANCH  39  40
ATOM     40  O   UNL     1       3.052 -11.783  -3.538  0.00  0.00    -0.506 OA
ATOM     41  H   UNL     1       3.218 -12.399  -2.811  0.00  0.00    +0.292 HD
ENDBRANCH  39  40
ENDBRANCH   8  34
TORSDOF 6
