REMARK  Name = ZINC02699007
REMARK  9 active torsions:
REMARK  status: ('A' for Active; 'I' for Inactive)
REMARK    1  A    between atoms: C_1  and  C_2
REMARK    2  A    between atoms: C_2  and  O_3
REMARK    3  A    between atoms: O_3  and  C_4
REMARK    4  A    between atoms: C_7  and  N_10
REMARK    5  A    between atoms: C_11  and  C_13
REMARK    6  A    between atoms: C_13  and  S_14
REMARK    7  A    between atoms: S_14  and  C_15
REMARK    8  A    between atoms: C_26  and  C_27
REMARK    9  A    between atoms: C_26  and  N_58
REMARK                            x       y       z     vdW  Elec       q    Type
REMARK                         _______ _______ _______ _____ _____    ______ ____
ROOT
ATOM      1  C   UNL     1      -1.292   3.437   0.023  0.00  0.00    +0.170 A 
ATOM      2  N   UNL     1      -0.177   4.219   0.021  0.00  0.00    -0.302 N 
ATOM      3  H   UNL     1      -0.260   5.215   0.039  0.00  0.00    +0.171 HD
ATOM      4  C   UNL     1       1.041   3.639  -0.004  0.00  0.00    +0.254 A 
ATOM      5  O   UNL     1       2.052   4.323  -0.007  0.00  0.00    -0.268 OA
ATOM      6  C   UNL     1       1.128   2.233  -0.028  0.00  0.00    +0.022 A 
ATOM      7  C   UNL     1      -0.019   1.502  -0.020  0.00  0.00    +0.049 A 
ATOM      8  N   UNL     1      -1.201   2.123   0.009  0.00  0.00    -0.228 NA
ATOM      9  C   UNL     1       0.001  -0.004  -0.038  0.00  0.00    +0.037 C 
ATOM     10  C   UNL     1       1.377  -0.503  -0.481  0.00  0.00    -0.072 C 
ATOM     11  C   UNL     1       2.489   1.593  -0.062  0.00  0.00    -0.035 C 
ATOM     12  N   UNL     1       2.392   0.180   0.345  0.00  0.00    +0.385 N 
ATOM     13  H   UNL     1       2.109   0.133   1.331  0.00  0.00    -0.081 HD
ENDROOT
BRANCH   1  14
ATOM     14  S   UNL     1      -2.882   4.196   0.053  0.00  0.00    -0.078 S 
BRANCH  14  15
ATOM     15  C   UNL     1      -3.934   2.723   0.044  0.00  0.00    +0.173 C 
BRANCH  15  17
ATOM     16  N   UNL     1      -6.352   2.204   0.065  0.00  0.00    -0.285 N 
ATOM     17  C   UNL     1      -5.382   3.139   0.067  0.00  0.00    +0.227 C 
ATOM     18  O   UNL     1      -5.674   4.316   0.087  0.00  0.00    -0.275 OA
ATOM     19  H   UNL     1      -6.121   1.265  -0.019  0.00  0.00    +0.155 HD
BRANCH  16  23
ATOM     20  C   UNL     1     -10.348   3.342   0.418  0.00  0.00    +0.121 A 
ATOM     21  C   UNL     1      -9.457   4.146  -0.278  0.00  0.00    +0.047 A 
ATOM     22  C   UNL     1      -8.133   3.769  -0.395  0.00  0.00    +0.027 A 
ATOM     23  C   UNL     1      -7.695   2.586   0.184  0.00  0.00    +0.034 A 
ATOM     24  C   UNL     1      -8.588   1.780   0.876  0.00  0.00    +0.027 A 
ATOM     25  C   UNL     1      -9.910   2.160   0.997  0.00  0.00    +0.047 A 
BRANCH  20  26
ATOM     26  O   UNL     1     -11.651   3.713   0.532  0.00  0.00    -0.492 OA
BRANCH  26  28
ATOM     27  C   UNL     1     -13.929   3.417   1.284  0.00  0.00    +0.048 C 
ATOM     28  C   UNL     1     -12.513   2.837   1.262  0.00  0.00    +0.225 C 
ENDBRANCH  26  28
ENDBRANCH  20  26
ENDBRANCH  16  23
ENDBRANCH  15  17
ENDBRANCH  14  15
ENDBRANCH   1  14
BRANCH  12  29
ATOM     29  C   UNL     1       3.707  -0.483   0.188  0.00  0.00    -0.043 C 
BRANCH  29  30
ATOM     30  C   UNL     1       4.774   0.374   0.819  0.00  0.00    -0.064 A 
ATOM     31  C   UNL     1       5.441   1.317   0.060  0.00  0.00    +0.003 A 
ATOM     32  C   UNL     1       6.416   2.108   0.639  0.00  0.00    +0.020 A 
ATOM     33  C   UNL     1       6.732   1.946   1.976  0.00  0.00    +0.041 A 
ATOM     34  C   UNL     1       6.069   0.998   2.734  0.00  0.00    +0.020 A 
ATOM     35  C   UNL     1       5.090   0.213   2.155  0.00  0.00    +0.003 A 
ATOM     36 CL   UNL     1       7.961   2.934   2.702  0.00  0.00    -0.084 Cl
ENDBRANCH  29  30
ENDBRANCH  12  29
TORSDOF 8
