REMARK  Name = ZINC01329760
REMARK  7 active torsions:
REMARK  status: ('A' for Active; 'I' for Inactive)
REMARK    1  A    between atoms: C_1  and  C_2
REMARK    2  A    between atoms: C_7  and  C_8
REMARK    3  A    between atoms: C_10  and  C_13
REMARK    4  A    between atoms: C_16  and  S_19
REMARK    5  A    between atoms: S_19  and  C_20
REMARK    6  A    between atoms: C_20  and  C_21
REMARK    7  A    between atoms: C_26  and  C_29
REMARK                            x       y       z     vdW  Elec       q    Type
REMARK                         _______ _______ _______ _____ _____    ______ ____
ROOT
ATOM      1  C   UNL     1       0.068  -5.545  -2.313  0.00  0.00    +0.035 A 
ATOM      2  C   UNL     1       0.082  -6.748  -1.593  0.00  0.00    +0.015 A 
ATOM      3  C   UNL     1       0.095  -7.926  -2.289  0.00  0.00    +0.035 A 
ATOM      4  C   UNL     1       0.093  -7.897  -3.683  0.00  0.00    +0.097 A 
ATOM      5  N   UNL     1       0.080  -6.745  -4.340  0.00  0.00    -0.248 NA
ATOM      6  C   UNL     1       0.062  -5.590  -3.707  0.00  0.00    +0.123 A 
ENDROOT
BRANCH   1  16
ATOM      7  C   UNL     1      -0.018   1.503   0.010  0.00  0.00    +0.044 C 
ATOM      8  C   UNL     1       0.002  -0.004   0.002  0.00  0.00    -0.045 A 
ATOM      9  C   UNL     1       0.006  -0.682  -1.199  0.00  0.00    +0.031 A 
ATOM     10  C   UNL     1       0.025  -2.069  -1.209  0.00  0.00    +0.067 A 
ATOM     11  C   UNL     1       0.041  -2.779   0.005  0.00  0.00    +0.090 A 
ATOM     12  C   UNL     1       0.037  -2.075   1.213  0.00  0.00    +0.033 A 
ATOM     13  C   UNL     1       0.023  -0.699   1.202  0.00  0.00    -0.045 A 
ATOM     14  C   UNL     1       0.025   0.059   2.505  0.00  0.00    +0.044 C 
ATOM     15  N   UNL     1       0.057  -4.099  -0.303  0.00  0.00    -0.228 NA
ATOM     16  C   UNL     1       0.053  -4.248  -1.606  0.00  0.00    +0.141 A 
ATOM     17  N   UNL     1       0.033  -3.020  -2.212  0.00  0.00    -0.338 N 
ATOM     18  H   UNL     1       0.026  -2.850  -3.167  0.00  0.00    +0.167 HD
ENDBRANCH   1  16
BRANCH   4  19
ATOM     19  S   UNL     1       0.110  -9.411  -4.584  0.00  0.00    -0.097 S 
BRANCH  19  20
ATOM     20  C   UNL     1       0.103  -8.888  -6.321  0.00  0.00    +0.172 C 
BRANCH  20  21
ATOM     21  C   UNL     1       0.116 -10.104  -7.211  0.00  0.00    +0.229 C 
ATOM     22  O   UNL     1       0.129 -11.214  -6.723  0.00  0.00    -0.275 OA
ATOM     23  N   UNL     1       0.113  -9.958  -8.551  0.00  0.00    -0.267 N 
ATOM     24  C   UNL     1       0.126 -11.083  -9.376  0.00  0.00    +0.168 A 
ATOM     25  C   UNL     1       0.136 -12.429  -8.946  0.00  0.00    +0.091 A 
ATOM     26  C   UNL     1       0.146 -13.215 -10.037  0.00  0.00    +0.136 A 
ATOM     27  O   UNL     1       0.143 -12.426 -11.122  0.00  0.00    -0.358 OA
ATOM     28  N   UNL     1       0.124 -11.079 -10.684  0.00  0.00    -0.063 NA
ATOM     29  C   UNL     1       0.159 -14.722 -10.040  0.00  0.00    +0.089 C 
ATOM     30  H   UNL     1       0.103  -9.070  -8.942  0.00  0.00    +0.156 HD
ENDBRANCH  20  21
ENDBRANCH  19  20
ENDBRANCH   4  19
TORSDOF 4
