REMARK  Name = ZINC39963434
REMARK  6 active torsions:
REMARK  status: ('A' for Active; 'I' for Inactive)
REMARK    1  A    between atoms: C_3  and  S_28
REMARK    2  A    between atoms: C_6  and  C_7
REMARK    3  A    between atoms: C_10  and  C_12
REMARK    4  A    between atoms: C_13  and  C_14
REMARK    5  A    between atoms: C_13  and  C_16
REMARK    6  A    between atoms: S_28  and  N_31
REMARK                            x       y       z     vdW  Elec       q    Type
REMARK                         _______ _______ _______ _____ _____    ______ ____
ROOT
ATOM      1  C   UNL     1      -1.264  -0.763   0.010  0.00  0.00    +0.136 A 
ATOM      2  C   UNL     1      -1.376  -2.124   0.009  0.00  0.00    +0.050 A 
ATOM      3  C   UNL     1      -2.741  -2.425   0.018  0.00  0.00    +0.050 A 
ATOM      4  C   UNL     1      -3.415  -1.218   0.025  0.00  0.00    +0.130 A 
ATOM      5  O   UNL     1      -2.498  -0.228   0.025  0.00  0.00    -0.455 OA
ENDROOT
BRANCH   1  11
ATOM      6  C   UNL     1      -0.017   1.393   0.010  0.00  0.00    +0.013 A 
ATOM      7  C   UNL     1       1.170   2.095   0.002  0.00  0.00    +0.029 A 
ATOM      8  C   UNL     1       2.378   1.420  -0.013  0.00  0.00    +0.105 A 
ATOM      9  C   UNL     1       2.404   0.036  -0.021  0.00  0.00    +0.029 A 
ATOM     10  C   UNL     1       1.225  -0.679  -0.014  0.00  0.00    +0.013 A 
ATOM     11  C   UNL     1       0.002  -0.004   0.002  0.00  0.00    +0.017 A 
BRANCH   8  12
ATOM     12  S   UNL     1       3.889   2.325  -0.023  0.00  0.00    +0.056 S 
ATOM     13  O   UNL     1       4.872   1.469  -0.587  0.00  0.00    -0.153 OA
ATOM     14  O   UNL     1       3.592   3.605  -0.564  0.00  0.00    -0.153 OA
BRANCH  12  15
ATOM     15  N   UNL     1       4.324   2.569   1.557  0.00  0.00    -0.204 NA
ATOM     16  H   UNL     1       3.765   2.226   2.272  0.00  0.00    +0.144 HD
ATOM     17  H   UNL     1       5.137   3.054   1.766  0.00  0.00    +0.144 HD
ENDBRANCH  12  15
ENDBRANCH   8  12
ENDBRANCH   1  11
BRANCH   4  18
ATOM     18  C   UNL     1      -4.820  -1.051   0.034  0.00  0.00    +0.064 C 
ATOM     19  C   UNL     1      -5.354   0.196   0.039  0.00  0.00    +0.071 C 
BRANCH  19  20
ATOM     20  C   UNL     1      -6.851   0.375   0.050  0.00  0.00    +0.216 C 
ATOM     21  N   UNL     1      -7.258   1.127   1.254  0.00  0.00    -0.265 NA
ATOM     22  C   UNL     1      -7.748   2.411   0.743  0.00  0.00    +0.223 C 
ATOM     23  C   UNL     1      -7.802   2.259  -0.767  0.00  0.00    +0.078 C 
ATOM     24  N   UNL     1      -7.267   1.153  -1.121  0.00  0.00    -0.260 NA
ATOM     25  C   UNL     1      -8.505   3.271  -1.582  0.00  0.00    +0.043 C 
ATOM     26  C   UNL     1      -9.567   3.838  -0.932  0.00  0.00    +0.037 C 
ATOM     27  C   UNL     1      -9.915   3.373   0.414  0.00  0.00    +0.122 C 
ATOM     28  N   UNL     1      -9.095   2.737   1.206  0.00  0.00    -0.265 NA
ATOM     29 BR   UNL     1     -10.575   5.207  -1.761  0.00  0.00    -0.049 Br
ATOM     30  H   UNL     1      -7.982   0.638   1.758  0.00  0.00    +0.127 HD
ENDBRANCH  19  20
BRANCH  19  31
ATOM     31  C   UNL     1      -4.497   1.343   0.035  0.00  0.00    +0.098 C 
ATOM     32  N   UNL     1      -3.816   2.253   0.032  0.00  0.00    -0.191 NA
ENDBRANCH  19  31
ENDBRANCH   4  18
TORSDOF 6
