REMARK  Name = ZINC67611747
REMARK  10 active torsions:
REMARK  status: ('A' for Active; 'I' for Inactive)
REMARK    1  A    between atoms: C_1  and  C_2
REMARK    2  A    between atoms: N_5  and  C_8
REMARK    3  A    between atoms: C_8  and  C_9
REMARK    4  A    between atoms: C_9  and  C_11
REMARK    5  A    between atoms: C_9  and  O_28
REMARK    6  A    between atoms: C_11  and  N_12
REMARK    7  A    between atoms: N_15  and  C_16
REMARK    8  A    between atoms: C_16  and  C_17
REMARK    9  A    between atoms: C_17  and  C_18
REMARK   10  A    between atoms: C_18  and  C_19
REMARK                            x       y       z     vdW  Elec       q    Type
REMARK                         _______ _______ _______ _____ _____    ______ ____
ROOT
ATOM      1  N   UNL     1       0.526  -6.331   4.079  0.00  0.00    -0.297 N 
ATOM      2  C   UNL     1       0.687  -7.641   4.351  0.00  0.00    +0.300 C 
ATOM      3  O   UNL     1       0.343  -8.477   3.538  0.00  0.00    -0.253 OA
ATOM      4  N   UNL     1       1.230  -8.024   5.523  0.00  0.00    -0.299 N 
ATOM      5  H   UNL     1       0.800  -5.664   4.727  0.00  0.00    +0.150 HD
ATOM      6  H   UNL     1       1.505  -7.357   6.171  0.00  0.00    +0.150 HD
ENDROOT
BRANCH   1   7
ATOM      7  C   UNL     1      -0.065  -5.914   2.804  0.00  0.00    +0.135 C 
BRANCH   7   8
ATOM      8  C   UNL     1      -0.134  -4.387   2.750  0.00  0.00    +0.115 C 
BRANCH   8   9
ATOM      9  O   UNL     1      -0.941  -3.908   3.828  0.00  0.00    -0.392 OA
ATOM     10  H   UNL     1      -1.850  -4.235   3.814  0.00  0.00    +0.210 HD
ENDBRANCH   8   9
BRANCH   8  11
ATOM     11  C   UNL     1      -0.750  -3.952   1.419  0.00  0.00    -0.046 C 
BRANCH  11  16
ATOM     12  C   UNL     1      -0.019   1.526   0.010  0.00  0.00    +0.007 C 
ATOM     13  C   UNL     1       0.002  -0.004   0.002  0.00  0.00    -0.018 C 
ATOM     14  C   UNL     1      -1.434  -0.536   0.023  0.00  0.00    -0.016 C 
ATOM     15  C   UNL     1      -1.405  -2.064   0.095  0.00  0.00    -0.078 C 
ATOM     16  N   UNL     1      -0.707  -2.487   1.315  0.00  0.00    +0.381 N 
ATOM     17  C   UNL     1       0.691  -2.042   1.269  0.00  0.00    -0.078 C 
ATOM     18  C   UNL     1       0.743  -0.513   1.242  0.00  0.00    -0.016 C 
ATOM     19  H   UNL     1      -1.162  -2.082   2.119  0.00  0.00    -0.082 HD
ENDBRANCH  11  16
ENDBRANCH   8  11
ENDBRANCH   7   8
ENDBRANCH   1   7
BRANCH   4  20
ATOM     20  C   UNL     1       1.405  -9.449   5.818  0.00  0.00    +0.106 C 
BRANCH  20  21
ATOM     21  C   UNL     1       2.038  -9.608   7.202  0.00  0.00    +0.025 C 
BRANCH  21  22
ATOM     22  C   UNL     1       2.221 -11.096   7.511  0.00  0.00    +0.064 C 
BRANCH  22  23
ATOM     23  C   UNL     1       2.844 -11.253   8.874  0.00  0.00    +0.080 A 
ATOM     24  N   UNL     1       2.237 -11.370  10.019  0.00  0.00    -0.244 NA
ATOM     25  C   UNL     1       2.912 -11.506  11.179  0.00  0.00    +0.078 A 
ATOM     26  C   UNL     1       2.429 -11.643  12.497  0.00  0.00    +0.029 A 
ATOM     27  C   UNL     1       3.292 -11.769  13.542  0.00  0.00    +0.002 A 
ATOM     28  C   UNL     1       4.668 -11.768  13.353  0.00  0.00    +0.001 A 
ATOM     29  C   UNL     1       5.179 -11.637  12.075  0.00  0.00    +0.017 A 
ATOM     30  C   UNL     1       4.316 -11.509  11.014  0.00  0.00    +0.039 A 
ATOM     31  S   UNL     1       4.481 -11.326   9.258  0.00  0.00    -0.072 S 
ENDBRANCH  22  23
ENDBRANCH  21  22
ENDBRANCH  20  21
ENDBRANCH   4  20
TORSDOF 9
