REMARK  Name = ZINC04782818
REMARK  5 active torsions:
REMARK  status: ('A' for Active; 'I' for Inactive)
REMARK    1  A    between atoms: C_1  and  C_2
REMARK    2  A    between atoms: C_2  and  C_31
REMARK    3  A    between atoms: C_6  and  C_20
REMARK    4  A    between atoms: C_25  and  O_26
REMARK    5  A    between atoms: O_26  and  C_27
REMARK                            x       y       z     vdW  Elec       q    Type
REMARK                         _______ _______ _______ _____ _____    ______ ____
ROOT
ATOM      1  C   UNL     1      -3.274  -2.544   2.792  0.00  0.00    +0.011 C 
ATOM      2  C   UNL     1      -3.954  -3.070   1.526  0.00  0.00    -0.023 C 
ATOM      3  C   UNL     1      -3.320  -4.401   1.117  0.00  0.00    +0.058 C 
ATOM      4  C   UNL     1      -1.862  -4.191   0.802  0.00  0.00    +0.020 C 
ATOM      5  C   UNL     1      -1.413  -3.015   0.312  0.00  0.00    +0.039 C 
ATOM      6  C   UNL     1       0.051  -2.828   0.006  0.00  0.00    +0.151 C 
ATOM      7  C   UNL     1       0.249  -5.204   0.392  0.00  0.00    +0.166 C 
ATOM      8  N   UNL     1      -0.980  -5.219   1.013  0.00  0.00    -0.292 N 
ATOM      9  N   UNL     1       0.965  -6.376   0.277  0.00  0.00    -0.243 N 
ATOM     10  C   UNL     1       2.198  -6.374  -0.344  0.00  0.00    +0.295 A 
ATOM     11  N   UNL     1       2.775  -5.320  -0.860  0.00  0.00    -0.195 NA
ATOM     12  C   UNL     1       3.977  -5.691  -1.381  0.00  0.00    +0.111 A 
ATOM     13  C   UNL     1       4.996  -5.001  -2.038  0.00  0.00    +0.031 A 
ATOM     14  C   UNL     1       6.118  -5.680  -2.461  0.00  0.00    +0.002 A 
ATOM     15  C   UNL     1       6.239  -7.043  -2.237  0.00  0.00    +0.004 A 
ATOM     16  C   UNL     1       5.237  -7.737  -1.589  0.00  0.00    +0.048 A 
ATOM     17  C   UNL     1       4.103  -7.070  -1.157  0.00  0.00    +0.157 A 
ATOM     18  O   UNL     1       2.979  -7.456  -0.510  0.00  0.00    -0.424 OA
ATOM     19  C   UNL     1      -2.292  -1.944   0.081  0.00  0.00    +0.163 C 
ATOM     20  O   UNL     1      -1.859  -0.902  -0.371  0.00  0.00    -0.292 OA
ATOM     21  C   UNL     1      -3.761  -2.066   0.384  0.00  0.00    +0.086 C 
ATOM     22  C   UNL     1      -5.448  -3.267   1.789  0.00  0.00    +0.011 C 
ATOM     23  H   UNL     1      -1.221  -5.954   1.598  0.00  0.00    +0.154 HD
ATOM     24  H   UNL     1       0.602  -7.203   0.631  0.00  0.00    +0.159 HD
ATOM     25  N   UNL     1       0.823  -4.112  -0.124  0.00  0.00    -0.350 N 
ATOM     26  H   UNL     1       1.740  -4.149  -0.585  0.00  0.00    +0.163 HD
ENDROOT
BRANCH   6  27
ATOM     27  C   UNL     1       0.682  -2.003   1.097  0.00  0.00    +0.021 A 
ATOM     28  C   UNL     1       1.025  -0.686   0.858  0.00  0.00    +0.009 A 
ATOM     29  C   UNL     1       1.604   0.071   1.859  0.00  0.00    +0.001 A 
ATOM     30  C   UNL     1       1.842  -0.487   3.102  0.00  0.00    +0.004 A 
ATOM     31  C   UNL     1       1.496  -1.801   3.348  0.00  0.00    +0.046 A 
ATOM     32  C   UNL     1       0.920  -2.565   2.343  0.00  0.00    +0.126 A 
BRANCH  32  33
ATOM     33  O   UNL     1       0.584  -3.860   2.581  0.00  0.00    -0.495 OA
ATOM     34  C   UNL     1       0.858  -4.373   3.886  0.00  0.00    +0.277 C 
ENDBRANCH  32  33
ENDBRANCH   6  27
TORSDOF 2
