REMARK  Name = ZINC19498023
REMARK  7 active torsions:
REMARK  status: ('A' for Active; 'I' for Inactive)
REMARK    1  A    between atoms: C_1  and  C_2
REMARK    2  A    between atoms: C_7  and  C_12
REMARK    3  A    between atoms: C_12  and  C_14
REMARK    4  A    between atoms: C_12  and  O_31
REMARK    5  A    between atoms: C_14  and  N_15
REMARK    6  A    between atoms: N_18  and  C_21
REMARK    7  A    between atoms: C_21  and  C_22
REMARK                            x       y       z     vdW  Elec       q    Type
REMARK                         _______ _______ _______ _____ _____    ______ ____
ROOT
ATOM      1  N   UNL     1       8.107  -2.696   0.102  0.00  0.00    -0.303 NA
ATOM      2  C   UNL     1       8.396  -1.330   0.559  0.00  0.00    +0.066 C 
ATOM      3  C   UNL     1       7.441  -0.962   1.696  0.00  0.00    -0.063 C 
ATOM      4  N   UNL     1       6.054  -1.074   1.223  0.00  0.00    +0.384 N 
ATOM      5  C   UNL     1       5.765  -2.440   0.767  0.00  0.00    -0.063 C 
ATOM      6  C   UNL     1       6.720  -2.808  -0.371  0.00  0.00    +0.066 C 
ATOM      7  H   UNL     1       5.932  -0.396   0.365  0.00  0.00    -0.081 HD
ENDROOT
BRANCH   1   8
ATOM      8  C   UNL     1       9.054  -3.114  -0.940  0.00  0.00    +0.120 C 
BRANCH   8   9
ATOM      9  C   UNL     1       8.885  -4.611  -1.212  0.00  0.00    +0.158 C 
BRANCH   9  15
ATOM     10  C   UNL     1      12.229  -4.318  -6.891  0.00  0.00    +0.052 C 
ATOM     11  C   UNL     1      11.692  -5.705  -6.529  0.00  0.00    +0.175 C 
ATOM     12  C   UNL     1      10.213  -5.621  -6.083  0.00  0.00    +0.083 C 
ATOM     13  C   UNL     1      10.345  -5.484  -4.579  0.00  0.00    -0.002 A 
ATOM     14  C   UNL     1       9.455  -5.091  -3.604  0.00  0.00    +0.013 A 
ATOM     15  C   UNL     1       9.857  -5.040  -2.281  0.00  0.00    -0.017 A 
ATOM     16  C   UNL     1      11.155  -5.378  -1.944  0.00  0.00    +0.010 A 
ATOM     17  C   UNL     1      12.045  -5.780  -2.917  0.00  0.00    +0.046 A 
ATOM     18  C   UNL     1      11.648  -5.839  -4.251  0.00  0.00    +0.124 A 
ATOM     19  O   UNL     1      12.349  -6.214  -5.356  0.00  0.00    -0.488 OA
ENDBRANCH   9  15
BRANCH   9  20
ATOM     20  O   UNL     1       9.142  -5.345  -0.013  0.00  0.00    -0.386 OA
ATOM     21  H   UNL     1       8.528  -5.166   0.883  0.00  0.00    +0.210 HD
ENDBRANCH   9  20
ENDBRANCH   8   9
ENDBRANCH   1   8
BRANCH   4  22
ATOM     22  C   UNL     1       5.107  -0.655   2.265  0.00  0.00    -0.043 C 
BRANCH  22  23
ATOM     23  C   UNL     1       3.725  -0.548   1.674  0.00  0.00    -0.060 A 
ATOM     24  C   UNL     1       2.885  -1.646   1.677  0.00  0.00    +0.005 A 
ATOM     25  C   UNL     1       1.617  -1.553   1.135  0.00  0.00    +0.050 A 
ATOM     26  C   UNL     1       1.183  -0.356   0.589  0.00  0.00    +0.166 A 
ATOM     27  C   UNL     1       2.028   0.751   0.586  0.00  0.00    +0.166 A 
ATOM     28  C   UNL     1       3.299   0.650   1.130  0.00  0.00    +0.051 A 
ATOM     29  O   UNL     1       1.376   1.797  -0.001  0.00  0.00    -0.453 OA
ATOM     30  C   UNL     1      -0.018   1.436   0.010  0.00  0.00    +0.466 C 
ATOM     31  O   UNL     1       0.002  -0.004   0.002  0.00  0.00    -0.453 OA
ENDBRANCH  22  23
ENDBRANCH   4  22
TORSDOF 6
