REMARK  Name = ZINC61823028
REMARK  3 active torsions:
REMARK  status: ('A' for Active; 'I' for Inactive)
REMARK    1  A    between atoms: N_9  and  S_12
REMARK    2  A    between atoms: S_12  and  C_15
REMARK    3  A    between atoms: C_15  and  C_16
REMARK                            x       y       z     vdW  Elec       q    Type
REMARK                         _______ _______ _______ _____ _____    ______ ____
ROOT
ATOM      1  S   UNL     1       4.721  -3.579   1.201  0.00  0.00    +0.032 S 
ATOM      2  O   UNL     1       4.612  -4.277   2.434  0.00  0.00    -0.158 OA
ATOM      3  O   UNL     1       4.594  -4.268  -0.035  0.00  0.00    -0.158 OA
ENDROOT
BRANCH   1  12
ATOM      4  C   UNL     1      -0.019   1.526   0.010  0.00  0.00    +0.000 C 
ATOM      5  C   UNL     1       1.417   2.055  -0.000  0.00  0.00    +0.001 C 
ATOM      6  C   UNL     1       2.156   1.548   1.240  0.00  0.00    +0.007 C 
ATOM      7  C   UNL     1       2.177   0.018   1.233  0.00  0.00    -0.027 C 
ATOM      8  C   UNL     1       0.741  -0.511   1.242  0.00  0.00    +0.007 C 
ATOM      9  C   UNL     1       0.002  -0.004   0.002  0.00  0.00    +0.001 C 
ATOM     10  C   UNL     1       2.895  -0.476  -0.025  0.00  0.00    +0.024 C 
ATOM     11  C   UNL     1       2.887  -2.008  -0.044  0.00  0.00    +0.109 C 
ATOM     12  N   UNL     1       3.464  -2.501   1.214  0.00  0.00    -0.181 NA
ATOM     13  C   UNL     1       2.905  -2.018   2.484  0.00  0.00    +0.109 C 
ATOM     14  C   UNL     1       2.914  -0.486   2.476  0.00  0.00    +0.024 C 
ENDBRANCH   1  12
BRANCH   1  15
ATOM     15  C   UNL     1       6.216  -2.553   1.194  0.00  0.00    +0.187 C 
BRANCH  15  16
ATOM     16  C   UNL     1       7.453  -3.454   1.181  0.00  0.00    -0.006 C 
ATOM     17  C   UNL     1       7.518  -4.251   2.487  0.00  0.00    +0.001 C 
ATOM     18  C   UNL     1       8.799  -5.090   2.498  0.00  0.00    -0.019 C 
ATOM     19  C   UNL     1      10.007  -4.168   2.321  0.00  0.00    -0.083 C 
ATOM     20  N   UNL     1       9.899  -3.454   1.043  0.00  0.00    +0.379 N 
ATOM     21  C   UNL     1       8.711  -2.593   1.052  0.00  0.00    -0.078 C 
ATOM     22  H   UNL     1      10.723  -2.888   0.905  0.00  0.00    -0.086 HD
ATOM     23  H   UNL     1       9.823  -4.123   0.291  0.00  0.00    -0.086 HD
ENDBRANCH  15  16
ENDBRANCH   1  15
TORSDOF 3
