REMARK  Name = ZINC08897892
REMARK  7 active torsions:
REMARK  status: ('A' for Active; 'I' for Inactive)
REMARK    1  A    between atoms: C_3  and  C_6
REMARK    2  A    between atoms: C_7  and  C_8
REMARK    3  A    between atoms: N_10  and  C_11
REMARK    4  A    between atoms: C_11  and  N_13
REMARK    5  A    between atoms: N_13  and  C_14
REMARK    6  A    between atoms: C_17  and  N_21
REMARK    7  A    between atoms: C_27  and  C_29
REMARK                            x       y       z     vdW  Elec       q    Type
REMARK                         _______ _______ _______ _____ _____    ______ ____
ROOT
ATOM      1  C   UNL     1       5.906   2.792   1.760  0.00  0.00    +0.034 A 
ATOM      2  C   UNL     1       5.561   1.559   2.296  0.00  0.00    +0.025 A 
ATOM      3  C   UNL     1       4.273   1.081   2.158  0.00  0.00    +0.026 A 
ATOM      4  C   UNL     1       3.322   1.835   1.482  0.00  0.00    +0.048 A 
ATOM      5  C   UNL     1       3.668   3.067   0.942  0.00  0.00    +0.064 A 
ATOM      6  C   UNL     1       4.956   3.547   1.085  0.00  0.00    +0.045 A 
ATOM      7 CL   UNL     1       2.481   4.007   0.092  0.00  0.00    -0.082 Cl
ENDROOT
BRANCH   4   8
ATOM      8  N   UNL     1       2.016   1.351   1.342  0.00  0.00    -0.326 N 
ATOM      9  C   UNL     1       1.938  -0.068   1.714  0.00  0.00    +0.124 C 
ATOM     10  C   UNL     1       0.543  -0.605   1.375  0.00  0.00    +0.127 C 
ATOM     11  N   UNL     1      -0.459   0.262   2.014  0.00  0.00    -0.292 N 
ATOM     12  C   UNL     1      -0.363   1.713   1.799  0.00  0.00    +0.127 C 
ATOM     13  C   UNL     1       1.068   2.159   2.120  0.00  0.00    +0.124 C 
ATOM     14  C   UNL     1      -1.440  -0.261   2.777  0.00  0.00    +0.282 C 
ATOM     15  O   UNL     1      -1.542  -1.468   2.896  0.00  0.00    -0.267 OA
BRANCH  14  16
ATOM     16  C   UNL     1      -2.385   0.625   3.464  0.00  0.00    +0.189 A 
ATOM     17  C   UNL     1      -3.333   0.241   4.369  0.00  0.00    +0.054 A 
ATOM     18  C   UNL     1      -4.006   1.406   4.768  0.00  0.00    +0.042 A 
ATOM     19  C   UNL     1      -3.446   2.438   4.098  0.00  0.00    +0.196 A 
ATOM     20  O   UNL     1      -2.467   1.964   3.318  0.00  0.00    -0.458 OA
ENDBRANCH  14  16
ENDBRANCH   4   8
BRANCH   1  21
ATOM     21  N   UNL     1       7.214   3.276   1.900  0.00  0.00    -0.297 N 
ATOM     22  H   UNL     1       7.364   4.196   2.167  0.00  0.00    +0.154 HD
BRANCH  21  23
ATOM     23  C   UNL     1       8.262   2.462   1.664  0.00  0.00    +0.141 C 
ATOM     24  S   UNL     1       7.999   0.811   1.298  0.00  0.00    -0.018 S 
BRANCH  23  27
ATOM     25  C   UNL     1      10.566   2.135   1.481  0.00  0.00    +0.242 C 
ATOM     26  O   UNL     1      10.379   0.961   1.220  0.00  0.00    -0.270 OA
ATOM     27  N   UNL     1       9.518   2.949   1.717  0.00  0.00    -0.264 N 
ATOM     28  H   UNL     1       9.667   3.885   1.924  0.00  0.00    +0.157 HD
BRANCH  25  30
ATOM     29  C   UNL     1      12.939   1.827   1.298  0.00  0.00    +0.051 C 
ATOM     30  C   UNL     1      11.884   2.646   1.536  0.00  0.00    +0.071 C 
BRANCH  29  33
ATOM     31  C   UNL     1      16.480   2.525   1.291  0.00  0.00    +0.042 A 
ATOM     32  C   UNL     1      15.418   1.621   1.140  0.00  0.00    +0.049 A 
ATOM     33  C   UNL     1      14.258   2.338   1.353  0.00  0.00    +0.128 A 
ATOM     34  O   UNL     1      14.607   3.612   1.629  0.00  0.00    -0.464 OA
ATOM     35  C   UNL     1      15.941   3.728   1.593  0.00  0.00    +0.195 A 
ENDBRANCH  29  33
ENDBRANCH  25  30
ENDBRANCH  23  27
ENDBRANCH  21  23
ENDBRANCH   1  21
TORSDOF 7
