REMARK  Name = ZINC39968061
REMARK  9 active torsions:
REMARK  status: ('A' for Active; 'I' for Inactive)
REMARK    1  A    between atoms: C_1  and  O_2
REMARK    2  A    between atoms: O_2  and  C_3
REMARK    3  A    between atoms: C_8  and  C_13
REMARK    4  A    between atoms: C_13  and  C_34
REMARK    5  A    between atoms: C_14  and  C_15
REMARK    6  A    between atoms: C_18  and  O_22
REMARK    7  A    between atoms: O_22  and  C_23
REMARK    8  A    between atoms: C_23  and  C_24
REMARK    9  A    between atoms: C_27  and  C_30
REMARK                            x       y       z     vdW  Elec       q    Type
REMARK                         _______ _______ _______ _____ _____    ______ ____
ROOT
ATOM      1  C   UNL     1       3.263  -6.400   4.937  0.00  0.00    -0.021 A 
ATOM      2  C   UNL     1       4.103  -5.611   4.143  0.00  0.00    +0.031 A 
ATOM      3  C   UNL     1       5.353  -6.075   3.794  0.00  0.00    +0.085 A 
ATOM      4  C   UNL     1       5.781  -7.324   4.232  0.00  0.00    +0.157 A 
ATOM      5  C   UNL     1       4.950  -8.111   5.021  0.00  0.00    +0.085 A 
ATOM      6  C   UNL     1       3.700  -7.653   5.379  0.00  0.00    +0.031 A 
ATOM      7 CL   UNL     1       5.490  -9.669   5.563  0.00  0.00    -0.080 Cl
ATOM      8 CL   UNL     1       6.396  -5.098   2.808  0.00  0.00    -0.080 Cl
ENDROOT
BRANCH   1  10
ATOM      9  C   UNL     1       1.199  -5.196   4.428  0.00  0.00    +0.072 C 
ATOM     10  C   UNL     1       1.929  -5.909   5.312  0.00  0.00    +0.026 C 
BRANCH   9  16
ATOM     11  C   UNL     1      -0.624  -2.795  -0.291  0.00  0.00    +0.122 A 
ATOM     12  C   UNL     1       0.289  -1.736   0.122  0.00  0.00    +0.048 A 
ATOM     13  C   UNL     1       1.196  -1.921   1.099  0.00  0.00    +0.031 A 
ATOM     14  C   UNL     1       1.282  -3.221   1.781  0.00  0.00    +0.061 A 
ATOM     15  N   UNL     1       2.049  -3.660   2.737  0.00  0.00    -0.359 N 
ATOM     16  C   UNL     1       1.671  -5.053   3.004  0.00  0.00    +0.216 C 
ATOM     17  N   UNL     1       0.579  -5.370   2.076  0.00  0.00    -0.359 N 
ATOM     18  C   UNL     1       0.350  -4.302   1.361  0.00  0.00    +0.064 A 
ATOM     19  C   UNL     1      -0.610  -4.018   0.293  0.00  0.00    +0.073 A 
ATOM     20  H   UNL     1       2.744  -3.158   3.190  0.00  0.00    +0.162 HD
ATOM     21  H   UNL     1       0.113  -6.218   2.007  0.00  0.00    +0.162 HD
BRANCH  11  23
ATOM     22  C   UNL     1      -1.490  -1.243  -1.866  0.00  0.00    +0.277 C 
ATOM     23  O   UNL     1      -1.515  -2.547  -1.282  0.00  0.00    -0.495 OA
ENDBRANCH  11  23
ENDBRANCH   9  16
BRANCH   9  24
ATOM     24  C   UNL     1      -0.023  -4.577   4.844  0.00  0.00    +0.099 C 
ATOM     25  N   UNL     1      -0.993  -4.085   5.174  0.00  0.00    -0.191 NA
ENDBRANCH   9  24
ENDBRANCH   1  10
BRANCH   4  26
ATOM     26  O   UNL     1       7.014  -7.777   3.886  0.00  0.00    -0.484 OA
BRANCH  26  27
ATOM     27  C   UNL     1       8.092  -7.459   4.767  0.00  0.00    +0.264 C 
BRANCH  27  28
ATOM     28  C   UNL     1       9.373  -8.040   4.224  0.00  0.00    -0.010 A 
ATOM     29  C   UNL     1       9.754  -9.320   4.583  0.00  0.00    +0.008 A 
ATOM     30  C   UNL     1      10.925  -9.858   4.090  0.00  0.00    +0.015 A 
ATOM     31  C   UNL     1      11.726  -9.107   3.227  0.00  0.00    +0.063 A 
ATOM     32  C   UNL     1      11.334  -7.814   2.869  0.00  0.00    +0.015 A 
ATOM     33  C   UNL     1      10.158  -7.292   3.365  0.00  0.00    +0.008 A 
BRANCH  31  34
ATOM     34  C   UNL     1      12.979  -9.675   2.696  0.00  0.00    +0.387 C 
ATOM     35  O   UNL     1      13.320 -10.807   3.011  0.00  0.00    -0.241 OA
ATOM     36  O   UNL     1      13.678  -9.015   1.940  0.00  0.00    -0.241 OA
ENDBRANCH  31  34
ENDBRANCH  27  28
ENDBRANCH  26  27
ENDBRANCH   4  26
TORSDOF 8
