REMARK  Name = ZINC03633793
REMARK  7 active torsions:
REMARK  status: ('A' for Active; 'I' for Inactive)
REMARK    1  A    between atoms: C_1  and  C_2
REMARK    2  A    between atoms: C_2  and  O_4
REMARK    3  A    between atoms: O_4  and  C_5
REMARK    4  A    between atoms: C_8  and  C_13
REMARK    5  A    between atoms: C_10  and  O_11
REMARK    6  A    between atoms: O_11  and  C_12
REMARK    7  A    between atoms: C_18  and  C_23
REMARK                            x       y       z     vdW  Elec       q    Type
REMARK                         _______ _______ _______ _____ _____    ______ ____
ROOT
ATOM      1  C   UNL     1       1.277   2.129  -0.006  0.00  0.00    +0.135 C 
ATOM      2  C   UNL     1       2.229   1.407  -0.932  0.00  0.00    +0.023 C 
ATOM      3  C   UNL     1       2.112   0.068  -1.154  0.00  0.00    -0.029 C 
ATOM      4  C   UNL     1       3.210  -0.674  -1.873  0.00  0.00    +0.045 C 
ATOM      5  C   UNL     1       4.532   0.094  -1.804  0.00  0.00    +0.031 C 
ATOM      6  C   UNL     1       4.306   1.503  -2.365  0.00  0.00    +0.088 C 
ATOM      7  C   UNL     1       3.257   2.167  -1.512  0.00  0.00    +0.162 C 
ATOM      8  O   UNL     1       3.303   3.366  -1.329  0.00  0.00    -0.292 OA
ATOM      9  C   UNL     1       0.983  -0.644  -0.676  0.00  0.00    +0.007 A 
ATOM     10  C   UNL     1       0.841  -2.094  -0.798  0.00  0.00    -0.009 A 
ATOM     11  C   UNL     1       1.584  -2.876  -1.684  0.00  0.00    +0.009 A 
ATOM     12  C   UNL     1       1.479  -4.237  -1.664  0.00  0.00    +0.001 A 
ATOM     13  C   UNL     1       0.601  -4.874  -0.793  0.00  0.00    +0.001 A 
ATOM     14  C   UNL     1      -0.197  -4.144   0.034  0.00  0.00    +0.008 A 
ATOM     15  C   UNL     1      -0.138  -2.742   0.003  0.00  0.00    -0.017 A 
ATOM     16  C   UNL     1      -1.071  -1.977   0.729  0.00  0.00    +0.010 A 
ATOM     17  C   UNL     1      -1.026  -0.622   0.703  0.00  0.00    +0.024 A 
ATOM     18  C   UNL     1      -0.030   0.058  -0.002  0.00  0.00    +0.036 A 
ATOM     19  N   UNL     1      -0.017   1.444   0.001  0.00  0.00    -0.332 N 
ATOM     20  H   UNL     1      -0.848   1.947   0.011  0.00  0.00    +0.147 HD
ENDROOT
BRANCH   1  24
ATOM     21  C   UNL     1       2.891   2.157   3.954  0.00  0.00    +0.173 A 
ATOM     22  C   UNL     1       2.244   1.029   3.475  0.00  0.00    +0.050 A 
ATOM     23  C   UNL     1       1.718   1.025   2.196  0.00  0.00    +0.009 A 
ATOM     24  C   UNL     1       1.846   2.141   1.389  0.00  0.00    -0.019 A 
ATOM     25  C   UNL     1       2.490   3.269   1.861  0.00  0.00    +0.055 A 
ATOM     26  C   UNL     1       3.015   3.282   3.144  0.00  0.00    +0.163 A 
BRANCH  26  27
ATOM     27  O   UNL     1       3.649   4.391   3.610  0.00  0.00    -0.491 OA
ATOM     28  C   UNL     1       3.739   5.508   2.723  0.00  0.00    +0.277 C 
ENDBRANCH  26  27
BRANCH  21  29
ATOM     29  O   UNL     1       3.404   2.165   5.214  0.00  0.00    -0.422 OA
BRANCH  29  31
ATOM     30  C   UNL     1       3.221   2.909   7.561  0.00  0.00    +0.136 C 
ATOM     31  C   UNL     1       2.666   2.754   6.169  0.00  0.00    +0.309 C 
ATOM     32  O   UNL     1       1.557   3.159   5.911  0.00  0.00    -0.251 OA
ENDBRANCH  29  31
ENDBRANCH  21  29
ENDBRANCH   1  24
BRANCH   5  33
ATOM     33  C   UNL     1       5.576  -0.617  -2.625  0.00  0.00    -0.044 A 
ATOM     34  C   UNL     1       5.374  -0.815  -3.978  0.00  0.00    +0.004 A 
ATOM     35  C   UNL     1       6.334  -1.463  -4.733  0.00  0.00    +0.000 A 
ATOM     36  C   UNL     1       7.492  -1.921  -4.132  0.00  0.00    +0.000 A 
ATOM     37  C   UNL     1       7.691  -1.728  -2.778  0.00  0.00    +0.000 A 
ATOM     38  C   UNL     1       6.733  -1.075  -2.025  0.00  0.00    +0.004 A 
ENDBRANCH   5  33
TORSDOF 5
