REMARK  Name = ZINC61919789
REMARK  7 active torsions:
REMARK  status: ('A' for Active; 'I' for Inactive)
REMARK    1  A    between atoms: C_1  and  C_2
REMARK    2  A    between atoms: C_2  and  C_3
REMARK    3  A    between atoms: C_6  and  C_9
REMARK    4  A    between atoms: C_9  and  C_11
REMARK    5  A    between atoms: C_11  and  C_13
REMARK    6  A    between atoms: C_11  and  N_14
REMARK    7  A    between atoms: C_19  and  C_22
REMARK                            x       y       z     vdW  Elec       q    Type
REMARK                         _______ _______ _______ _____ _____    ______ ____
ROOT
ATOM      1  C   UNL     1      -6.108  -2.255  -1.257  0.00  0.00    +0.001 C 
ATOM      2  C   UNL     1      -6.532  -0.923  -1.880  0.00  0.00    -0.005 C 
ENDROOT
BRANCH   1   3
ATOM      3  N   UNL     1      -7.298  -3.078  -1.004  0.00  0.00    +0.388 N 
ATOM      4  C   UNL     1      -6.880  -4.322  -0.329  0.00  0.00    -0.076 C 
ATOM      5  C   UNL     1      -8.065  -4.910   0.398  0.00  0.00    +0.009 C 
ATOM      6  C   UNL     1      -8.827  -5.915  -0.482  0.00  0.00    +0.158 C 
ATOM      7  O   UNL     1      -8.955  -5.463  -1.845  0.00  0.00    -0.379 OA
ATOM      8  C   UNL     1      -9.262  -4.103  -2.028  0.00  0.00    +0.099 C 
ATOM      9  C   UNL     1      -7.954  -3.311  -2.221  0.00  0.00    -0.046 C 
ATOM     10  C   UNL     1     -10.147  -3.941  -3.266  0.00  0.00    +0.036 C 
ATOM     11  H   UNL     1      -7.919  -2.571  -0.391  0.00  0.00    -0.081 HD
ENDBRANCH   1   3
BRANCH   1  12
ATOM     12  C   UNL     1      -5.391  -1.995   0.043  0.00  0.00    +0.150 C 
ATOM     13  O   UNL     1      -5.951  -2.207   1.097  0.00  0.00    -0.294 OA
BRANCH  12  17
ATOM     14  C   UNL     1      -1.412  -0.526   0.013  0.00  0.00    -0.048 A 
ATOM     15  C   UNL     1      -2.048  -0.765   1.218  0.00  0.00    +0.004 A 
ATOM     16  C   UNL     1      -3.341  -1.243   1.236  0.00  0.00    +0.011 A 
ATOM     17  C   UNL     1      -4.010  -1.485   0.032  0.00  0.00    +0.016 A 
ATOM     18  C   UNL     1      -3.361  -1.240  -1.182  0.00  0.00    +0.011 A 
ATOM     19  C   UNL     1      -2.069  -0.757  -1.183  0.00  0.00    +0.004 A 
BRANCH  14  21
ATOM     20  C   UNL     1      -0.019   1.526   0.010  0.00  0.00    +0.009 C 
ATOM     21  C   UNL     1       0.002  -0.004   0.002  0.00  0.00    +0.032 C 
ENDBRANCH  14  21
ENDBRANCH  12  17
ENDBRANCH   1  12
TORSDOF 4
