REMARK  Name = ZINC14969563
REMARK  8 active torsions:
REMARK  status: ('A' for Active; 'I' for Inactive)
REMARK    1  A    between atoms: C_1  and  C_2
REMARK    2  A    between atoms: C_4  and  C_36
REMARK    3  A    between atoms: C_7  and  C_8
REMARK    4  A    between atoms: C_13  and  C_16
REMARK    5  A    between atoms: C_16  and  C_30
REMARK    6  A    between atoms: N_19  and  C_23
REMARK    7  A    between atoms: C_23  and  C_24
REMARK    8  A    between atoms: C_24  and  C_25
REMARK                            x       y       z     vdW  Elec       q    Type
REMARK                         _______ _______ _______ _____ _____    ______ ____
ROOT
ATOM      1  C   UNL     1       5.873   5.372  -1.859  0.00  0.00    +0.142 C 
ATOM      2  C   UNL     1       7.384   5.482  -1.871  0.00  0.00    +0.251 C 
ATOM      3  O   UNL     1       8.099   5.853  -0.965  0.00  0.00    -0.272 OA
ATOM      4  N   UNL     1       7.768   5.083  -3.100  0.00  0.00    -0.224 N 
ATOM      5  C   UNL     1       6.720   4.740  -3.858  0.00  0.00    +0.310 C 
ATOM      6  O   UNL     1       6.814   4.348  -5.004  0.00  0.00    -0.252 OA
ATOM      7  N   UNL     1       5.550   4.878  -3.208  0.00  0.00    -0.281 N 
ATOM      8  H   UNL     1       4.666   4.689  -3.560  0.00  0.00    +0.152 HD
ENDROOT
BRANCH   1  14
ATOM      9  C   UNL     1       3.579   0.779  -0.029  0.00  0.00    +0.263 C 
ATOM     10  O   UNL     1       2.366   0.738  -0.120  0.00  0.00    -0.268 OA
ATOM     11  N   UNL     1       4.207   1.966   0.073  0.00  0.00    -0.296 N 
ATOM     12  C   UNL     1       3.438   3.212   0.194  0.00  0.00    +0.108 C 
ATOM     13  C   UNL     1       3.898   4.187  -0.889  0.00  0.00    +0.025 C 
ATOM     14  C   UNL     1       5.415   4.372  -0.795  0.00  0.00    +0.029 C 
ATOM     15  C   UNL     1       6.109   3.029  -1.026  0.00  0.00    +0.025 C 
ATOM     16  C   UNL     1       5.675   2.040   0.061  0.00  0.00    +0.108 C 
BRANCH   9  23
ATOM     17  C   UNL     1       2.906  -1.803  -1.688  0.00  0.00    +0.046 C 
ATOM     18  C   UNL     1       4.072  -1.604  -0.753  0.00  0.00    -0.020 A 
ATOM     19  C   UNL     1       5.067  -2.540  -0.455  0.00  0.00    +0.026 A 
ATOM     20  C   UNL     1       5.923  -1.969   0.426  0.00  0.00    +0.014 A 
ATOM     21  N   UNL     1       5.503  -0.708   0.692  0.00  0.00    -0.354 N 
ATOM     22  H   UNL     1       5.937  -0.082   1.292  0.00  0.00    +0.166 HD
ATOM     23  C   UNL     1       4.356  -0.465  -0.029  0.00  0.00    +0.105 A 
ATOM     24  C   UNL     1       7.142  -2.630   1.018  0.00  0.00    +0.063 C 
ENDBRANCH   9  23
ENDBRANCH   1  14
BRANCH   1  25
ATOM     25  C   UNL     1       5.242   6.721  -1.623  0.00  0.00    +0.003 A 
ATOM     26  C   UNL     1       4.979   7.569  -2.688  0.00  0.00    +0.009 A 
ATOM     27  C   UNL     1       4.398   8.799  -2.425  0.00  0.00    +0.020 A 
ATOM     28  C   UNL     1       4.102   9.138  -1.117  0.00  0.00    +0.111 A 
ATOM     29  N   UNL     1       4.366   8.306  -0.129  0.00  0.00    -0.263 NA
ATOM     30  C   UNL     1       4.913   7.125  -0.344  0.00  0.00    +0.117 A 
ENDBRANCH   1  25
BRANCH   4  31
ATOM     31  C   UNL     1       9.161   5.032  -3.551  0.00  0.00    +0.123 C 
BRANCH  31  32
ATOM     32  C   UNL     1       9.543   6.373  -4.181  0.00  0.00    +0.062 C 
BRANCH  32  33
ATOM     33  C   UNL     1      10.976   6.320  -4.645  0.00  0.00    -0.009 A 
ATOM     34  C   UNL     1      11.470   5.939  -5.848  0.00  0.00    +0.011 A 
ATOM     35  C   UNL     1      12.837   5.973  -6.053  0.00  0.00    +0.008 A 
ATOM     36  C   UNL     1      13.642   6.386  -5.044  0.00  0.00    +0.045 A 
ATOM     37  S   UNL     1      12.462   6.752  -3.755  0.00  0.00    -0.102 S 
ENDBRANCH  32  33
ENDBRANCH  31  32
ENDBRANCH   4  31
TORSDOF 6
