REMARK  Name = ZINC01442109
REMARK  14 active torsions:
REMARK  status: ('A' for Active; 'I' for Inactive)
REMARK    1  A    between atoms: C_1  and  C_2
REMARK    2  A    between atoms: C_2  and  O_3
REMARK    3  A    between atoms: O_3  and  C_4
REMARK    4  A    between atoms: C_4  and  C_6
REMARK    5  A    between atoms: C_7  and  C_40
REMARK    6  A    between atoms: C_11  and  C_13
REMARK    7  A    between atoms: C_15  and  O_23
REMARK    8  A    between atoms: C_16  and  O_21
REMARK    9  A    between atoms: C_17  and  O_19
REMARK   10  A    between atoms: O_19  and  C_20
REMARK   11  A    between atoms: O_21  and  C_22
REMARK   12  A    between atoms: O_23  and  C_24
REMARK   13  A    between atoms: C_28  and  C_30
REMARK   14  A    between atoms: N_32  and  C_33
REMARK                            x       y       z     vdW  Elec       q    Type
REMARK                         _______ _______ _______ _____ _____    ______ ____
ROOT
ATOM      1  C   UNL     1       1.305  -2.341  -2.543  0.00  0.00    +0.083 C 
ATOM      2  C   UNL     1       1.614  -3.668  -2.587  0.00  0.00    +0.053 C 
ATOM      3  N   UNL     1       2.389  -4.161  -3.552  0.00  0.00    -0.230 NA
ATOM      4  C   UNL     1       3.076  -3.370  -4.348  0.00  0.00    +0.169 C 
ATOM      5  N   UNL     1       2.998  -2.004  -4.239  0.00  0.00    -0.235 N 
ATOM      6  C   UNL     1       1.785  -1.422  -3.640  0.00  0.00    +0.153 C 
ATOM      7  C   UNL     1       3.998  -1.213  -4.638  0.00  0.00    +0.247 C 
ATOM      8  O   UNL     1       3.824  -0.011  -4.537  0.00  0.00    -0.270 OA
ATOM      9  C   UNL     1       5.226  -1.630  -5.158  0.00  0.00    +0.088 C 
ATOM     10  C   UNL     1       5.456  -2.890  -5.626  0.00  0.00    +0.086 C 
ATOM     11  S   UNL     1       4.108  -4.039  -5.619  0.00  0.00    -0.048 S 
ATOM     12  C   UNL     1       1.071  -4.591  -1.526  0.00  0.00    +0.066 C 
ENDROOT
BRANCH   6  13
ATOM     13  C   UNL     1       0.713  -1.285  -4.690  0.00  0.00    -0.015 A 
ATOM     14  C   UNL     1       0.544  -2.279  -5.637  0.00  0.00    +0.055 A 
ATOM     15  C   UNL     1      -0.442  -2.156  -6.605  0.00  0.00    +0.165 A 
ATOM     16  C   UNL     1      -1.260  -1.033  -6.622  0.00  0.00    +0.204 A 
ATOM     17  C   UNL     1      -1.088  -0.037  -5.668  0.00  0.00    +0.165 A 
ATOM     18  C   UNL     1      -0.103  -0.170  -4.701  0.00  0.00    +0.055 A 
BRANCH  17  19
ATOM     19  O   UNL     1      -1.886   1.063  -5.681  0.00  0.00    -0.491 OA
ATOM     20  C   UNL     1      -1.652   2.047  -4.671  0.00  0.00    +0.277 C 
ENDBRANCH  17  19
BRANCH  16  21
ATOM     21  O   UNL     1      -2.228  -0.909  -7.571  0.00  0.00    -0.488 OA
ATOM     22  C   UNL     1      -3.517  -1.442  -7.256  0.00  0.00    +0.277 C 
ENDBRANCH  16  21
BRANCH  15  23
ATOM     23  O   UNL     1      -0.606  -3.134  -7.536  0.00  0.00    -0.491 OA
ATOM     24  C   UNL     1       0.271  -4.259  -7.458  0.00  0.00    +0.277 C 
ENDBRANCH  15  23
ENDBRANCH   6  13
BRANCH  10  25
ATOM     25  C   UNL     1       6.787  -3.283  -6.125  0.00  0.00    +0.285 C 
ATOM     26  O   UNL     1       7.802  -2.389  -6.122  0.00  0.00    -0.265 OA
ATOM     27  N   UNL     1       6.986  -4.497  -6.570  0.00  0.00    -0.209 NA
BRANCH  27  28
ATOM     28  C   UNL     1       8.219  -4.862  -7.031  0.00  0.00    +0.068 A 
ATOM     29  C   UNL     1       8.930  -4.011  -7.881  0.00  0.00    +0.029 A 
ATOM     30  C   UNL     1      10.174  -4.385  -8.344  0.00  0.00    +0.022 A 
ATOM     31  C   UNL     1      10.719  -5.602  -7.967  0.00  0.00    +0.041 A 
ATOM     32  C   UNL     1      10.019  -6.451  -7.125  0.00  0.00    +0.022 A 
ATOM     33  C   UNL     1       8.777  -6.086  -6.651  0.00  0.00    +0.029 A 
ATOM     34 CL   UNL     1      12.286  -6.065  -8.554  0.00  0.00    -0.084 Cl
ENDBRANCH  27  28
ENDBRANCH  10  25
BRANCH   1  35
ATOM     35  C   UNL     1       0.538  -1.831  -1.482  0.00  0.00    +0.339 C 
ATOM     36  O   UNL     1       1.071  -1.171  -0.608  0.00  0.00    -0.245 OA
BRANCH  35  37
ATOM     37  O   UNL     1      -0.789  -2.073  -1.432  0.00  0.00    -0.462 OA
BRANCH  37  39
ATOM     38  C   UNL     1      -2.986  -1.900  -0.439  0.00  0.00    +0.048 C 
ATOM     39  C   UNL     1      -1.507  -1.524  -0.325  0.00  0.00    +0.229 C 
ENDBRANCH  37  39
ENDBRANCH  35  37
ENDBRANCH   1  35
TORSDOF 9
