REMARK  Name = ZINC49864536
REMARK  8 active torsions:
REMARK  status: ('A' for Active; 'I' for Inactive)
REMARK    1  A    between atoms: C_1  and  C_2
REMARK    2  A    between atoms: C_2  and  C_3
REMARK    3  A    between atoms: C_3  and  C_5
REMARK    4  A    between atoms: C_3  and  N_6
REMARK    5  A    between atoms: C_9  and  C_10
REMARK    6  A    between atoms: C_10  and  N_11
REMARK    7  A    between atoms: N_11  and  C_12
REMARK    8  A    between atoms: C_13  and  C_14
REMARK                            x       y       z     vdW  Elec       q    Type
REMARK                         _______ _______ _______ _____ _____    ______ ____
ROOT
ATOM      1  N   UNL     1      -0.054  -0.183  -2.650  0.00  0.00    -0.285 N 
ATOM      2  C   UNL     1       0.611   0.631  -3.493  0.00  0.00    +0.263 A 
ATOM      3  O   UNL     1       1.757   0.967  -3.247  0.00  0.00    -0.267 OA
ATOM      4  C   UNL     1      -0.026   1.090  -4.660  0.00  0.00    +0.097 A 
ATOM      5  C   UNL     1      -1.307   0.699  -4.913  0.00  0.00    +0.260 A 
ATOM      6  O   UNL     1      -1.941   1.125  -6.026  0.00  0.00    -0.267 OA
ATOM      7  N   UNL     1      -1.947  -0.131  -4.027  0.00  0.00    -0.302 N 
ATOM      8  C   UNL     1      -1.317  -0.562  -2.919  0.00  0.00    +0.164 A 
ATOM      9  S   UNL     1      -2.135  -1.602  -1.834  0.00  0.00    -0.013 S 
ATOM     10  H   UNL     1      -2.859  -0.411  -4.203  0.00  0.00    +0.171 HD
ENDROOT
BRANCH   1  11
ATOM     11  C   UNL     1       0.605  -0.664  -1.433  0.00  0.00    +0.089 C 
ATOM     12  C   UNL     1       0.989   0.528  -0.555  0.00  0.00    +0.031 C 
BRANCH  11  14
ATOM     13  C   UNL     1       1.474  -2.681  -2.626  0.00  0.00    +0.006 C 
ATOM     14  C   UNL     1       1.865  -1.447  -1.810  0.00  0.00    +0.021 C 
ENDBRANCH  11  14
ENDBRANCH   1  11
BRANCH   4  15
ATOM     15  C   UNL     1       0.699   2.000  -5.618  0.00  0.00    +0.129 C 
BRANCH  15  16
ATOM     16  N   UNL     1       0.561   3.392  -5.170  0.00  0.00    -0.407 NA
ATOM     17  H   UNL     1      -0.416   3.642  -5.142  0.00  0.00    +0.123 HD
ATOM     18  H   UNL     1       0.959   3.489  -4.247  0.00  0.00    +0.123 HD
BRANCH  16  19
ATOM     19  C   UNL     1       1.232   4.237  -6.058  0.00  0.00    +0.050 C 
ATOM     20  C   UNL     1       0.578   5.225  -6.659  0.00  0.00    +0.016 C 
BRANCH  20  21
ATOM     21  C   UNL     1      -0.809   5.529  -6.275  0.00  0.00    -0.050 C 
ATOM     22  C   UNL     1      -1.055   5.811  -5.015  0.00  0.00    -0.023 C 
ATOM     23  C   UNL     1      -2.421   6.131  -4.481  0.00  0.00    +0.027 C 
ATOM     24  C   UNL     1      -3.363   6.495  -5.631  0.00  0.00    +0.004 C 
ATOM     25  C   UNL     1      -3.252   5.413  -6.712  0.00  0.00    +0.005 C 
ATOM     26  C   UNL     1      -1.861   5.504  -7.345  0.00  0.00    +0.035 C 
ENDBRANCH  20  21
ENDBRANCH  16  19
ENDBRANCH  15  16
ENDBRANCH   4  15
TORSDOF 6
