REMARK  Name = ZINC44920731
REMARK  7 active torsions:
REMARK  status: ('A' for Active; 'I' for Inactive)
REMARK    1  A    between atoms: C_1  and  O_2
REMARK    2  A    between atoms: O_2  and  C_3
REMARK    3  A    between atoms: C_3  and  C_4
REMARK    4  A    between atoms: C_5  and  C_28
REMARK    5  A    between atoms: C_9  and  C_15
REMARK    6  A    between atoms: N_17  and  C_18
REMARK    7  A    between atoms: C_23  and  C_24
REMARK                            x       y       z     vdW  Elec       q    Type
REMARK                         _______ _______ _______ _____ _____    ______ ____
ROOT
ATOM      1  C   UNL     1      -1.161  -2.114  -0.014  0.00  0.00    +0.098 A 
ATOM      2  C   UNL     1      -1.079  -2.931  -1.163  0.00  0.00    +0.047 A 
ATOM      3  C   UNL     1      -0.953  -4.226  -0.730  0.00  0.00    +0.132 A 
ATOM      4  N   UNL     1      -0.960  -4.205   0.630  0.00  0.00    -0.237 N 
ATOM      5  N   UNL     1      -1.083  -2.882   1.044  0.00  0.00    -0.171 NA
ATOM      6  C   UNL     1      -0.846  -5.423   1.437  0.00  0.00    +0.204 C 
ATOM      7  C   UNL     1      -1.452  -6.590   0.653  0.00  0.00    +0.132 C 
ATOM      8  C   UNL     1      -1.012  -6.571  -0.783  0.00  0.00    +0.221 C 
ATOM      9  O   UNL     1      -0.811  -7.621  -1.356  0.00  0.00    -0.275 OA
ATOM     10  N   UNL     1      -0.834  -5.409  -1.452  0.00  0.00    -0.270 N 
ATOM     11  H   UNL     1      -0.632  -5.401  -2.401  0.00  0.00    +0.156 HD
ENDROOT
BRANCH   2  12
ATOM     12  C   UNL     1      -1.121  -2.474  -2.574  0.00  0.00    -0.013 A 
ATOM     13  C   UNL     1      -2.183  -2.842  -3.397  0.00  0.00    +0.008 A 
ATOM     14  C   UNL     1      -2.217  -2.414  -4.709  0.00  0.00    +0.001 A 
ATOM     15  C   UNL     1      -1.199  -1.621  -5.207  0.00  0.00    +0.000 A 
ATOM     16  C   UNL     1      -0.142  -1.253  -4.394  0.00  0.00    +0.001 A 
ATOM     17  C   UNL     1      -0.101  -1.670  -3.079  0.00  0.00    +0.008 A 
ENDBRANCH   2  12
BRANCH   6  18
ATOM     18  C   UNL     1       0.606  -5.704   1.726  0.00  0.00    +0.242 C 
ATOM     19  O   UNL     1       1.464  -4.960   1.300  0.00  0.00    -0.273 OA
ATOM     20  N   UNL     1       0.951  -6.782   2.458  0.00  0.00    -0.283 N 
ATOM     21  H   UNL     1       0.264  -7.331   2.866  0.00  0.00    +0.155 HD
BRANCH  20  22
ATOM     22  C   UNL     1       2.301  -7.108   2.629  0.00  0.00    +0.045 A 
ATOM     23  C   UNL     1       3.241  -6.697   1.693  0.00  0.00    +0.024 A 
ATOM     24  C   UNL     1       4.572  -7.021   1.865  0.00  0.00    +0.002 A 
ATOM     25  C   UNL     1       4.970  -7.754   2.968  0.00  0.00    +0.001 A 
ATOM     26  C   UNL     1       4.037  -8.165   3.901  0.00  0.00    +0.014 A 
ATOM     27  C   UNL     1       2.705  -7.839   3.739  0.00  0.00    +0.076 A 
BRANCH  27  28
ATOM     28  C   UNL     1       1.689  -8.281   4.761  0.00  0.00    +0.419 C 
ATOM     29  F   UNL     1       2.332  -8.996   5.777  0.00  0.00    -0.166 F 
ATOM     30  F   UNL     1       1.058  -7.159   5.307  0.00  0.00    -0.166 F 
ATOM     31  F   UNL     1       0.736  -9.100   4.146  0.00  0.00    -0.166 F 
ENDBRANCH  27  28
ENDBRANCH  20  22
ENDBRANCH   6  18
BRANCH   1  32
ATOM     32  C   UNL     1      -1.308  -0.615  -0.007  0.00  0.00    +0.217 C 
BRANCH  32  34
ATOM     33  C   UNL     1      -0.039   1.419  -0.000  0.00  0.00    +0.194 C 
ATOM     34  O   UNL     1      -0.013  -0.010  -0.007  0.00  0.00    -0.377 OA
ENDBRANCH  32  34
ENDBRANCH   1  32
TORSDOF 6
