REMARK  Name = ZINC22537250
REMARK  7 active torsions:
REMARK  status: ('A' for Active; 'I' for Inactive)
REMARK    1  A    between atoms: C_1  and  C_2
REMARK    2  A    between atoms: C_5  and  C_9
REMARK    3  A    between atoms: C_12  and  C_14
REMARK    4  A    between atoms: C_15  and  C_16
REMARK    5  A    between atoms: N_18  and  C_19
REMARK    6  A    between atoms: C_19  and  N_21
REMARK    7  A    between atoms: N_21  and  C_22
REMARK                            x       y       z     vdW  Elec       q    Type
REMARK                         _______ _______ _______ _____ _____    ______ ____
ROOT
ATOM      1  C   UNL     1       0.029  -8.365  -3.839  0.00  0.00    +0.242 C 
ATOM      2  O   UNL     1       0.002  -9.496  -3.390  0.00  0.00    -0.270 OA
ATOM      3  N   UNL     1       0.069  -8.169  -5.172  0.00  0.00    -0.264 N 
ATOM      4  H   UNL     1       0.090  -7.268  -5.530  0.00  0.00    +0.157 HD
ENDROOT
BRANCH   1   6
ATOM      5  C   UNL     1      -0.021  -7.453  -1.619  0.00  0.00    +0.051 C 
ATOM      6  C   UNL     1       0.019  -7.256  -2.963  0.00  0.00    +0.071 C 
BRANCH   5  10
ATOM      7  C   UNL     1      -0.022  -4.271  -0.010  0.00  0.00    +0.136 A 
ATOM      8  C   UNL     1      -0.064  -5.085   1.099  0.00  0.00    +0.050 A 
ATOM      9  C   UNL     1      -0.069  -6.404   0.638  0.00  0.00    +0.050 A 
ATOM     10  C   UNL     1      -0.030  -6.345  -0.742  0.00  0.00    +0.129 A 
ATOM     11  O   UNL     1      -0.007  -5.046  -1.109  0.00  0.00    -0.455 OA
BRANCH   7  16
ATOM     12  C   UNL     1       0.052   1.482   0.041  0.00  0.00    +0.045 C 
ATOM     13  C   UNL     1       0.033  -0.025   0.028  0.00  0.00    -0.032 A 
ATOM     14  C   UNL     1       0.052  -0.704  -1.178  0.00  0.00    +0.005 A 
ATOM     15  C   UNL     1       0.035  -2.083  -1.198  0.00  0.00    +0.012 A 
ATOM     16  C   UNL     1      -0.002  -2.795   0.004  0.00  0.00    +0.019 A 
ATOM     17  C   UNL     1      -0.022  -2.105   1.218  0.00  0.00    +0.031 A 
ATOM     18  C   UNL     1       0.001  -0.724   1.223  0.00  0.00    +0.045 A 
ATOM     19 CL   UNL     1      -0.017   0.137   2.730  0.00  0.00    -0.083 Cl
ENDBRANCH   7  16
ENDBRANCH   5  10
ENDBRANCH   1   6
BRANCH   3  20
ATOM     20  C   UNL     1       0.078  -9.226  -6.008  0.00  0.00    +0.137 C 
ATOM     21  S   UNL     1       0.039 -10.817  -5.377  0.00  0.00    -0.018 S 
BRANCH  20  22
ATOM     22  N   UNL     1       0.117  -9.031  -7.341  0.00  0.00    -0.321 N 
ATOM     23  H   UNL     1       0.063  -8.132  -7.701  0.00  0.00    +0.148 HD
BRANCH  22  24
ATOM     24  C   UNL     1       0.243 -10.177  -8.246  0.00  0.00    +0.034 C 
ATOM     25  C   UNL     1       0.336  -9.679  -9.689  0.00  0.00    +0.029 C 
ATOM     26  C   UNL     1       0.467 -10.875 -10.634  0.00  0.00    -0.008 C 
ATOM     27  C   UNL     1      -0.758 -11.779 -10.485  0.00  0.00    +0.007 C 
ATOM     28  C   UNL     1      -0.852 -12.277  -9.041  0.00  0.00    -0.008 C 
ATOM     29  C   UNL     1      -0.983 -11.081  -8.097  0.00  0.00    +0.029 C 
ATOM     30  C   UNL     1       0.411 -13.067  -8.692  0.00  0.00    +0.007 C 
ATOM     31  C   UNL     1       1.636 -12.163  -8.841  0.00  0.00    -0.008 C 
ATOM     32  C   UNL     1       1.730 -11.665 -10.284  0.00  0.00    +0.007 C 
ATOM     33  C   UNL     1       1.505 -10.967  -7.896  0.00  0.00    +0.029 C 
ENDBRANCH  22  24
ENDBRANCH  20  22
ENDBRANCH   3  20
TORSDOF 6
