REMARK  Name = ZINC40729570
REMARK  6 active torsions:
REMARK  status: ('A' for Active; 'I' for Inactive)
REMARK    1  A    between atoms: C_4  and  C_7
REMARK    2  A    between atoms: C_7  and  C_8
REMARK    3  A    between atoms: C_15  and  N_29
REMARK    4  A    between atoms: C_16  and  N_20
REMARK    5  A    between atoms: N_20  and  C_21
REMARK    6  A    between atoms: C_21  and  C_22
REMARK                            x       y       z     vdW  Elec       q    Type
REMARK                         _______ _______ _______ _____ _____    ______ ____
ROOT
ATOM      1  C   UNL     1       4.249  -0.959   1.370  0.00  0.00    -0.004 C 
ATOM      2  C   UNL     1       3.244  -1.877   2.072  0.00  0.00    +0.023 C 
ATOM      3  C   UNL     1       3.689  -2.101   3.520  0.00  0.00    +0.107 C 
ATOM      4  N   UNL     1       5.069  -2.606   3.518  0.00  0.00    -0.314 N 
ATOM      5  C   UNL     1       6.098  -1.847   2.795  0.00  0.00    +0.107 C 
ATOM      6  C   UNL     1       5.627  -1.625   1.355  0.00  0.00    +0.023 C 
ATOM      7  C   UNL     1       5.395  -3.779   4.189  0.00  0.00    +0.147 A 
ATOM      8  C   UNL     1       5.864  -3.738   5.503  0.00  0.00    +0.105 A 
ATOM      9  C   UNL     1       6.176  -4.945   6.130  0.00  0.00    +0.145 A 
ATOM     10  N   UNL     1       6.015  -6.082   5.455  0.00  0.00    -0.219 NA
ATOM     11  C   UNL     1       5.569  -6.077   4.216  0.00  0.00    +0.225 A 
ATOM     12  N   UNL     1       5.259  -4.960   3.589  0.00  0.00    -0.219 NA
ENDROOT
BRANCH   8  13
ATOM     13  N   UNL     1       6.018  -2.515   6.176  0.00  0.00    -0.353 N 
ATOM     14  H   UNL     1       5.714  -1.692   5.762  0.00  0.00    +0.143 HD
ATOM     15  H   UNL     1       6.429  -2.493   7.054  0.00  0.00    +0.143 HD
ENDBRANCH   8  13
BRANCH   9  16
ATOM     16  N   UNL     1       6.647  -4.961   7.437  0.00  0.00    -0.323 N 
ATOM     17  H   UNL     1       6.761  -4.128   7.921  0.00  0.00    +0.148 HD
BRANCH  16  18
ATOM     18  C   UNL     1       6.970  -6.235   8.084  0.00  0.00    +0.139 C 
BRANCH  18  19
ATOM     19  C   UNL     1       7.456  -5.977   9.487  0.00  0.00    -0.012 A 
ATOM     20  C   UNL     1       8.811  -5.978   9.760  0.00  0.00    +0.006 A 
ATOM     21  C   UNL     1       9.257  -5.741  11.047  0.00  0.00    +0.000 A 
ATOM     22  C   UNL     1       8.348  -5.503  12.061  0.00  0.00    +0.001 A 
ATOM     23  C   UNL     1       6.993  -5.502  11.789  0.00  0.00    +0.020 A 
ATOM     24  C   UNL     1       6.546  -5.733  10.500  0.00  0.00    +0.046 A 
ATOM     25 CL   UNL     1       4.845  -5.725  10.156  0.00  0.00    -0.083 Cl
ENDBRANCH  18  19
ENDBRANCH  16  18
ENDBRANCH   9  16
BRANCH   1  26
ATOM     26  C   UNL     1       3.789  -0.705  -0.067  0.00  0.00    +0.038 C 
BRANCH  26  30
ATOM     27  C   UNL     1       0.110   1.464  -0.025  0.00  0.00    +0.000 A 
ATOM     28  C   UNL     1       1.313   2.144  -0.043  0.00  0.00    +0.000 A 
ATOM     29  C   UNL     1       2.503   1.442  -0.056  0.00  0.00    +0.003 A 
ATOM     30  C   UNL     1       2.491   0.060  -0.052  0.00  0.00    -0.047 A 
ATOM     31  C   UNL     1       1.288  -0.620  -0.033  0.00  0.00    +0.003 A 
ATOM     32  C   UNL     1       0.097   0.082  -0.021  0.00  0.00    +0.000 A 
ENDBRANCH  26  30
ENDBRANCH   1  26
TORSDOF 6
