REMARK  Name = ZINC04038096
REMARK  5 active torsions:
REMARK  status: ('A' for Active; 'I' for Inactive)
REMARK    1  A    between atoms: C_1  and  C_2
REMARK    2  A    between atoms: C_2  and  C_29
REMARK    3  A    between atoms: C_12  and  C_14
REMARK    4  A    between atoms: C_24  and  O_27
REMARK    5  A    between atoms: O_27  and  C_28
REMARK                            x       y       z     vdW  Elec       q    Type
REMARK                         _______ _______ _______ _____ _____    ______ ____
ROOT
ATOM      1  C   UNL     1       5.333   8.935   1.041  0.00  0.00    +0.041 C 
ATOM      2  C   UNL     1       3.865   9.326   0.863  0.00  0.00    +0.069 C 
ATOM      3  C   UNL     1       3.018   8.063   0.682  0.00  0.00    +0.104 C 
ATOM      4  C   UNL     1       1.564   8.464   0.434  0.00  0.00    +0.198 C 
ATOM      5  C   UNL     1       1.486   9.396  -0.774  0.00  0.00    +0.098 C 
ATOM      6  C   UNL     1       2.395  10.606  -0.536  0.00  0.00    +0.166 C 
ATOM      7  O   UNL     1       3.729  10.156  -0.292  0.00  0.00    -0.374 OA
ATOM      8  N   UNL     1       0.749   7.269   0.200  0.00  0.00    -0.206 N 
ATOM      9  C   UNL     1      -0.721   7.371   0.049  0.00  0.00    +0.136 C 
ATOM     10  C   UNL     1      -1.185   5.923   0.258  0.00  0.00    +0.086 C 
ATOM     11  C   UNL     1       0.102   5.125   0.220  0.00  0.00    +0.068 C 
ATOM     12  N   UNL     1       1.110   5.934   0.176  0.00  0.00    -0.185 NA
ATOM     13  C   UNL     1      -1.201   8.281   1.149  0.00  0.00    +0.020 A 
ATOM     14  C   UNL     1      -2.545   8.289   1.479  0.00  0.00    +0.009 A 
ATOM     15  C   UNL     1      -3.016   9.125   2.472  0.00  0.00    +0.004 A 
ATOM     16  C   UNL     1      -2.139   9.962   3.139  0.00  0.00    +0.049 A 
ATOM     17  C   UNL     1      -0.795   9.953   2.818  0.00  0.00    +0.162 A 
ATOM     18  C   UNL     1      -0.309   9.101   1.820  0.00  0.00    +0.170 A 
ATOM     19  O   UNL     1       1.030   9.110   1.590  0.00  0.00    -0.463 OA
ATOM     20  C   UNL     1       3.386  10.089   2.099  0.00  0.00    +0.041 C 
ENDROOT
BRANCH  11  21
ATOM     21  C   UNL     1       0.191   3.653   0.236  0.00  0.00    -0.002 A 
ATOM     22  C   UNL     1       1.438   3.025   0.197  0.00  0.00    +0.010 A 
ATOM     23  C   UNL     1       1.515   1.648   0.212  0.00  0.00    +0.001 A 
ATOM     24  C   UNL     1       0.359   0.889   0.267  0.00  0.00    +0.000 A 
ATOM     25  C   UNL     1      -0.880   1.504   0.301  0.00  0.00    +0.001 A 
ATOM     26  C   UNL     1      -0.971   2.880   0.291  0.00  0.00    +0.010 A 
ENDBRANCH  11  21
BRANCH  17  27
ATOM     27  O   UNL     1       0.061  10.779   3.477  0.00  0.00    -0.491 OA
ATOM     28  C   UNL     1      -0.498  11.624   4.484  0.00  0.00    +0.277 C 
ENDBRANCH  17  27
TORSDOF 2
