REMARK  Name = ZINC02662071
REMARK  9 active torsions:
REMARK  status: ('A' for Active; 'I' for Inactive)
REMARK    1  A    between atoms: C_1  and  C_2
REMARK    2  A    between atoms: C_2  and  N_3
REMARK    3  A    between atoms: N_3  and  C_4
REMARK    4  A    between atoms: C_5  and  N_20
REMARK    5  A    between atoms: N_6  and  C_13
REMARK    6  A    between atoms: C_13  and  C_14
REMARK    7  A    between atoms: C_21  and  C_23
REMARK    8  A    between atoms: C_23  and  N_24
REMARK    9  A    between atoms: C_32  and  C_34
REMARK                            x       y       z     vdW  Elec       q    Type
REMARK                         _______ _______ _______ _____ _____    ______ ____
ROOT
ATOM      1  C   UNL     1       0.450  -0.506  -2.686  0.00  0.00    +0.140 A 
ATOM      2  C   UNL     1       1.055   0.219  -3.692  0.00  0.00    +0.128 A 
ATOM      3  N   UNL     1       0.600   0.086  -4.983  0.00  0.00    -0.276 N 
ATOM      4  C   UNL     1      -0.424  -0.742  -5.262  0.00  0.00    +0.331 A 
ATOM      5  O   UNL     1      -0.812  -0.845  -6.410  0.00  0.00    -0.246 OA
ATOM      6  N   UNL     1      -1.026  -1.456  -4.294  0.00  0.00    -0.273 N 
ATOM      7  H   UNL     1      -1.788  -2.060  -4.527  0.00  0.00    +0.173 HD
ATOM      8  C   UNL     1      -0.615  -1.366  -3.014  0.00  0.00    +0.277 A 
ATOM      9  O   UNL     1      -1.165  -2.021  -2.146  0.00  0.00    -0.266 OA
ENDROOT
BRANCH   1  10
ATOM     10  N   UNL     1       0.894  -0.391  -1.352  0.00  0.00    -0.263 N 
ATOM     11  C   UNL     1       2.134  -0.803  -1.016  0.00  0.00    +0.237 C 
ATOM     12  O   UNL     1       2.900  -1.185  -1.876  0.00  0.00    -0.274 OA
BRANCH  10  14
ATOM     13  C   UNL     1       0.296   1.671  -0.180  0.00  0.00    +0.025 C 
ATOM     14  C   UNL     1       0.009   0.176  -0.331  0.00  0.00    +0.110 C 
ENDBRANCH  10  14
BRANCH  11  15
ATOM     15  C   UNL     1       2.568  -0.789   0.427  0.00  0.00    +0.201 C 
BRANCH  15  16
ATOM     16  N   UNL     1       3.897  -1.405   0.545  0.00  0.00    -0.318 N 
ATOM     17  C   UNL     1       4.391  -1.286   1.850  0.00  0.00    +0.034 A 
ATOM     18  C   UNL     1       4.319  -0.216   2.740  0.00  0.00    +0.023 A 
ATOM     19  C   UNL     1       4.889  -0.315   3.992  0.00  0.00    +0.002 A 
ATOM     20  C   UNL     1       5.536  -1.477   4.373  0.00  0.00    +0.000 A 
ATOM     21  C   UNL     1       5.609  -2.544   3.497  0.00  0.00    +0.005 A 
ATOM     22  C   UNL     1       5.038  -2.451   2.245  0.00  0.00    -0.025 A 
ATOM     23  C   UNL     1       4.959  -3.440   1.099  0.00  0.00    +0.059 C 
ATOM     24  C   UNL     1       3.846  -2.844   0.207  0.00  0.00    +0.075 C 
ATOM     25  C   UNL     1       2.483  -3.439   0.569  0.00  0.00    +0.028 C 
ENDBRANCH  15  16
ENDBRANCH  11  15
ENDBRANCH   1  10
BRANCH   2  26
ATOM     26  N   UNL     1       2.101   1.064  -3.408  0.00  0.00    -0.343 N 
ATOM     27  H   UNL     1       2.446   1.121  -2.503  0.00  0.00    +0.144 HD
ATOM     28  H   UNL     1       2.494   1.603  -4.112  0.00  0.00    +0.144 HD
ENDBRANCH   2  26
BRANCH   3  29
ATOM     29  C   UNL     1       1.233   0.849  -6.062  0.00  0.00    +0.163 C 
BRANCH  29  30
ATOM     30  C   UNL     1       2.368   0.046  -6.645  0.00  0.00    -0.028 A 
ATOM     31  C   UNL     1       3.643   0.173  -6.127  0.00  0.00    +0.005 A 
ATOM     32  C   UNL     1       4.682  -0.566  -6.659  0.00  0.00    +0.000 A 
ATOM     33  C   UNL     1       4.449  -1.425  -7.716  0.00  0.00    +0.000 A 
ATOM     34  C   UNL     1       3.175  -1.548  -8.239  0.00  0.00    +0.000 A 
ATOM     35  C   UNL     1       2.134  -0.812  -7.703  0.00  0.00    +0.005 A 
ENDBRANCH  29  30
ENDBRANCH   3  29
TORSDOF 7
