REMARK  Name = ZINC08225702
REMARK  4 active torsions:
REMARK  status: ('A' for Active; 'I' for Inactive)
REMARK    1  A    between atoms: C_1  and  C_2
REMARK    2  A    between atoms: C_2  and  C_3
REMARK    3  A    between atoms: C_6  and  C_9
REMARK    4  A    between atoms: C_11  and  C_14
REMARK                            x       y       z     vdW  Elec       q    Type
REMARK                         _______ _______ _______ _____ _____    ______ ____
ROOT
ATOM      1  C   UNL     1      -2.503   1.007   0.019  0.00  0.00    +0.109 A 
ATOM      2  N   UNL     1      -3.745   1.463   0.033  0.00  0.00    -0.239 NA
ATOM      3  C   UNL     1      -4.778   0.642   0.029  0.00  0.00    +0.079 A 
ATOM      4  C   UNL     1      -4.561  -0.712   0.021  0.00  0.00    +0.075 A 
ATOM      5  S   UNL     1      -2.773  -0.760   0.011  0.00  0.00    -0.075 S 
ENDROOT
BRANCH   3   6
ATOM      6  C   UNL     1      -6.161   1.178   0.039  0.00  0.00    +0.003 A 
ATOM      7  C   UNL     1      -7.245   0.309   0.145  0.00  0.00    +0.014 A 
ATOM      8  C   UNL     1      -8.534   0.805   0.155  0.00  0.00    +0.048 A 
ATOM      9  C   UNL     1      -8.751   2.170   0.060  0.00  0.00    +0.142 A 
ATOM     10  C   UNL     1      -7.670   3.044  -0.047  0.00  0.00    +0.076 A 
ATOM     11  C   UNL     1      -6.377   2.552  -0.052  0.00  0.00    +0.037 A 
ATOM     12  N   UNL     1      -7.910   4.423  -0.144  0.00  0.00    -0.280 N 
ATOM     13  C   UNL     1      -9.130   4.900   0.182  0.00  0.00    +0.255 C 
ATOM     14  O   UNL     1      -9.369   6.084   0.079  0.00  0.00    -0.272 OA
ATOM     15  C   UNL     1     -10.194   3.954   0.678  0.00  0.00    +0.325 C 
ATOM     16  O   UNL     1     -10.016   2.671   0.072  0.00  0.00    -0.481 OA
ATOM     17  H   UNL     1      -7.209   5.025  -0.442  0.00  0.00    +0.155 HD
ENDBRANCH   3   6
BRANCH   1  21
ATOM     18  C   UNL     1       1.155   3.167   0.008  0.00  0.00    -0.048 A 
ATOM     19  C   UNL     1       1.172   1.783   0.000  0.00  0.00    +0.004 A 
ATOM     20  C   UNL     1      -0.013   1.076   0.008  0.00  0.00    +0.011 A 
ATOM     21  C   UNL     1      -1.230   1.759   0.017  0.00  0.00    +0.007 A 
ATOM     22  C   UNL     1      -1.240   3.154   0.030  0.00  0.00    +0.011 A 
ATOM     23  C   UNL     1      -0.048   3.850   0.022  0.00  0.00    +0.004 A 
BRANCH  18  25
ATOM     24  C   UNL     1       2.877   4.200  -1.446  0.00  0.00    +0.009 C 
ATOM     25  C   UNL     1       2.452   3.933  -0.001  0.00  0.00    +0.032 C 
ENDBRANCH  18  25
ENDBRANCH   1  21
TORSDOF 3
