REMARK  Name = ZINC00867321
REMARK  10 active torsions:
REMARK  status: ('A' for Active; 'I' for Inactive)
REMARK    1  A    between atoms: C_1  and  C_2
REMARK    2  A    between atoms: C_2  and  N_3
REMARK    3  A    between atoms: N_3  and  C_4
REMARK    4  A    between atoms: N_3  and  C_6
REMARK    5  A    between atoms: C_4  and  C_5
REMARK    6  A    between atoms: C_9  and  C_12
REMARK    7  A    between atoms: C_17  and  C_32
REMARK    8  A    between atoms: C_29  and  C_31
REMARK    9  A    between atoms: C_35  and  O_38
REMARK   10  A    between atoms: O_38  and  C_39
REMARK                            x       y       z     vdW  Elec       q    Type
REMARK                         _______ _______ _______ _____ _____    ______ ____
ROOT
ATOM      1  C   UNL     1       0.934  -6.250   1.223  0.00  0.00    +0.146 C 
ATOM      2  C   UNL     1       0.935  -6.736   2.653  0.00  0.00    +0.037 C 
ATOM      3  C   UNL     1      -0.299  -6.548   3.321  0.00  0.00    +0.163 C 
ATOM      4  C   UNL     1      -0.517  -6.980   4.740  0.00  0.00    +0.088 C 
ATOM      5  C   UNL     1       0.408  -8.167   5.036  0.00  0.00    +0.032 C 
ATOM      6  C   UNL     1       1.841  -7.724   4.747  0.00  0.00    +0.059 C 
ATOM      7  C   UNL     1       1.970  -7.304   3.292  0.00  0.00    +0.017 C 
ATOM      8  N   UNL     1       3.186  -7.549   2.739  0.00  0.00    -0.316 N 
ATOM      9  C   UNL     1       3.911  -6.636   1.984  0.00  0.00    +0.053 A 
ATOM     10  C   UNL     1       5.132  -6.134   2.401  0.00  0.00    +0.025 A 
ATOM     11  C   UNL     1       5.824  -5.261   1.579  0.00  0.00    +0.002 A 
ATOM     12  C   UNL     1       5.301  -4.897   0.351  0.00  0.00    +0.002 A 
ATOM     13  C   UNL     1       4.073  -5.384  -0.060  0.00  0.00    +0.025 A 
ATOM     14  C   UNL     1       3.368  -6.241   0.770  0.00  0.00    +0.058 A 
ATOM     15  N   UNL     1       2.083  -6.672   0.450  0.00  0.00    -0.258 N 
ATOM     16  C   UNL     1       1.907  -7.495  -0.603  0.00  0.00    +0.218 C 
ATOM     17  O   UNL     1       0.793  -7.875  -0.896  0.00  0.00    -0.276 OA
ATOM     18  C   UNL     1       3.094  -7.942  -1.417  0.00  0.00    +0.110 C 
ATOM     19  O   UNL     1      -1.214  -6.016   2.723  0.00  0.00    -0.292 OA
ATOM     20  H   UNL     1       3.576  -8.425   2.881  0.00  0.00    +0.152 HD
ENDROOT
BRANCH   1  24
ATOM     21  C   UNL     1       0.808  -1.980   1.240  0.00  0.00    +0.013 A 
ATOM     22  C   UNL     1       1.911  -2.641   1.747  0.00  0.00    +0.022 A 
ATOM     23  C   UNL     1       1.952  -4.023   1.742  0.00  0.00    +0.007 A 
ATOM     24  C   UNL     1       0.889  -4.744   1.230  0.00  0.00    -0.022 A 
ATOM     25  C   UNL     1      -0.214  -4.083   0.724  0.00  0.00    +0.007 A 
ATOM     26  C   UNL     1      -0.257  -2.701   0.733  0.00  0.00    +0.022 A 
BRANCH  21  27
ATOM     27  N   UNL     1       0.767  -0.583   1.246  0.00  0.00    -0.394 NA
ATOM     28  H   UNL     1      -0.105  -0.270   0.846  0.00  0.00    +0.126 HD
BRANCH  27  30
ATOM     29  C   UNL     1      -0.363  -0.522   3.417  0.00  0.00    +0.022 C 
ATOM     30  C   UNL     1       0.876  -0.095   2.627  0.00  0.00    +0.081 C 
ENDBRANCH  27  30
BRANCH  27  31
ATOM     31  C   UNL     1       1.885  -0.057   0.451  0.00  0.00    +0.081 C 
ATOM     32  C   UNL     1       1.706  -0.463  -1.013  0.00  0.00    +0.022 C 
ENDBRANCH  27  31
ENDBRANCH  21  27
ENDBRANCH   1  24
BRANCH   5  33
ATOM     33  C   UNL     1       0.277  -8.568   6.483  0.00  0.00    -0.043 A 
ATOM     34  C   UNL     1       0.573  -7.657   7.480  0.00  0.00    +0.007 A 
ATOM     35  C   UNL     1       0.455  -8.022   8.807  0.00  0.00    +0.046 A 
ATOM     36  C   UNL     1       0.038  -9.303   9.139  0.00  0.00    +0.120 A 
ATOM     37  C   UNL     1      -0.258 -10.215   8.136  0.00  0.00    +0.046 A 
ATOM     38  C   UNL     1      -0.143  -9.843   6.811  0.00  0.00    +0.007 A 
BRANCH  36  39
ATOM     39  O   UNL     1      -0.078  -9.664  10.444  0.00  0.00    -0.495 OA
ATOM     40  C   UNL     1      -0.512 -10.999  10.711  0.00  0.00    +0.277 C 
ENDBRANCH  36  39
ENDBRANCH   5  33
TORSDOF 6
