REMARK  Name = ZINC38564332
REMARK  7 active torsions:
REMARK  status: ('A' for Active; 'I' for Inactive)
REMARK    1  A    between atoms: C_1  and  C_2
REMARK    2  A    between atoms: C_7  and  C_8
REMARK    3  A    between atoms: C_10  and  C_22
REMARK    4  A    between atoms: N_24  and  C_25
REMARK    5  A    between atoms: C_25  and  C_26
REMARK    6  A    between atoms: C_26  and  C_28
REMARK    7  A    between atoms: C_26  and  O_34
REMARK                            x       y       z     vdW  Elec       q    Type
REMARK                         _______ _______ _______ _____ _____    ______ ____
ROOT
ATOM      1  C   UNL     1      -0.075   0.172   2.388  0.00  0.00    +0.076 C 
ATOM      2  N   UNL     1      -0.267   1.470   2.325  0.00  0.00    -0.244 NA
ATOM      3  C   UNL     1      -0.186   2.299   3.377  0.00  0.00    +0.126 C 
ATOM      4  C   UNL     1       0.395   1.890   4.579  0.00  0.00    +0.039 C 
ATOM      5  C   UNL     1       0.689   0.538   4.685  0.00  0.00    -0.008 C 
ATOM      6  C   UNL     1       1.509  -0.204   5.491  0.00  0.00    +0.004 A 
ATOM      7  C   UNL     1       2.177   0.099   6.700  0.00  0.00    +0.010 A 
ATOM      8  C   UNL     1       2.972  -0.876   7.227  0.00  0.00    +0.001 A 
ATOM      9  C   UNL     1       3.147  -2.127   6.635  0.00  0.00    +0.002 A 
ATOM     10  C   UNL     1       2.525  -2.508   5.486  0.00  0.00    +0.026 A 
ATOM     11  C   UNL     1       1.657  -1.556   4.879  0.00  0.00    +0.044 A 
ATOM     12  N   UNL     1       0.895  -1.670   3.820  0.00  0.00    -0.372 N 
ATOM     13  C   UNL     1       0.086  -0.473   3.718  0.00  0.00    +0.160 C 
ATOM     14  H   UNL     1       0.873  -2.425   3.212  0.00  0.00    +0.161 HD
ENDROOT
BRANCH   1  21
ATOM     15  C   UNL     1      -2.141  -1.793   1.888  0.00  0.00    +0.044 C 
ATOM     16  C   UNL     1      -1.018  -1.587   0.904  0.00  0.00    -0.042 A 
ATOM     17  C   UNL     1      -0.968  -2.334  -0.254  0.00  0.00    +0.004 A 
ATOM     18  C   UNL     1       0.063  -2.147  -1.159  0.00  0.00    +0.000 A 
ATOM     19  C   UNL     1       1.051  -1.210  -0.910  0.00  0.00    +0.001 A 
ATOM     20  C   UNL     1       1.017  -0.455   0.242  0.00  0.00    +0.010 A 
ATOM     21  C   UNL     1      -0.026  -0.633   1.160  0.00  0.00    +0.002 A 
ENDBRANCH   1  21
BRANCH   3  22
ATOM     22  C   UNL     1      -0.723   3.673   3.260  0.00  0.00    +0.262 C 
ATOM     23  O   UNL     1      -0.656   4.433   4.206  0.00  0.00    -0.269 OA
ATOM     24  N   UNL     1      -1.286   4.081   2.106  0.00  0.00    -0.307 N 
ATOM     25  H   UNL     1      -1.339   3.474   1.351  0.00  0.00    +0.149 HD
BRANCH  24  26
ATOM     26  C   UNL     1      -1.817   5.441   1.990  0.00  0.00    +0.140 C 
BRANCH  26  27
ATOM     27  C   UNL     1      -2.396   5.646   0.589  0.00  0.00    +0.162 C 
BRANCH  27  28
ATOM     28  C   UNL     1      -2.942   7.045   0.470  0.00  0.00    -0.018 A 
ATOM     29  C   UNL     1      -2.102   8.088   0.126  0.00  0.00    +0.006 A 
ATOM     30  C   UNL     1      -2.603   9.371   0.017  0.00  0.00    +0.000 A 
ATOM     31  C   UNL     1      -3.944   9.612   0.252  0.00  0.00    +0.000 A 
ATOM     32  C   UNL     1      -4.784   8.569   0.596  0.00  0.00    +0.000 A 
ATOM     33  C   UNL     1      -4.284   7.285   0.700  0.00  0.00    +0.006 A 
ENDBRANCH  27  28
BRANCH  27  34
ATOM     34  O   UNL     1      -1.367   5.452  -0.384  0.00  0.00    -0.386 OA
ATOM     35  H   UNL     1      -0.620   6.058  -0.293  0.00  0.00    +0.210 HD
ENDBRANCH  27  34
ENDBRANCH  26  27
ENDBRANCH  24  26
ENDBRANCH   3  22
TORSDOF 6
