REMARK  Name = ZINC09542663
REMARK  6 active torsions:
REMARK  status: ('A' for Active; 'I' for Inactive)
REMARK    1  A    between atoms: C_1  and  O_2
REMARK    2  A    between atoms: O_2  and  C_3
REMARK    3  A    between atoms: C_7  and  C_10
REMARK    4  A    between atoms: C_8  and  O_9
REMARK    5  A    between atoms: C_13  and  C_25
REMARK    6  A    between atoms: C_15  and  C_17
REMARK                            x       y       z     vdW  Elec       q    Type
REMARK                         _______ _______ _______ _____ _____    ______ ____
ROOT
ATOM      1  C   UNL     1      -0.013   1.086   0.008  0.00  0.00    -0.028 C 
ATOM      2  C   UNL     1      -0.766   1.599  -1.223  0.00  0.00    +0.044 C 
ATOM      3  C   UNL     1      -2.238   1.342  -1.053  0.00  0.00    +0.040 C 
ATOM      4  N   UNL     1      -2.771   1.051   0.074  0.00  0.00    -0.299 NA
ATOM      5  C   UNL     1      -2.029   0.924   1.322  0.00  0.00    +0.081 C 
ATOM      6  N   UNL     1      -0.712   1.570   1.214  0.00  0.00    +0.401 N 
ATOM      7  H   UNL     1      -0.836   2.587   1.150  0.00  0.00    -0.081 HD
ATOM      8  H   UNL     1      -0.153   1.345   2.045  0.00  0.00    -0.081 HD
ENDROOT
BRANCH   5   9
ATOM      9  C   UNL     1      -1.842  -0.537   1.641  0.00  0.00    -0.039 A 
ATOM     10  C   UNL     1      -0.737  -0.951   2.362  0.00  0.00    +0.006 A 
ATOM     11  C   UNL     1      -0.567  -2.289   2.660  0.00  0.00    +0.040 A 
ATOM     12  C   UNL     1      -1.498  -3.218   2.228  0.00  0.00    +0.137 A 
ATOM     13  C   UNL     1      -2.602  -2.804   1.502  0.00  0.00    +0.053 A 
ATOM     14  C   UNL     1      -2.773  -1.463   1.209  0.00  0.00    +0.022 A 
ATOM     15 BR   UNL     1      -3.875  -4.071   0.911  0.00  0.00    -0.047 Br
ATOM     16  F   UNL     1      -1.329  -4.528   2.514  0.00  0.00    -0.204 F 
ENDBRANCH   5   9
BRANCH   3  17
ATOM     17  C   UNL     1      -3.109   1.427  -2.241  0.00  0.00    -0.004 A 
ATOM     18  C   UNL     1      -2.565   1.748  -3.487  0.00  0.00    +0.011 A 
ATOM     19  C   UNL     1      -3.383   1.821  -4.595  0.00  0.00    +0.020 A 
ATOM     20  C   UNL     1      -4.743   1.589  -4.472  0.00  0.00    +0.041 A 
ATOM     21  C   UNL     1      -5.289   1.277  -3.238  0.00  0.00    +0.020 A 
ATOM     22  C   UNL     1      -4.481   1.194  -2.124  0.00  0.00    +0.011 A 
ATOM     23 CL   UNL     1      -5.767   1.691  -5.870  0.00  0.00    -0.084 Cl
ENDBRANCH   3  17
BRANCH   1  28
ATOM     24  C   UNL     1       3.665   1.488  -0.793  0.00  0.00    +0.161 A 
ATOM     25  C   UNL     1       3.993   2.588  -0.017  0.00  0.00    +0.049 A 
ATOM     26  C   UNL     1       3.027   3.197   0.762  0.00  0.00    +0.004 A 
ATOM     27  C   UNL     1       1.733   2.710   0.770  0.00  0.00    +0.006 A 
ATOM     28  C   UNL     1       1.399   1.613  -0.003  0.00  0.00    -0.016 A 
ATOM     29  C   UNL     1       2.364   0.996  -0.782  0.00  0.00    +0.160 A 
BRANCH  24  31
ATOM     30  C   UNL     1       5.930   1.444  -1.518  0.00  0.00    +0.277 C 
ATOM     31  O   UNL     1       4.614   0.888  -1.560  0.00  0.00    -0.491 OA
ENDBRANCH  24  31
BRANCH  29  32
ATOM     32  O   UNL     1       2.038  -0.087  -1.538  0.00  0.00    -0.503 OA
ATOM     33  H   UNL     1       1.740   0.133  -2.432  0.00  0.00    +0.292 HD
ENDBRANCH  29  32
ENDBRANCH   1  28
TORSDOF 5
