REMARK  Name = ZINC12181913
REMARK  7 active torsions:
REMARK  status: ('A' for Active; 'I' for Inactive)
REMARK    1  A    between atoms: C_1  and  C_2
REMARK    2  A    between atoms: C_5  and  C_30
REMARK    3  A    between atoms: C_10  and  C_12
REMARK    4  A    between atoms: C_12  and  N_13
REMARK    5  A    between atoms: C_26  and  C_27
REMARK    6  A    between atoms: C_27  and  C_28
REMARK    7  A    between atoms: C_27  and  C_29
REMARK                            x       y       z     vdW  Elec       q    Type
REMARK                         _______ _______ _______ _____ _____    ______ ____
ROOT
ATOM      1  N   UNL     1      -0.721   1.571  -1.179  0.00  0.00    -0.203 N 
ATOM      2  C   UNL     1      -0.494   2.735  -1.822  0.00  0.00    +0.353 A 
ATOM      3  O   UNL     1       0.339   3.571  -1.520  0.00  0.00    -0.244 OA
ATOM      4  N   UNL     1      -1.349   2.806  -2.861  0.00  0.00    -0.230 N 
ATOM      5  C   UNL     1      -2.130   1.658  -2.850  0.00  0.00    +0.172 A 
ATOM      6  N   UNL     1      -1.763   0.913  -1.849  0.00  0.00    -0.148 NA
ATOM      7  C   UNL     1      -3.151   1.519  -3.903  0.00  0.00    +0.045 A 
ATOM      8  C   UNL     1      -3.984   0.408  -3.981  0.00  0.00    +0.014 A 
ATOM      9  C   UNL     1      -4.923   0.330  -4.989  0.00  0.00    +0.001 A 
ATOM     10  C   UNL     1      -5.041   1.350  -5.921  0.00  0.00    +0.002 A 
ATOM     11  C   UNL     1      -4.224   2.458  -5.860  0.00  0.00    +0.028 A 
ATOM     12  C   UNL     1      -3.268   2.559  -4.850  0.00  0.00    +0.077 A 
ATOM     13  N   UNL     1      -2.444   3.638  -4.759  0.00  0.00    -0.233 NA
ATOM     14  C   UNL     1      -1.548   3.753  -3.832  0.00  0.00    +0.123 A 
ENDROOT
BRANCH  14  15
ATOM     15  C   UNL     1      -0.685   4.988  -3.818  0.00  0.00    +0.050 C 
ATOM     16  C   UNL     1       0.097   5.079  -5.130  0.00  0.00    +0.015 C 
ATOM     17  C   UNL     1      -1.569   6.227  -3.664  0.00  0.00    +0.015 C 
ENDBRANCH  14  15
BRANCH   1  18
ATOM     18  C   UNL     1      -0.013   1.086   0.008  0.00  0.00    +0.244 C 
BRANCH  18  26
ATOM     19  C   UNL     1      -1.802   0.981   5.906  0.00  0.00    +0.009 C 
ATOM     20  C   UNL     1      -1.219   0.503   4.575  0.00  0.00    +0.004 C 
ATOM     21  C   UNL     1       0.077  -0.270   4.832  0.00  0.00    +0.009 C 
ATOM     22  C   UNL     1       0.643  -0.778   3.504  0.00  0.00    +0.004 C 
ATOM     23  C   UNL     1       0.961   0.413   2.601  0.00  0.00    +0.111 C 
ATOM     24  N   UNL     1      -0.242   1.246   2.466  0.00  0.00    -0.299 N 
ATOM     25  C   UNL     1      -0.918   1.712   3.684  0.00  0.00    +0.111 C 
ATOM     26  C   UNL     1      -0.718   1.572   1.248  0.00  0.00    +0.237 C 
ATOM     27  O   UNL     1      -1.714   2.256   1.150  0.00  0.00    -0.274 OA
ATOM     28  C   UNL     1       1.920  -1.578   3.765  0.00  0.00    +0.009 C 
ENDBRANCH  18  26
ENDBRANCH   1  18
TORSDOF 3
