REMARK  Name = ZINC13009181
REMARK  6 active torsions:
REMARK  status: ('A' for Active; 'I' for Inactive)
REMARK    1  A    between atoms: N_9  and  C_29
REMARK    2  A    between atoms: C_10  and  S_12
REMARK    3  A    between atoms: S_12  and  C_13
REMARK    4  A    between atoms: C_13  and  C_14
REMARK    5  A    between atoms: N_16  and  C_17
REMARK    6  A    between atoms: C_29  and  C_30
REMARK                            x       y       z     vdW  Elec       q    Type
REMARK                         _______ _______ _______ _____ _____    ______ ____
ROOT
ATOM      1  S   UNL     1      -1.535  -0.865   0.013  0.00  0.00    -0.078 S 
ENDROOT
BRANCH   1  11
ATOM      2  C   UNL     1       3.501   3.455   0.036  0.00  0.00    +0.001 A 
ATOM      3  C   UNL     1       2.282   4.119   0.051  0.00  0.00    +0.002 A 
ATOM      4  C   UNL     1       1.104   3.427   0.049  0.00  0.00    +0.028 A 
ATOM      5  C   UNL     1       1.123   2.029   0.034  0.00  0.00    +0.079 A 
ATOM      6  C   UNL     1       2.366   1.356   0.018  0.00  0.00    +0.065 A 
ATOM      7  C   UNL     1       3.553   2.088   0.020  0.00  0.00    +0.015 A 
ATOM      8  C   UNL     1       2.360  -0.113   0.000  0.00  0.00    +0.262 A 
ATOM      9  O   UNL     1       3.398  -0.749  -0.013  0.00  0.00    -0.267 OA
ATOM     10  N   UNL     1       1.157  -0.733  -0.001  0.00  0.00    -0.285 N 
ATOM     11  C   UNL     1       0.002  -0.004   0.015  0.00  0.00    +0.173 A 
ATOM     12  N   UNL     1      -0.016   1.306   0.031  0.00  0.00    -0.223 NA
BRANCH  10  13
ATOM     13  C   UNL     1       1.093  -2.196  -0.018  0.00  0.00    +0.159 C 
BRANCH  13  14
ATOM     14  C   UNL     1       1.062  -2.688  -1.467  0.00  0.00    +0.138 C 
ATOM     15  C   UNL     1       0.879  -4.220  -1.497  0.00  0.00    +0.035 C 
ATOM     16  C   UNL     1       1.816  -4.642  -2.661  0.00  0.00    +0.031 C 
ATOM     17  C   UNL     1       2.957  -3.605  -2.510  0.00  0.00    +0.160 C 
ATOM     18  O   UNL     1       2.308  -2.389  -2.108  0.00  0.00    -0.375 OA
ENDBRANCH  13  14
ENDBRANCH  10  13
ENDBRANCH   1  11
BRANCH   1  19
ATOM     19  C   UNL     1      -2.680   0.537   0.036  0.00  0.00    +0.173 C 
BRANCH  19  20
ATOM     20  C   UNL     1      -4.098   0.027   0.038  0.00  0.00    +0.227 C 
ATOM     21  O   UNL     1      -4.314  -1.167   0.024  0.00  0.00    -0.275 OA
ATOM     22  N   UNL     1      -5.127   0.897   0.054  0.00  0.00    -0.285 N 
ATOM     23  H   UNL     1      -4.957   1.849   0.132  0.00  0.00    +0.155 HD
BRANCH  22  24
ATOM     24  C   UNL     1      -6.444   0.427  -0.042  0.00  0.00    +0.035 A 
ATOM     25  C   UNL     1      -7.399   1.174  -0.723  0.00  0.00    +0.025 A 
ATOM     26  C   UNL     1      -8.696   0.714  -0.826  0.00  0.00    +0.029 A 
ATOM     27  C   UNL     1      -9.051  -0.492  -0.240  0.00  0.00    +0.067 A 
ATOM     28  C   UNL     1      -8.095  -1.241   0.449  0.00  0.00    +0.069 A 
ATOM     29  C   UNL     1      -6.792  -0.779   0.546  0.00  0.00    +0.051 A 
ATOM     30  N   UNL     1      -8.741  -2.383   0.918  0.00  0.00    -0.306 N 
ATOM     31  H   UNL     1      -8.331  -3.095   1.435  0.00  0.00    +0.170 HD
ATOM     32  C   UNL     1     -10.030  -2.331   0.533  0.00  0.00    +0.325 A 
ATOM     33  O   UNL     1     -10.870  -3.176   0.781  0.00  0.00    -0.247 OA
ATOM     34  N   UNL     1     -10.249  -1.202  -0.167  0.00  0.00    -0.306 N 
ATOM     35  H   UNL     1     -11.095  -0.930  -0.555  0.00  0.00    +0.170 HD
ENDBRANCH  22  24
ENDBRANCH  19  20
ENDBRANCH   1  19
TORSDOF 6
