REMARK  Name = ZINC09205988
REMARK  5 active torsions:
REMARK  status: ('A' for Active; 'I' for Inactive)
REMARK    1  A    between atoms: C_1  and  C_2
REMARK    2  A    between atoms: C_4  and  C_7
REMARK    3  A    between atoms: C_7  and  N_9
REMARK    4  A    between atoms: N_11  and  C_23
REMARK    5  A    between atoms: C_23  and  C_24
REMARK                            x       y       z     vdW  Elec       q    Type
REMARK                         _______ _______ _______ _____ _____    ______ ____
ROOT
ATOM      1  N   UNL     1       1.478   2.234   2.403  0.00  0.00    -0.151 NA
ATOM      2  C   UNL     1       1.958   2.324   1.166  0.00  0.00    +0.168 A 
ATOM      3  N   UNL     1       1.317   2.080  -0.007  0.00  0.00    -0.309 N 
ATOM      4  C   UNL     1       1.986   2.233  -1.209  0.00  0.00    +0.062 A 
ATOM      5  C   UNL     1       1.494   2.035  -2.508  0.00  0.00    +0.076 A 
ATOM      6  C   UNL     1       2.301   2.233  -3.612  0.00  0.00    +0.164 A 
ATOM      7  C   UNL     1       3.625   2.636  -3.459  0.00  0.00    +0.163 A 
ATOM      8  C   UNL     1       4.132   2.838  -2.185  0.00  0.00    +0.066 A 
ATOM      9  C   UNL     1       3.323   2.638  -1.091  0.00  0.00    +0.043 A 
ATOM     10  S   UNL     1       3.555   2.776   0.663  0.00  0.00    -0.052 S 
ATOM     11  O   UNL     1       4.427   2.838  -4.540  0.00  0.00    -0.485 OA
ATOM     12  C   UNL     1       3.991   2.269  -5.779  0.00  0.00    +0.270 C 
ATOM     13  C   UNL     1       2.501   2.593  -5.956  0.00  0.00    +0.270 C 
ATOM     14  O   UNL     1       1.784   2.024  -4.856  0.00  0.00    -0.485 OA
ENDROOT
BRANCH   1  15
ATOM     15  C   UNL     1       0.273   1.700   2.614  0.00  0.00    +0.291 C 
ATOM     16  O   UNL     1       0.081   0.519   2.383  0.00  0.00    -0.266 OA
BRANCH  15  20
ATOM     17  C   UNL     1      -4.207   3.396   4.289  0.00  0.00    +0.089 C 
ATOM     18  C   UNL     1      -2.771   3.258   3.850  0.00  0.00    +0.135 A 
ATOM     19  C   UNL     1      -2.168   2.133   3.402  0.00  0.00    +0.080 A 
ATOM     20  C   UNL     1      -0.834   2.544   3.131  0.00  0.00    +0.170 A 
ATOM     21  N   UNL     1      -0.780   3.820   3.423  0.00  0.00    -0.073 NA
ATOM     22  O   UNL     1      -1.846   4.227   3.823  0.00  0.00    -0.359 OA
ENDBRANCH  15  20
ENDBRANCH   1  15
BRANCH   3  23
ATOM     23  C   UNL     1      -0.087   1.661   0.000  0.00  0.00    +0.212 C 
BRANCH  23  24
ATOM     24  C   UNL     1      -0.160   0.191  -0.048  0.00  0.00    -0.084 C 
ATOM     25  C   UNL     1      -0.219  -0.981  -0.087  0.00  0.00    +0.005 C 
ENDBRANCH  23  24
ENDBRANCH   3  23
TORSDOF 4
