REMARK  Name = ZINC66236778
REMARK  11 active torsions:
REMARK  status: ('A' for Active; 'I' for Inactive)
REMARK    1  A    between atoms: C_1  and  C_2
REMARK    2  A    between atoms: C_2  and  O_3
REMARK    3  A    between atoms: O_3  and  C_4
REMARK    4  A    between atoms: C_11  and  C_13
REMARK    5  A    between atoms: C_13  and  C_15
REMARK    6  A    between atoms: C_13  and  N_16
REMARK    7  A    between atoms: N_16  and  C_17
REMARK    8  A    between atoms: C_17  and  C_18
REMARK    9  A    between atoms: C_21  and  O_25
REMARK   10  A    between atoms: C_22  and  O_24
REMARK   11  A    between atoms: O_25  and  C_26
REMARK                            x       y       z     vdW  Elec       q    Type
REMARK                         _______ _______ _______ _____ _____    ______ ____
ROOT
ATOM      1  C   UNL     1      -6.441  -2.591   0.050  0.00  0.00    -0.007 C 
ATOM      2  C   UNL     1      -6.890  -2.269   1.476  0.00  0.00    -0.006 C 
ENDROOT
BRANCH   1  10
ATOM      3  C   UNL     1      -1.498  -1.849   0.006  0.00  0.00    +0.163 A 
ATOM      4  C   UNL     1      -0.391  -2.678  -0.003  0.00  0.00    +0.049 A 
ATOM      5  C   UNL     1      -0.541  -4.056  -0.009  0.00  0.00    +0.004 A 
ATOM      6  C   UNL     1      -1.798  -4.620  -0.006  0.00  0.00    +0.012 A 
ATOM      7  C   UNL     1      -2.924  -3.796   0.004  0.00  0.00    +0.024 A 
ATOM      8  C   UNL     1      -2.778  -2.400   0.016  0.00  0.00    +0.176 A 
ATOM      9  O   UNL     1      -4.017  -1.867   0.030  0.00  0.00    -0.458 OA
ATOM     10  C   UNL     1      -4.953  -2.832   0.034  0.00  0.00    +0.092 A 
ATOM     11  C   UNL     1      -4.372  -4.039   0.010  0.00  0.00    +0.051 A 
BRANCH   3  12
ATOM     12  O   UNL     1      -1.339  -0.499   0.012  0.00  0.00    -0.489 OA
BRANCH  12  14
ATOM     13  C   UNL     1      -0.019   1.526   0.010  0.00  0.00    +0.048 C 
ATOM     14  C   UNL     1       0.002  -0.004   0.002  0.00  0.00    +0.226 C 
ENDBRANCH  12  14
ENDBRANCH   3  12
ENDBRANCH   1  10
BRANCH   1  15
ATOM     15  N   UNL     1      -6.763  -1.461  -0.832  0.00  0.00    +0.388 N 
ATOM     16  H   UNL     1      -6.352  -0.617  -0.461  0.00  0.00    -0.084 HD
ATOM     17  H   UNL     1      -6.393  -1.638  -1.754  0.00  0.00    -0.084 HD
BRANCH  15  18
ATOM     18  C   UNL     1      -8.221  -1.301  -0.911  0.00  0.00    -0.046 C 
BRANCH  18  19
ATOM     19  C   UNL     1      -8.551  -0.142  -1.815  0.00  0.00    -0.061 A 
ATOM     20  C   UNL     1      -8.666   1.132  -1.290  0.00  0.00    +0.005 A 
ATOM     21  C   UNL     1      -8.969   2.198  -2.115  0.00  0.00    +0.049 A 
ATOM     22  C   UNL     1      -9.158   1.992  -3.473  0.00  0.00    +0.161 A 
ATOM     23  C   UNL     1      -9.041   0.711  -4.001  0.00  0.00    +0.159 A 
ATOM     24  C   UNL     1      -8.733  -0.353  -3.169  0.00  0.00    +0.051 A 
BRANCH  23  25
ATOM     25  O   UNL     1      -9.225   0.503  -5.333  0.00  0.00    -0.503 OA
ATOM     26  H   UNL     1      -8.417   0.580  -5.858  0.00  0.00    +0.292 HD
ENDBRANCH  23  25
BRANCH  22  27
ATOM     27  O   UNL     1      -9.456   3.041  -4.286  0.00  0.00    -0.491 OA
ATOM     28  C   UNL     1      -9.560   4.328  -3.674  0.00  0.00    +0.277 C 
ENDBRANCH  22  27
ENDBRANCH  18  19
ENDBRANCH  15  18
ENDBRANCH   1  15
TORSDOF 8
