REMARK  Name = ZINC66984075
REMARK  5 active torsions:
REMARK  status: ('A' for Active; 'I' for Inactive)
REMARK    1  A    between atoms: C_1  and  O_2
REMARK    2  A    between atoms: O_2  and  C_3
REMARK    3  A    between atoms: C_5  and  C_10
REMARK    4  A    between atoms: C_8  and  O_9
REMARK    5  A    between atoms: C_10  and  N_11
REMARK                            x       y       z     vdW  Elec       q    Type
REMARK                         _______ _______ _______ _____ _____    ______ ____
ROOT
ATOM      1  N   UNL     1      -5.294   0.520  -1.340  0.00  0.00    -0.295 N 
ATOM      2  C   UNL     1      -6.417   1.226  -1.578  0.00  0.00    +0.307 C 
ATOM      3  O   UNL     1      -7.128   1.567  -0.652  0.00  0.00    -0.252 OA
ATOM      4  N   UNL     1      -6.753   1.554  -2.841  0.00  0.00    -0.255 N 
ATOM      5  C   UNL     1      -6.041   1.108  -4.042  0.00  0.00    +0.120 C 
ATOM      6  C   UNL     1      -6.801   1.741  -5.220  0.00  0.00    +0.056 C 
ATOM      7  C   UNL     1      -7.921   2.523  -4.573  0.00  0.00    -0.023 A 
ATOM      8  C   UNL     1      -7.835   2.365  -3.199  0.00  0.00    +0.041 A 
ATOM      9  C   UNL     1      -8.775   2.997  -2.383  0.00  0.00    +0.025 A 
ATOM     10  C   UNL     1      -9.777   3.763  -2.940  0.00  0.00    +0.017 A 
ATOM     11  C   UNL     1      -9.857   3.911  -4.313  0.00  0.00    +0.018 A 
ATOM     12  C   UNL     1      -8.925   3.295  -5.128  0.00  0.00    +0.020 A 
ATOM     13 BR   UNL     1     -11.233   4.962  -5.074  0.00  0.00    -0.050 Br
ATOM     14  H   UNL     1      -4.765   0.186  -2.082  0.00  0.00    +0.151 HD
ENDROOT
BRANCH   1  15
ATOM     15  C   UNL     1      -4.871   0.259   0.037  0.00  0.00    +0.141 C 
BRANCH  15  18
ATOM     16  C   UNL     1      -1.200  -0.633   0.011  0.00  0.00    +0.162 A 
ATOM     17  C   UNL     1      -2.373   0.103   0.020  0.00  0.00    +0.054 A 
ATOM     18  C   UNL     1      -3.595  -0.544   0.028  0.00  0.00    -0.027 A 
ATOM     19  C   UNL     1      -3.649  -1.925   0.026  0.00  0.00    +0.009 A 
ATOM     20  C   UNL     1      -2.482  -2.666   0.018  0.00  0.00    +0.049 A 
ATOM     21  C   UNL     1      -1.254  -2.023   0.004  0.00  0.00    +0.158 A 
BRANCH  16  23
ATOM     22  C   UNL     1      -0.018   1.431   0.011  0.00  0.00    +0.277 C 
ATOM     23  O   UNL     1       0.003   0.002   0.003  0.00  0.00    -0.491 OA
ENDBRANCH  16  23
BRANCH  21  24
ATOM     24  O   UNL     1      -0.105  -2.751  -0.011  0.00  0.00    -0.503 OA
ATOM     25  H   UNL     1       0.236  -2.965   0.868  0.00  0.00    +0.292 HD
ENDBRANCH  21  24
ENDBRANCH  15  18
ENDBRANCH   1  15
TORSDOF 4
