REMARK  Name = ZINC32893154
REMARK  7 active torsions:
REMARK  status: ('A' for Active; 'I' for Inactive)
REMARK    1  A    between atoms: C_1  and  C_2
REMARK    2  A    between atoms: C_4  and  C_18
REMARK    3  A    between atoms: C_6  and  C_12
REMARK    4  A    between atoms: N_9  and  C_11
REMARK    5  A    between atoms: N_20  and  C_21
REMARK    6  A    between atoms: N_20  and  C_22
REMARK    7  A    between atoms: C_22  and  C_23
REMARK                            x       y       z     vdW  Elec       q    Type
REMARK                         _______ _______ _______ _____ _____    ______ ____
ROOT
ATOM      1  C   UNL     1       0.495   1.486  -0.069  0.00  0.00    +0.068 C 
ATOM      2  C   UNL     1       0.431  -0.019  -0.069  0.00  0.00    +0.070 A 
ATOM      3  C   UNL     1       0.112  -0.830  -1.179  0.00  0.00    +0.054 A 
ATOM      4  C   UNL     1      -0.223  -0.556  -2.525  0.00  0.00    +0.051 A 
ATOM      5  C   UNL     1      -0.484  -1.634  -3.364  0.00  0.00    +0.042 A 
ATOM      6  C   UNL     1      -0.407  -2.933  -2.851  0.00  0.00    +0.074 A 
ATOM      7  N   UNL     1      -0.092  -3.158  -1.587  0.00  0.00    -0.228 NA
ATOM      8  C   UNL     1       0.167  -2.170  -0.744  0.00  0.00    +0.160 A 
ATOM      9  N   UNL     1       0.509  -2.131   0.584  0.00  0.00    -0.249 N 
ATOM     10  N   UNL     1       0.667  -0.790   0.954  0.00  0.00    -0.174 NA
ATOM     11  C   UNL     1       0.684  -3.291   1.460  0.00  0.00    +0.174 C 
ENDROOT
BRANCH   6  12
ATOM     12  C   UNL     1      -0.686  -4.083  -3.745  0.00  0.00    +0.000 A 
ATOM     13  C   UNL     1      -1.014  -3.866  -5.082  0.00  0.00    +0.010 A 
ATOM     14  C   UNL     1      -1.272  -4.940  -5.910  0.00  0.00    +0.001 A 
ATOM     15  C   UNL     1      -1.205  -6.230  -5.414  0.00  0.00    +0.000 A 
ATOM     16  C   UNL     1      -0.880  -6.451  -4.088  0.00  0.00    +0.001 A 
ATOM     17  C   UNL     1      -0.614  -5.385  -3.253  0.00  0.00    +0.010 A 
ENDBRANCH   6  12
BRANCH   4  18
ATOM     18  C   UNL     1      -0.293   0.834  -3.026  0.00  0.00    +0.248 C 
ATOM     19  O   UNL     1       0.661   1.576  -2.895  0.00  0.00    -0.270 OA
ATOM     20  N   UNL     1      -1.414   1.277  -3.628  0.00  0.00    -0.293 N 
ATOM     21  C   UNL     1      -2.606   0.426  -3.675  0.00  0.00    +0.133 C 
BRANCH  20  22
ATOM     22  C   UNL     1      -1.441   2.610  -4.236  0.00  0.00    +0.181 C 
BRANCH  22  23
ATOM     23  C   UNL     1      -1.007   2.514  -5.676  0.00  0.00    +0.128 A 
ATOM     24  N   UNL     1      -0.961   3.653  -6.415  0.00  0.00    -0.309 N 
ATOM     25  H   UNL     1      -1.203   4.505  -6.017  0.00  0.00    +0.170 HD
ATOM     26  C   UNL     1      -0.574   3.590  -7.712  0.00  0.00    +0.266 A 
ATOM     27  O   UNL     1      -0.522   4.595  -8.400  0.00  0.00    -0.267 OA
ATOM     28  C   UNL     1      -0.237   2.342  -8.236  0.00  0.00    +0.102 A 
ATOM     29  C   UNL     1      -0.293   1.177  -7.451  0.00  0.00    +0.085 A 
ATOM     30  N   UNL     1      -0.692   1.350  -6.148  0.00  0.00    -0.232 NA
ATOM     31  C   UNL     1       0.072  -0.009  -8.102  0.00  0.00    +0.036 A 
ATOM     32  C   UNL     1       0.446   0.017  -9.400  0.00  0.00    +0.048 A 
ATOM     33  S   UNL     1       0.311   1.748  -9.815  0.00  0.00    -0.090 S 
ENDBRANCH  22  23
ENDBRANCH  20  22
ENDBRANCH   4  18
TORSDOF 4
