REMARK  Name = ZINC21238656
REMARK  7 active torsions:
REMARK  status: ('A' for Active; 'I' for Inactive)
REMARK    1  A    between atoms: C_1  and  C_2
REMARK    2  A    between atoms: C_2  and  O_3
REMARK    3  A    between atoms: O_3  and  C_4
REMARK    4  A    between atoms: C_7  and  C_12
REMARK    5  A    between atoms: C_9  and  O_10
REMARK    6  A    between atoms: O_10  and  C_11
REMARK    7  A    between atoms: C_23  and  C_26
REMARK                            x       y       z     vdW  Elec       q    Type
REMARK                         _______ _______ _______ _____ _____    ______ ____
ROOT
ATOM      1  C   UNL     1       6.837   5.081  -0.080  0.00  0.00    +0.063 C 
ATOM      2  C   UNL     1       7.705   4.665  -1.269  0.00  0.00    +0.109 C 
ATOM      3  C   UNL     1       6.854   4.624  -2.512  0.00  0.00    +0.218 C 
ATOM      4  O   UNL     1       7.336   4.920  -3.584  0.00  0.00    -0.275 OA
ATOM      5  N   UNL     1       5.562   4.260  -2.434  0.00  0.00    -0.289 N 
ATOM      6  C   UNL     1       4.997   3.896  -1.239  0.00  0.00    +0.018 C 
ATOM      7  C   UNL     1       5.570   4.258  -0.072  0.00  0.00    +0.020 C 
ATOM      8  C   UNL     1       5.013   3.889   1.163  0.00  0.00    +0.162 C 
ATOM      9  O   UNL     1       5.552   4.244   2.192  0.00  0.00    -0.292 OA
ATOM     10  C   UNL     1       3.759   3.060   1.231  0.00  0.00    +0.088 C 
ATOM     11  C   UNL     1       3.673   2.183  -0.023  0.00  0.00    +0.032 C 
ATOM     12  C   UNL     1       3.724   3.087  -1.256  0.00  0.00    +0.059 C 
ATOM     13  H   UNL     1       4.939   4.251  -3.340  0.00  0.00    +0.155 HD
ENDROOT
BRANCH  11  14
ATOM     14  C   UNL     1       2.378   1.412  -0.013  0.00  0.00    -0.042 A 
ATOM     15  C   UNL     1       2.397   0.029  -0.021  0.00  0.00    +0.005 A 
ATOM     16  C   UNL     1       1.210  -0.679  -0.013  0.00  0.00    +0.022 A 
ATOM     17  C   UNL     1       0.002  -0.004   0.002  0.00  0.00    +0.059 A 
ATOM     18  C   UNL     1      -0.017   1.380   0.010  0.00  0.00    +0.060 A 
ATOM     19  C   UNL     1       1.172   2.087   0.002  0.00  0.00    +0.025 A 
ATOM     20 CL   UNL     1      -1.532   2.228   0.021  0.00  0.00    -0.082 Cl
ATOM     21 CL   UNL     1      -1.489  -0.893   0.011  0.00  0.00    -0.082 Cl
ENDBRANCH  11  14
BRANCH   1  25
ATOM     22  C   UNL     1       5.841   9.226  -0.426  0.00  0.00    +0.162 A 
ATOM     23  C   UNL     1       5.464   8.334  -1.418  0.00  0.00    +0.050 A 
ATOM     24  C   UNL     1       5.787   6.995  -1.303  0.00  0.00    +0.008 A 
ATOM     25  C   UNL     1       6.488   6.542  -0.201  0.00  0.00    -0.036 A 
ATOM     26  C   UNL     1       6.862   7.425   0.795  0.00  0.00    +0.053 A 
ATOM     27  C   UNL     1       6.546   8.770   0.684  0.00  0.00    +0.162 A 
BRANCH  27  28
ATOM     28  O   UNL     1       6.918   9.640   1.659  0.00  0.00    -0.491 OA
ATOM     29  C   UNL     1       7.638   9.101   2.770  0.00  0.00    +0.277 C 
ENDBRANCH  27  28
BRANCH  22  30
ATOM     30  O   UNL     1       5.524  10.543  -0.538  0.00  0.00    -0.489 OA
BRANCH  30  32
ATOM     31  C   UNL     1       4.535  12.446  -1.653  0.00  0.00    +0.048 C 
ATOM     32  C   UNL     1       4.800  10.940  -1.704  0.00  0.00    +0.226 C 
ENDBRANCH  30  32
ENDBRANCH  22  30
ENDBRANCH   1  25
TORSDOF 5
