REMARK  Name = ZINC01748683
REMARK  6 active torsions:
REMARK  status: ('A' for Active; 'I' for Inactive)
REMARK    1  A    between atoms: N_9  and  C_12
REMARK    2  A    between atoms: C_12  and  C_13
REMARK    3  A    between atoms: C_13  and  C_14
REMARK    4  A    between atoms: C_15  and  C_16
REMARK    5  A    between atoms: C_17  and  C_24
REMARK    6  A    between atoms: C_18  and  N_23
REMARK                            x       y       z     vdW  Elec       q    Type
REMARK                         _______ _______ _______ _____ _____    ______ ____
ROOT
ATOM      1  C   UNL     1      -6.038  -0.890   2.127  0.00  0.00    +0.078 A 
ATOM      2  C   UNL     1      -6.354  -2.077   2.812  0.00  0.00    +0.047 A 
ATOM      3  C   UNL     1      -7.687  -2.522   2.785  0.00  0.00    +0.130 A 
ATOM      4  N   UNL     1      -8.588  -1.816   2.111  0.00  0.00    -0.199 NA
ATOM      5  C   UNL     1      -8.248  -0.705   1.474  0.00  0.00    +0.215 A 
ATOM      6  N   UNL     1      -7.007  -0.245   1.475  0.00  0.00    -0.215 NA
ATOM      7  N   UNL     1      -9.221  -0.003   0.785  0.00  0.00    -0.327 N 
ATOM      8  H   UNL     1      -8.989   0.812   0.313  0.00  0.00    +0.145 HD
ATOM      9  H   UNL     1     -10.135  -0.326   0.773  0.00  0.00    +0.145 HD
ENDROOT
BRANCH   2  10
ATOM     10  C   UNL     1      -5.313  -2.833   3.545  0.00  0.00    -0.012 A 
ATOM     11  C   UNL     1      -4.260  -3.428   2.850  0.00  0.00    +0.010 A 
ATOM     12  C   UNL     1      -3.290  -4.127   3.539  0.00  0.00    +0.020 A 
ATOM     13  C   UNL     1      -3.367  -4.248   4.916  0.00  0.00    +0.041 A 
ATOM     14  C   UNL     1      -4.413  -3.663   5.610  0.00  0.00    +0.020 A 
ATOM     15  C   UNL     1      -5.385  -2.958   4.932  0.00  0.00    +0.010 A 
ATOM     16 CL   UNL     1      -2.147  -5.135   5.776  0.00  0.00    -0.084 Cl
ENDBRANCH   2  10
BRANCH   3  17
ATOM     17  N   UNL     1      -8.054  -3.680   3.447  0.00  0.00    -0.343 N 
ATOM     18  H   UNL     1      -8.976  -3.983   3.420  0.00  0.00    +0.144 HD
ATOM     19  H   UNL     1      -7.390  -4.190   3.937  0.00  0.00    +0.144 HD
ENDBRANCH   3  17
BRANCH   1  21
ATOM     20  C   UNL     1      -4.370   0.748   1.468  0.00  0.00    -0.023 C 
ATOM     21  C   UNL     1      -4.657  -0.371   2.123  0.00  0.00    +0.024 C 
BRANCH  20  22
ATOM     22  C   UNL     1      -2.959   1.278   1.465  0.00  0.00    +0.047 C 
BRANCH  22  23
ATOM     23  C   UNL     1      -2.489   1.465   0.021  0.00  0.00    +0.121 C 
BRANCH  23  32
ATOM     24  C   UNL     1       3.413   2.946  -0.015  0.00  0.00    +0.001 A 
ATOM     25  C   UNL     1       2.926   4.239  -0.003  0.00  0.00    +0.001 A 
ATOM     26  C   UNL     1       1.561   4.477   0.010  0.00  0.00    +0.014 A 
ATOM     27  C   UNL     1       0.678   3.409   0.013  0.00  0.00    +0.049 A 
ATOM     28  C   UNL     1       1.174   2.089   0.002  0.00  0.00    +0.049 A 
ATOM     29  C   UNL     1       2.542   1.867  -0.012  0.00  0.00    +0.014 A 
ATOM     30  C   UNL     1      -0.014   1.210   0.009  0.00  0.00    +0.254 C 
ATOM     31  O   UNL     1       0.002  -0.004   0.002  0.00  0.00    -0.270 OA
ATOM     32  N   UNL     1      -1.117   1.980   0.018  0.00  0.00    -0.234 N 
ATOM     33  C   UNL     1      -0.795   3.287   0.026  0.00  0.00    +0.254 C 
ATOM     34  O   UNL     1      -1.583   4.211   0.038  0.00  0.00    -0.270 OA
ENDBRANCH  23  32
ENDBRANCH  22  23
ENDBRANCH  20  22
ENDBRANCH   1  21
TORSDOF 6
