REMARK  Name = ZINC02655654
REMARK  10 active torsions:
REMARK  status: ('A' for Active; 'I' for Inactive)
REMARK    1  A    between atoms: C_1  and  N_2
REMARK    2  A    between atoms: N_2  and  C_3
REMARK    3  A    between atoms: N_2  and  C_4
REMARK    4  A    between atoms: C_4  and  C_6
REMARK    5  A    between atoms: C_4  and  C_21
REMARK    6  A    between atoms: C_6  and  N_7
REMARK    7  A    between atoms: C_8  and  C_10
REMARK    8  A    between atoms: C_10  and  C_11
REMARK    9  A    between atoms: C_11  and  C_12
REMARK   10  A    between atoms: C_12  and  C_14
REMARK                            x       y       z     vdW  Elec       q    Type
REMARK                         _______ _______ _______ _____ _____    ______ ____
ROOT
ATOM      1  N   UNL     1      -1.766   1.531  -1.169  0.00  0.00    -0.317 N 
ATOM      2  C   UNL     1      -2.260   2.263  -2.188  0.00  0.00    +0.213 C 
ATOM      3  O   UNL     1      -2.935   1.732  -3.045  0.00  0.00    -0.276 OA
ATOM      4  H   UNL     1      -1.227   1.956  -0.484  0.00  0.00    +0.149 HD
ENDROOT
BRANCH   1   5
ATOM      5  C   UNL     1      -2.044   0.095  -1.098  0.00  0.00    +0.093 C 
BRANCH   5   6
ATOM      6  C   UNL     1      -1.281  -0.514   0.081  0.00  0.00    -0.021 C 
BRANCH   6   7
ATOM      7  C   UNL     1      -1.799   0.070   1.370  0.00  0.00    -0.059 A 
ATOM      8  C   UNL     1      -2.967  -0.414   1.928  0.00  0.00    +0.002 A 
ATOM      9  C   UNL     1      -3.442   0.122   3.111  0.00  0.00    +0.000 A 
ATOM     10  C   UNL     1      -2.748   1.141   3.735  0.00  0.00    +0.000 A 
ATOM     11  C   UNL     1      -1.579   1.625   3.178  0.00  0.00    +0.000 A 
ATOM     12  C   UNL     1      -1.102   1.086   1.997  0.00  0.00    +0.002 A 
ENDBRANCH   6   7
BRANCH   6  14
ATOM     13  C   UNL     1      -0.970  -2.540  -1.166  0.00  0.00    -0.096 C 
ATOM     14  N   UNL     1      -1.476  -1.970   0.090  0.00  0.00    +0.382 N 
ATOM     15  C   UNL     1      -0.744  -2.555   1.222  0.00  0.00    -0.096 C 
ATOM     16  H   UNL     1      -2.459  -2.178   0.182  0.00  0.00    -0.082 HD
ENDBRANCH   6  14
ENDBRANCH   5   6
ENDBRANCH   1   5
BRANCH   2  17
ATOM     17  C   UNL     1      -1.974   3.741  -2.262  0.00  0.00    +0.103 C 
BRANCH  17  18
ATOM     18  C   UNL     1      -2.646   4.329  -3.504  0.00  0.00    +0.089 C 
BRANCH  18  19
ATOM     19  C   UNL     1      -2.360   5.806  -3.578  0.00  0.00    +0.164 C 
ATOM     20  O   UNL     1      -1.685   6.337  -2.722  0.00  0.00    -0.292 OA
BRANCH  19  21
ATOM     21  C   UNL     1      -2.899   6.605  -4.690  0.00  0.00    +0.017 A 
ATOM     22  C   UNL     1      -3.682   5.998  -5.677  0.00  0.00    +0.012 A 
ATOM     23  C   UNL     1      -4.184   6.753  -6.715  0.00  0.00    +0.016 A 
ATOM     24  C   UNL     1      -3.914   8.110  -6.783  0.00  0.00    +0.018 A 
ATOM     25  C   UNL     1      -3.139   8.718  -5.809  0.00  0.00    +0.016 A 
ATOM     26  C   UNL     1      -2.635   7.977  -4.762  0.00  0.00    +0.012 A 
ATOM     27 BR   UNL     1      -4.607   9.136  -8.212  0.00  0.00    -0.050 Br
ENDBRANCH  19  21
ENDBRANCH  18  19
ENDBRANCH  17  18
ENDBRANCH   2  17
TORSDOF 8
