REMARK  Name = ZINC18167060
REMARK  1 active torsions:
REMARK  status: ('A' for Active; 'I' for Inactive)
REMARK    1  A    between atoms: C_6  and  N_11
REMARK                            x       y       z     vdW  Elec       q    Type
REMARK                         _______ _______ _______ _____ _____    ______ ____
ROOT
ATOM      1  N   UNL     1       4.915  -2.655  -0.058  0.00  0.00    -0.210 N 
ATOM      2  C   UNL     1       6.126  -2.022  -0.060  0.00  0.00    +0.232 C 
ATOM      3  O   UNL     1       6.347  -0.864   0.224  0.00  0.00    -0.274 OA
ATOM      4  C   UNL     1       7.128  -3.061  -0.490  0.00  0.00    +0.107 C 
ATOM      5  C   UNL     1       8.474  -3.145   0.227  0.00  0.00    +0.071 C 
ATOM      6  C   UNL     1       8.353  -2.674   1.688  0.00  0.00    +0.021 C 
ATOM      7  C   UNL     1       9.429  -3.545   2.391  0.00  0.00    +0.017 C 
ATOM      8  C   UNL     1       9.341  -4.886   1.633  0.00  0.00    +0.086 C 
ATOM      9  N   UNL     1       8.751  -4.616   0.297  0.00  0.00    -0.281 NA
ATOM     10  C   UNL     1       7.445  -5.329   0.175  0.00  0.00    +0.138 C 
ATOM     11  C   UNL     1       6.420  -4.273   0.240  0.00  0.00    +0.123 C 
ATOM     12  C   UNL     1       5.031  -4.023  -0.066  0.00  0.00    +0.233 C 
ATOM     13  O   UNL     1       4.161  -4.839  -0.282  0.00  0.00    -0.274 OA
ATOM     14  C   UNL     1       7.415  -6.104  -1.118  0.00  0.00    +0.004 A 
ATOM     15  C   UNL     1       7.478  -5.731  -2.442  0.00  0.00    +0.008 A 
ATOM     16  C   UNL     1       7.423  -6.692  -3.435  0.00  0.00    +0.000 A 
ATOM     17  C   UNL     1       7.307  -8.028  -3.094  0.00  0.00    +0.002 A 
ATOM     18  C   UNL     1       7.246  -8.405  -1.769  0.00  0.00    +0.023 A 
ATOM     19  C   UNL     1       7.300  -7.443  -0.763  0.00  0.00    +0.039 A 
ATOM     20  N   UNL     1       7.258  -7.572   0.626  0.00  0.00    -0.283 N 
ATOM     21  C   UNL     1       7.340  -6.383   1.250  0.00  0.00    +0.243 C 
ATOM     22  O   UNL     1       7.331  -6.194   2.448  0.00  0.00    -0.273 OA
ATOM     23  H   UNL     1       7.180  -8.421   1.089  0.00  0.00    +0.155 HD
ENDROOT
BRANCH   1  29
ATOM     24  C   UNL     1      -0.016   1.357   0.009  0.00  0.00    +0.001 A 
ATOM     25  C   UNL     1       1.168   2.091   0.002  0.00  0.00    +0.001 A 
ATOM     26  C   UNL     1       2.378   1.468  -0.013  0.00  0.00    +0.008 A 
ATOM     27  C   UNL     1       2.437   0.063  -0.021  0.00  0.00    -0.016 A 
ATOM     28  C   UNL     1       3.668  -0.614  -0.035  0.00  0.00    +0.032 A 
ATOM     29  C   UNL     1       3.687  -1.980  -0.043  0.00  0.00    +0.044 A 
ATOM     30  C   UNL     1       2.495  -2.714  -0.035  0.00  0.00    +0.024 A 
ATOM     31  C   UNL     1       1.289  -2.088  -0.021  0.00  0.00    +0.010 A 
ATOM     32  C   UNL     1       1.232  -0.683  -0.013  0.00  0.00    -0.018 A 
ATOM     33  C   UNL     1       0.002  -0.004   0.002  0.00  0.00    +0.008 A 
ENDBRANCH   1  29
TORSDOF 1
