REMARK  Name = ZINC66233892
REMARK  8 active torsions:
REMARK  status: ('A' for Active; 'I' for Inactive)
REMARK    1  A    between atoms: C_1  and  N_2
REMARK    2  A    between atoms: C_6  and  C_7
REMARK    3  A    between atoms: C_7  and  C_8
REMARK    4  A    between atoms: C_8  and  N_9
REMARK    5  A    between atoms: N_12  and  C_13
REMARK    6  A    between atoms: C_13  and  C_15
REMARK    7  A    between atoms: C_13  and  C_23
REMARK    8  A    between atoms: C_15  and  C_16
REMARK                            x       y       z     vdW  Elec       q    Type
REMARK                         _______ _______ _______ _____ _____    ______ ____
ROOT
ATOM      1  N   UNL     1       1.477   0.145   4.428  0.00  0.00    -0.299 N 
ATOM      2  C   UNL     1       2.645   0.268   5.090  0.00  0.00    +0.300 C 
ATOM      3  O   UNL     1       3.692   0.012   4.529  0.00  0.00    -0.253 OA
ATOM      4  N   UNL     1       2.651   0.677   6.375  0.00  0.00    -0.292 N 
ATOM      5  H   UNL     1       0.642   0.350   4.875  0.00  0.00    +0.150 HD
ATOM      6  H   UNL     1       1.815   0.882   6.822  0.00  0.00    +0.151 HD
ENDROOT
BRANCH   1   7
ATOM      7  C   UNL     1       1.471  -0.299   3.032  0.00  0.00    +0.113 C 
BRANCH   7   8
ATOM      8  C   UNL     1       0.030  -0.354   2.521  0.00  0.00    +0.091 C 
BRANCH   8  14
ATOM      9  C   UNL     1      -0.018   1.461   0.010  0.00  0.00    +0.150 C 
ATOM     10  N   UNL     1       0.002  -0.004   0.002  0.00  0.00    -0.339 N 
ATOM     11  C   UNL     1       0.009  -0.810  -1.104  0.00  0.00    +0.104 A 
ATOM     12  C   UNL     1       0.029  -2.081  -0.660  0.00  0.00    +0.101 A 
ATOM     13  N   UNL     1       0.034  -2.052   0.681  0.00  0.00    -0.350 N 
ATOM     14  C   UNL     1       0.023  -0.811   1.085  0.00  0.00    +0.088 A 
ATOM     15  H   UNL     1       0.048  -2.831   1.260  0.00  0.00    +0.166 HD
ENDBRANCH   8  14
ENDBRANCH   7   8
ENDBRANCH   1   7
BRANCH   4  16
ATOM     16  C   UNL     1       3.919   0.811   7.095  0.00  0.00    +0.109 C 
BRANCH  16  17
ATOM     17  C   UNL     1       4.516   2.166   6.812  0.00  0.00    -0.027 A 
ATOM     18  C   UNL     1       3.702   3.282   6.755  0.00  0.00    +0.005 A 
ATOM     19  C   UNL     1       4.249   4.524   6.496  0.00  0.00    +0.000 A 
ATOM     20  C   UNL     1       5.611   4.651   6.294  0.00  0.00    +0.000 A 
ATOM     21  C   UNL     1       6.425   3.536   6.352  0.00  0.00    +0.000 A 
ATOM     22  C   UNL     1       5.878   2.294   6.616  0.00  0.00    +0.005 A 
ENDBRANCH  16  17
BRANCH  16  23
ATOM     23  C   UNL     1       3.671   0.667   8.597  0.00  0.00    +0.063 C 
BRANCH  23  24
ATOM     24  C   UNL     1       3.189  -0.730   8.895  0.00  0.00    -0.027 A 
ATOM     25  C   UNL     1       1.834  -0.992   8.975  0.00  0.00    +0.005 A 
ATOM     26  C   UNL     1       1.393  -2.273   9.248  0.00  0.00    +0.000 A 
ATOM     27  C   UNL     1       2.306  -3.293   9.441  0.00  0.00    +0.001 A 
ATOM     28  C   UNL     1       3.661  -3.032   9.361  0.00  0.00    +0.020 A 
ATOM     29  C   UNL     1       4.103  -1.751   9.083  0.00  0.00    +0.044 A 
ATOM     30 CL   UNL     1       5.805  -1.424   8.976  0.00  0.00    -0.083 Cl
ENDBRANCH  23  24
ENDBRANCH  16  23
ENDBRANCH   4  16
TORSDOF 7
