REMARK  Name = ZINC20726416
REMARK  11 active torsions:
REMARK  status: ('A' for Active; 'I' for Inactive)
REMARK    1  A    between atoms: C_1  and  C_2
REMARK    2  A    between atoms: C_2  and  C_3
REMARK    3  A    between atoms: C_2  and  N_4
REMARK    4  A    between atoms: N_4  and  C_5
REMARK    5  A    between atoms: N_4  and  C_30
REMARK    6  A    between atoms: C_5  and  C_6
REMARK    7  A    between atoms: C_6  and  N_7
REMARK    8  A    between atoms: C_8  and  C_10
REMARK    9  A    between atoms: C_10  and  N_11
REMARK   10  A    between atoms: C_20  and  C_21
REMARK   11  A    between atoms: C_30  and  C_31
REMARK                            x       y       z     vdW  Elec       q    Type
REMARK                         _______ _______ _______ _____ _____    ______ ____
ROOT
ATOM      1  C   UNL     1       5.379   5.591   1.012  0.00  0.00    +0.209 C 
ENDROOT
BRANCH   1   2
ATOM      2  N   UNL     1       4.120   4.844   1.065  0.00  0.00    -0.257 N 
ATOM      3  C   UNL     1       4.155   3.607   1.695  0.00  0.00    +0.051 A 
ATOM      4  C   UNL     1       5.196   3.342   2.583  0.00  0.00    +0.024 A 
ATOM      5  C   UNL     1       5.268   2.128   3.235  0.00  0.00    +0.002 A 
ATOM      6  C   UNL     1       4.309   1.155   3.016  0.00  0.00    +0.001 A 
ATOM      7  C   UNL     1       3.271   1.401   2.136  0.00  0.00    +0.017 A 
ATOM      8  C   UNL     1       3.193   2.618   1.480  0.00  0.00    +0.034 A 
ATOM      9  S   UNL     1       1.866   2.931   0.355  0.00  0.00    -0.082 S 
ATOM     10  C   UNL     1       1.766   4.701   0.414  0.00  0.00    +0.076 C 
ATOM     11  C   UNL     1       0.580   5.354   0.380  0.00  0.00    +0.028 C 
ATOM     12  C   UNL     1       3.055   5.423   0.497  0.00  0.00    +0.258 C 
ATOM     13  O   UNL     1       3.145   6.551   0.050  0.00  0.00    -0.269 OA
BRANCH  11  14
ATOM     14  C   UNL     1      -0.664   4.607   0.139  0.00  0.00    -0.024 A 
ATOM     15  C   UNL     1      -0.679   3.540  -0.766  0.00  0.00    +0.009 A 
ATOM     16  C   UNL     1      -1.848   2.844  -0.987  0.00  0.00    +0.020 A 
ATOM     17  C   UNL     1      -3.006   3.199  -0.315  0.00  0.00    +0.041 A 
ATOM     18  C   UNL     1      -2.999   4.254   0.583  0.00  0.00    +0.020 A 
ATOM     19  C   UNL     1      -1.838   4.959   0.814  0.00  0.00    +0.009 A 
ATOM     20 CL   UNL     1      -4.474   2.317  -0.600  0.00  0.00    -0.084 Cl
ENDBRANCH  11  14
ENDBRANCH   1   2
BRANCH   1  22
ATOM     21  N   UNL     1       6.563   7.277   2.381  0.00  0.00    -0.316 N 
ATOM     22  C   UNL     1       5.481   6.490   2.217  0.00  0.00    +0.231 C 
ATOM     23  O   UNL     1       4.590   6.505   3.040  0.00  0.00    -0.274 OA
ATOM     24  H   UNL     1       7.371   7.263   1.635  0.00  0.00    +0.149 HD
BRANCH  21  25
ATOM     25  C   UNL     1       6.662   8.151   3.553  0.00  0.00    +0.086 C 
BRANCH  25  26
ATOM     26  C   UNL     1       7.977   8.931   3.497  0.00  0.00    -0.059 C 
BRANCH  26  27
ATOM     27  N   UNL     1       8.077   9.807   4.672  0.00  0.00    +0.385 N 
ATOM     28  H   UNL     1       7.903   9.193   5.568  0.00  0.00    -0.081 HD
BRANCH  27  30
ATOM     29  C   UNL     1       6.980  11.550   5.998  0.00  0.00    -0.014 C 
ATOM     30  C   UNL     1       7.047  10.855   4.636  0.00  0.00    -0.074 C 
ATOM     31  C   UNL     1       7.400  11.880   3.557  0.00  0.00    -0.014 C 
ENDBRANCH  27  30
BRANCH  27  32
ATOM     32  C   UNL     1       9.420  10.393   4.780  0.00  0.00    -0.043 C 
BRANCH  32  33
ATOM     33  C   UNL     1      10.383   9.351   5.288  0.00  0.00    -0.064 A 
ATOM     34  C   UNL     1      10.502   9.124   6.647  0.00  0.00    +0.002 A 
ATOM     35  C   UNL     1      11.381   8.165   7.113  0.00  0.00    +0.000 A 
ATOM     36  C   UNL     1      12.149   7.440   6.221  0.00  0.00    +0.000 A 
ATOM     37  C   UNL     1      12.034   7.670   4.863  0.00  0.00    +0.000 A 
ATOM     38  C   UNL     1      11.150   8.626   4.396  0.00  0.00    +0.002 A 
ENDBRANCH  32  33
ENDBRANCH  27  32
ENDBRANCH  26  27
ENDBRANCH  25  26
ENDBRANCH  21  25
ENDBRANCH   1  22
TORSDOF 9
