REMARK  Name = ZINC58529737
REMARK  8 active torsions:
REMARK  status: ('A' for Active; 'I' for Inactive)
REMARK    1  A    between atoms: C_1  and  C_2
REMARK    2  A    between atoms: C_2  and  C_4
REMARK    3  A    between atoms: C_2  and  S_16
REMARK    4  A    between atoms: N_6  and  C_7
REMARK    5  A    between atoms: S_16  and  C_17
REMARK    6  A    between atoms: C_20  and  C_23
REMARK    7  A    between atoms: C_23  and  C_24
REMARK    8  A    between atoms: C_24  and  C_25
REMARK                            x       y       z     vdW  Elec       q    Type
REMARK                         _______ _______ _______ _____ _____    ______ ____
ROOT
ATOM      1  C   UNL     1       1.863   1.695  -1.026  0.00  0.00    +0.029 C 
ATOM      2  C   UNL     1       0.790   1.101  -0.111  0.00  0.00    +0.137 C 
ENDROOT
BRANCH   2   3
ATOM      3  C   UNL     1       1.423   0.658   1.183  0.00  0.00    +0.230 C 
ATOM      4  O   UNL     1       1.343   1.359   2.169  0.00  0.00    -0.274 OA
ATOM      5  N   UNL     1       2.079  -0.519   1.244  0.00  0.00    -0.282 N 
ATOM      6  H   UNL     1       2.080  -1.113   0.477  0.00  0.00    +0.155 HD
BRANCH   5   7
ATOM      7  C   UNL     1       2.756  -0.883   2.414  0.00  0.00    +0.071 A 
ATOM      8  C   UNL     1       2.104  -1.617   3.397  0.00  0.00    +0.065 A 
ATOM      9  C   UNL     1       2.776  -1.975   4.551  0.00  0.00    +0.042 A 
ATOM     10  C   UNL     1       4.097  -1.604   4.727  0.00  0.00    +0.044 A 
ATOM     11  C   UNL     1       4.750  -0.873   3.750  0.00  0.00    +0.042 A 
ATOM     12  C   UNL     1       4.085  -0.516   2.592  0.00  0.00    +0.065 A 
ATOM     13 CL   UNL     1       4.906   0.395   1.364  0.00  0.00    -0.082 Cl
ATOM     14 CL   UNL     1       4.937  -2.055   6.178  0.00  0.00    -0.083 Cl
ATOM     15 CL   UNL     1       0.446  -2.083   3.177  0.00  0.00    -0.082 Cl
ENDBRANCH   5   7
ENDBRANCH   2   3
BRANCH   2  16
ATOM     16  S   UNL     1      -0.473   2.357   0.234  0.00  0.00    -0.074 S 
BRANCH  16  17
ATOM     17  C   UNL     1      -1.212   2.660  -1.336  0.00  0.00    +0.185 A 
ATOM     18  N   UNL     1      -0.885   2.080  -2.472  0.00  0.00    -0.206 NA
ATOM     19  H   UNL     1      -2.671   4.094  -0.946  0.00  0.00    +0.191 HD
ATOM     20  C   UNL     1      -1.652   2.553  -3.455  0.00  0.00    +0.152 A 
ATOM     21  N   UNL     1      -2.478   3.438  -2.966  0.00  0.00    -0.157 NA
ATOM     22  N   UNL     1      -2.219   3.525  -1.588  0.00  0.00    -0.254 N 
BRANCH  20  23
ATOM     23  C   UNL     1      -1.578   2.133  -4.900  0.00  0.00    +0.078 C 
BRANCH  23  24
ATOM     24  C   UNL     1      -2.518   0.949  -5.136  0.00  0.00    +0.011 C 
BRANCH  24  25
ATOM     25  C   UNL     1      -2.443   0.522  -6.604  0.00  0.00    -0.011 C 
ATOM     26  C   UNL     1      -3.046   1.620  -7.505  0.00  0.00    +0.003 C 
ATOM     27  C   UNL     1      -3.776   0.835  -8.623  0.00  0.00    +0.000 C 
ATOM     28  C   UNL     1      -4.374  -0.372  -7.858  0.00  0.00    +0.000 C 
ATOM     29  C   UNL     1      -3.287  -0.744  -6.828  0.00  0.00    +0.003 C 
ENDBRANCH  24  25
ENDBRANCH  23  24
ENDBRANCH  20  23
ENDBRANCH  16  17
ENDBRANCH   2  16
TORSDOF 7
