REMARK  Name = ZINC01973818
REMARK  7 active torsions:
REMARK  status: ('A' for Active; 'I' for Inactive)
REMARK    1  A    between atoms: C_1  and  C_2
REMARK    2  A    between atoms: C_2  and  O_3
REMARK    3  A    between atoms: O_3  and  C_4
REMARK    4  A    between atoms: C_4  and  C_6
REMARK    5  A    between atoms: C_10  and  N_11
REMARK    6  A    between atoms: C_12  and  C_14
REMARK    7  A    between atoms: C_24  and  C_26
REMARK                            x       y       z     vdW  Elec       q    Type
REMARK                         _______ _______ _______ _____ _____    ______ ____
ROOT
ATOM      1  C   UNL     1       1.956   0.079   1.755  0.00  0.00    +0.091 A 
ATOM      2  C   UNL     1       0.732  -0.512   1.239  0.00  0.00    -0.019 A 
ATOM      3  C   UNL     1       0.264  -1.568   1.939  0.00  0.00    -0.004 A 
ATOM      4  S   UNL     1       1.420  -1.782   3.263  0.00  0.00    -0.077 S 
ATOM      5  C   UNL     1       2.512  -0.489   2.894  0.00  0.00    +0.087 A 
ATOM      6  C   UNL     1      -0.965  -2.372   1.647  0.00  0.00    +0.043 C 
ATOM      7  C   UNL     1      -1.419  -2.057   0.214  0.00  0.00    +0.006 C 
ATOM      8  C   UNL     1      -1.432  -0.536   0.020  0.00  0.00    +0.008 C 
ATOM      9  C   UNL     1       0.002  -0.004   0.002  0.00  0.00    +0.018 C 
ATOM     10  C   UNL     1      -0.019   1.526   0.010  0.00  0.00    +0.012 C 
ENDROOT
BRANCH   5  11
ATOM     11  N   UNL     1       3.661  -0.113   3.570  0.00  0.00    -0.275 N 
ATOM     12  C   UNL     1       4.048  -0.791   4.669  0.00  0.00    +0.249 C 
ATOM     13  O   UNL     1       3.389  -1.733   5.066  0.00  0.00    -0.270 OA
ATOM     14  H   UNL     1       4.257   0.738   3.211  0.00  0.00    +0.156 HD
BRANCH  12  15
ATOM     15  C   UNL     1       5.274  -0.391   5.390  0.00  0.00    +0.037 A 
ATOM     16  C   UNL     1       6.036   0.686   4.933  0.00  0.00    +0.014 A 
ATOM     17  C   UNL     1       7.176   1.058   5.613  0.00  0.00    +0.016 A 
ATOM     18  C   UNL     1       7.572   0.360   6.742  0.00  0.00    +0.018 A 
ATOM     19  C   UNL     1       6.823  -0.712   7.197  0.00  0.00    +0.016 A 
ATOM     20  C   UNL     1       5.678  -1.091   6.528  0.00  0.00    +0.014 A 
ATOM     21 BR   UNL     1       9.141   0.872   7.665  0.00  0.00    -0.050 Br
ENDBRANCH  12  15
ENDBRANCH   5  11
BRANCH   1  22
ATOM     22  C   UNL     1       2.580   1.230   1.098  0.00  0.00    +0.342 C 
ATOM     23  O   UNL     1       2.270   2.359   1.427  0.00  0.00    -0.245 OA
BRANCH  22  24
ATOM     24  O   UNL     1       3.497   1.037   0.128  0.00  0.00    -0.461 OA
BRANCH  24  26
ATOM     25  C   UNL     1       5.085   1.809  -1.550  0.00  0.00    +0.048 C 
ATOM     26  C   UNL     1       4.073   2.224  -0.479  0.00  0.00    +0.229 C 
ENDBRANCH  24  26
ENDBRANCH  22  24
ENDBRANCH   1  22
TORSDOF 5
