REMARK  Name = ZINC66461567
REMARK  5 active torsions:
REMARK  status: ('A' for Active; 'I' for Inactive)
REMARK    1  A    between atoms: C_1  and  N_2
REMARK    2  A    between atoms: C_3  and  C_5
REMARK    3  A    between atoms: C_5  and  N_6
REMARK    4  A    between atoms: N_6  and  C_7
REMARK    5  A    between atoms: C_14  and  C_16
REMARK                            x       y       z     vdW  Elec       q    Type
REMARK                         _______ _______ _______ _____ _____    ______ ____
ROOT
ATOM      1  N   UNL     1      -2.482  -2.794   0.112  0.00  0.00    -0.262 N 
ATOM      2  C   UNL     1      -3.296  -2.834   1.186  0.00  0.00    +0.226 C 
ATOM      3  O   UNL     1      -2.899  -2.442   2.262  0.00  0.00    -0.275 OA
ENDROOT
BRANCH   2   4
ATOM      4  C   UNL     1      -4.699  -3.367   1.048  0.00  0.00    +0.048 C 
ATOM      5  C   UNL     1      -4.663  -4.723   0.342  0.00  0.00    +0.019 C 
ATOM      6  C   UNL     1      -6.087  -5.264   0.203  0.00  0.00    -0.009 C 
ATOM      7  C   UNL     1      -6.708  -5.428   1.591  0.00  0.00    +0.007 C 
ATOM      8  C   UNL     1      -6.745  -4.072   2.298  0.00  0.00    -0.009 C 
ATOM      9  C   UNL     1      -5.320  -3.531   2.437  0.00  0.00    +0.019 C 
ATOM     10  C   UNL     1      -7.584  -3.091   1.476  0.00  0.00    +0.007 C 
ATOM     11  C   UNL     1      -6.963  -2.927   0.087  0.00  0.00    -0.009 C 
ATOM     12  C   UNL     1      -6.927  -4.284  -0.619  0.00  0.00    +0.007 C 
ATOM     13  C   UNL     1      -5.538  -2.386   0.227  0.00  0.00    +0.019 C 
ENDBRANCH   2   4
BRANCH   1  14
ATOM     14  C   UNL     1      -1.164  -2.345   0.249  0.00  0.00    +0.040 A 
ATOM     15  C   UNL     1      -0.638  -2.107   1.513  0.00  0.00    +0.024 A 
ATOM     16  C   UNL     1       0.663  -1.664   1.646  0.00  0.00    +0.005 A 
ATOM     17  C   UNL     1       1.444  -1.457   0.524  0.00  0.00    +0.038 A 
ATOM     18  C   UNL     1       0.923  -1.693  -0.737  0.00  0.00    +0.125 A 
ATOM     19  C   UNL     1      -0.378  -2.142  -0.877  0.00  0.00    +0.061 A 
ATOM     20  F   UNL     1       1.688  -1.490  -1.832  0.00  0.00    -0.205 F 
ENDBRANCH   1  14
BRANCH   1  21
ATOM     21  C   UNL     1      -2.978  -3.220  -1.199  0.00  0.00    +0.209 C 
BRANCH  21  24
ATOM     22  C   UNL     1      -2.386  -6.591  -2.915  0.00  0.00    +0.128 C 
ATOM     23  N   UNL     1      -2.844  -5.227  -2.639  0.00  0.00    -0.317 N 
ATOM     24  C   UNL     1      -2.507  -4.623  -1.482  0.00  0.00    +0.231 C 
ATOM     25  O   UNL     1      -1.824  -5.209  -0.669  0.00  0.00    -0.274 OA
ATOM     26  H   UNL     1      -3.390  -4.758  -3.290  0.00  0.00    +0.148 HD
ENDBRANCH  21  24
ENDBRANCH   1  21
TORSDOF 4
