REMARK  Name = ZINC67547419
REMARK  7 active torsions:
REMARK  status: ('A' for Active; 'I' for Inactive)
REMARK    1  A    between atoms: C_1  and  C_2
REMARK    2  A    between atoms: C_9  and  C_11
REMARK    3  A    between atoms: C_11  and  C_13
REMARK    4  A    between atoms: C_11  and  N_14
REMARK    5  A    between atoms: N_17  and  C_18
REMARK    6  A    between atoms: C_21  and  O_25
REMARK    7  A    between atoms: O_25  and  C_26
REMARK                            x       y       z     vdW  Elec       q    Type
REMARK                         _______ _______ _______ _____ _____    ______ ____
ROOT
ATOM      1  N   UNL     1       3.140   0.971   3.679  0.00  0.00    -0.288 N 
ATOM      2  C   UNL     1       3.540   0.770   4.950  0.00  0.00    +0.304 C 
ATOM      3  O   UNL     1       3.627  -0.361   5.388  0.00  0.00    -0.252 OA
ATOM      4  N   UNL     1       3.842   1.822   5.737  0.00  0.00    -0.269 N 
ATOM      5  H   UNL     1       3.071   1.873   3.330  0.00  0.00    +0.151 HD
ATOM      6  H   UNL     1       3.707   2.725   5.411  0.00  0.00    +0.156 HD
ENDROOT
BRANCH   4   7
ATOM      7  C   UNL     1       4.352   1.611   7.025  0.00  0.00    +0.040 A 
ATOM      8  C   UNL     1       5.294   2.485   7.550  0.00  0.00    +0.065 A 
ATOM      9  C   UNL     1       5.798   2.276   8.821  0.00  0.00    +0.169 A 
ATOM     10  C   UNL     1       5.361   1.193   9.572  0.00  0.00    +0.190 A 
ATOM     11  C   UNL     1       4.419   0.319   9.046  0.00  0.00    +0.169 A 
ATOM     12  C   UNL     1       3.912   0.531   7.777  0.00  0.00    +0.065 A 
ATOM     13  F   UNL     1       3.995  -0.735   9.776  0.00  0.00    -0.201 F 
ATOM     14  F   UNL     1       6.715   3.127   9.333  0.00  0.00    -0.201 F 
BRANCH  10  15
ATOM     15  O   UNL     1       5.857   0.987  10.822  0.00  0.00    -0.490 OA
ATOM     16  C   UNL     1       5.159   1.604  11.906  0.00  0.00    +0.277 C 
ENDBRANCH  10  15
ENDBRANCH   4   7
BRANCH   1  17
ATOM     17  C   UNL     1       2.812  -0.173   2.825  0.00  0.00    +0.157 C 
ATOM     18  C   UNL     1       4.091  -0.714   2.183  0.00  0.00    +0.038 C 
BRANCH  17  26
ATOM     19  C   UNL     1       0.239   1.273  -0.150  0.00  0.00    +0.028 C 
ATOM     20  C   UNL     1       0.279  -0.253  -0.054  0.00  0.00    +0.073 C 
ATOM     21  C   UNL     1      -1.135  -0.790   0.188  0.00  0.00    +0.022 C 
ATOM     22  C   UNL     1      -1.070  -2.301   0.422  0.00  0.00    +0.003 C 
ATOM     23  C   UNL     1      -0.224  -2.591   1.663  0.00  0.00    +0.019 C 
ATOM     24  C   UNL     1       1.201  -2.075   1.437  0.00  0.00    +0.108 C 
ATOM     25  N   UNL     1       1.139  -0.654   1.067  0.00  0.00    -0.297 N 
ATOM     26  C   UNL     1       1.854   0.265   1.746  0.00  0.00    +0.236 C 
ATOM     27  O   UNL     1       1.727   1.443   1.490  0.00  0.00    -0.274 OA
ENDBRANCH  17  26
ENDBRANCH   1  17
TORSDOF 4
