REMARK  Name = ZINC12329592
REMARK  7 active torsions:
REMARK  status: ('A' for Active; 'I' for Inactive)
REMARK    1  A    between atoms: C_1  and  O_2
REMARK    2  A    between atoms: O_2  and  C_3
REMARK    3  A    between atoms: C_9  and  O_30
REMARK    4  A    between atoms: C_18  and  C_19
REMARK    5  A    between atoms: C_18  and  N_54
REMARK    6  A    between atoms: C_19  and  C_21
REMARK    7  A    between atoms: C_19  and  O_29
REMARK                            x       y       z     vdW  Elec       q    Type
REMARK                         _______ _______ _______ _____ _____    ______ ____
ROOT
ATOM      1  C   UNL     1       1.214  -0.679  -0.013  0.00  0.00    +0.121 A 
ATOM      2  C   UNL     1       0.002  -0.004   0.002  0.00  0.00    +0.049 A 
ATOM      3  C   UNL     1      -0.017   1.375   0.010  0.00  0.00    +0.049 A 
ATOM      4  C   UNL     1       1.175   2.093   0.002  0.00  0.00    +0.127 A 
ATOM      5  C   UNL     1       2.383   1.420  -0.008  0.00  0.00    +0.026 A 
ATOM      6  C   UNL     1       2.401   0.035  -0.017  0.00  0.00    +0.055 A 
ATOM      7  C   UNL     1       3.696   2.161  -0.006  0.00  0.00    +0.152 C 
ATOM      8  C   UNL     1       3.471   3.609  -0.451  0.00  0.00    +0.084 C 
ATOM      9  C   UNL     1       2.290   4.178   0.343  0.00  0.00    +0.110 C 
ATOM     10  O   UNL     1       1.112   3.451  -0.002  0.00  0.00    -0.485 OA
ATOM     11  C   UNL     1       2.566   4.040   1.841  0.00  0.00    +0.029 C 
ATOM     12  C   UNL     1       1.416   4.670   2.630  0.00  0.00    -0.075 C 
ATOM     13  C   UNL     1       0.968   6.237   0.837  0.00  0.00    -0.075 C 
ATOM     14  C   UNL     1       2.107   5.657  -0.006  0.00  0.00    +0.029 C 
ATOM     15  N   UNL     1       1.313   6.099   2.268  0.00  0.00    +0.382 N 
ATOM     16  H   UNL     1       2.218   6.552   2.437  0.00  0.00    -0.082 HD
ENDROOT
BRANCH   1  18
ATOM     17  C   UNL     1      -0.026  -2.708  -0.017  0.00  0.00    +0.277 C 
ATOM     18  O   UNL     1       1.236  -2.039  -0.022  0.00  0.00    -0.495 OA
ENDBRANCH   1  18
BRANCH   7  19
ATOM     19  O   UNL     1       4.604   1.524  -0.907  0.00  0.00    -0.387 OA
ATOM     20  H   UNL     1       4.796   0.602  -0.686  0.00  0.00    +0.210 HD
ENDBRANCH   7  19
BRANCH  15  21
ATOM     21  C   UNL     1       0.284   6.758   3.100  0.00  0.00    -0.042 C 
BRANCH  21  22
ATOM     22  C   UNL     1       0.773   6.795   4.549  0.00  0.00    +0.128 C 
BRANCH  22  23
ATOM     23  C   UNL     1      -0.306   7.373   5.429  0.00  0.00    -0.018 A 
ATOM     24  C   UNL     1      -1.113   6.533   6.173  0.00  0.00    +0.009 A 
ATOM     25  C   UNL     1      -2.103   7.061   6.980  0.00  0.00    +0.041 A 
ATOM     26  C   UNL     1      -2.287   8.431   7.044  0.00  0.00    +0.158 A 
ATOM     27  C   UNL     1      -1.477   9.273   6.298  0.00  0.00    +0.159 A 
ATOM     28  C   UNL     1      -0.483   8.742   5.495  0.00  0.00    +0.047 A 
ATOM     29  F   UNL     1      -1.655  10.611   6.358  0.00  0.00    -0.202 F 
ATOM     30  F   UNL     1      -3.254   8.948   7.833  0.00  0.00    -0.202 F 
ENDBRANCH  22  23
BRANCH  22  31
ATOM     31  O   UNL     1       1.945   7.609   4.636  0.00  0.00    -0.389 OA
ATOM     32  H   UNL     1       1.809   8.524   4.356  0.00  0.00    +0.210 HD
ENDBRANCH  22  31
ENDBRANCH  21  22
ENDBRANCH  15  21
TORSDOF 6
