REMARK  Name = ZINC13423784
REMARK  13 active torsions:
REMARK  status: ('A' for Active; 'I' for Inactive)
REMARK    1  A    between atoms: C_1  and  C_2
REMARK    2  A    between atoms: C_2  and  C_3
REMARK    3  A    between atoms: C_2  and  C_4
REMARK    4  A    between atoms: C_4  and  C_5
REMARK    5  A    between atoms: C_5  and  C_6
REMARK    6  A    between atoms: C_6  and  C_7
REMARK    7  A    between atoms: C_7  and  C_9
REMARK    8  A    between atoms: C_7  and  C_10
REMARK    9  A    between atoms: C_16  and  C_37
REMARK   10  A    between atoms: C_26  and  O_36
REMARK   11  A    between atoms: C_27  and  C_35
REMARK   12  A    between atoms: C_30  and  O_33
REMARK   13  A    between atoms: O_33  and  C_34
REMARK                            x       y       z     vdW  Elec       q    Type
REMARK                         _______ _______ _______ _____ _____    ______ ____
ROOT
ATOM      1  C   UNL     1      -1.377   3.817   2.402  0.00  0.00    -0.002 C 
ATOM      2  C   UNL     1      -2.046   5.076   1.795  0.00  0.00    +0.004 C 
ATOM      3  C   UNL     1      -1.829   4.990   0.260  0.00  0.00    +0.004 C 
ATOM      4  C   UNL     1      -1.632   3.488   0.025  0.00  0.00    -0.001 C 
ATOM      5  C   UNL     1      -0.727   3.098   1.224  0.00  0.00    -0.026 C 
ATOM      6  C   UNL     1      -0.710   1.571   1.289  0.00  0.00    +0.007 C 
ATOM      7  C   UNL     1      -0.013   1.086   0.008  0.00  0.00    +0.005 C 
ATOM      8  C   UNL     1      -0.729   1.581  -1.245  0.00  0.00    +0.002 C 
ATOM      9  C   UNL     1      -0.887   3.110  -1.242  0.00  0.00    +0.004 C 
ATOM     10  C   UNL     1      -1.688   3.545  -2.474  0.00  0.00    +0.081 C 
ATOM     11  C   UNL     1      -1.029   2.984  -3.716  0.00  0.00    +0.165 C 
ATOM     12  O   UNL     1      -0.758   3.694  -4.654  0.00  0.00    -0.294 OA
ATOM     13  C   UNL     1      -0.723   1.505  -3.741  0.00  0.00    +0.131 C 
ATOM     14  C   UNL     1       0.067   1.172  -2.483  0.00  0.00    +0.007 C 
ATOM     15  C   UNL     1       0.347  -0.343  -2.454  0.00  0.00    +0.012 C 
ATOM     16  C   UNL     1       1.179  -0.715  -3.685  0.00  0.00    +0.032 C 
ATOM     17  C   UNL     1       0.417  -0.345  -4.958  0.00  0.00    +0.121 C 
ATOM     18  C   UNL     1       0.118   1.156  -4.968  0.00  0.00    +0.074 C 
ATOM     19  C   UNL     1       1.394   1.934  -2.506  0.00  0.00    +0.015 C 
ATOM     20  C   UNL     1       0.688   3.638   1.004  0.00  0.00    +0.012 C 
ENDROOT
BRANCH   1  21
ATOM     21  C   UNL     1      -0.315   4.223   3.426  0.00  0.00    -0.010 C 
ATOM     22  C   UNL     1       0.358   2.969   3.987  0.00  0.00    +0.008 C 
BRANCH  21  23
ATOM     23  C   UNL     1      -0.978   5.000   4.566  0.00  0.00    +0.003 C 
BRANCH  23  24
ATOM     24  C   UNL     1       0.098   5.513   5.526  0.00  0.00    +0.001 C 
BRANCH  24  25
ATOM     25  C   UNL     1      -0.564   6.289   6.666  0.00  0.00    +0.003 C 
BRANCH  25  27
ATOM     26  C   UNL     1      -0.138   7.682   8.696  0.00  0.00    +0.007 C 
ATOM     27  C   UNL     1       0.511   6.802   7.626  0.00  0.00    -0.017 C 
ATOM     28  C   UNL     1       1.206   5.614   8.295  0.00  0.00    +0.007 C 
ENDBRANCH  25  27
ENDBRANCH  24  25
ENDBRANCH  23  24
ENDBRANCH  21  23
ENDBRANCH   1  21
BRANCH  17  29
ATOM     29  O   UNL     1      -0.811  -1.074  -5.004  0.00  0.00    -0.380 OA
ATOM     30  C   UNL     1      -0.711  -2.343  -5.654  0.00  0.00    +0.194 C 
ENDBRANCH  17  29
BRANCH  13  31
ATOM     31  O   UNL     1      -1.943   0.763  -3.770  0.00  0.00    -0.380 OA
ATOM     32  H   UNL     1      -2.500   0.951  -4.538  0.00  0.00    +0.211 HD
ENDBRANCH  13  31
TORSDOF 7
