REMARK  Name = ZINC38799878
REMARK  11 active torsions:
REMARK  status: ('A' for Active; 'I' for Inactive)
REMARK    1  A    between atoms: C_1  and  C_2
REMARK    2  A    between atoms: C_2  and  C_3
REMARK    3  A    between atoms: C_2  and  O_4
REMARK    4  A    between atoms: O_4  and  C_5
REMARK    5  A    between atoms: C_5  and  C_6
REMARK    6  A    between atoms: C_6  and  C_7
REMARK    7  A    between atoms: C_7  and  N_8
REMARK    8  A    between atoms: C_9  and  C_11
REMARK    9  A    between atoms: N_23  and  N_27
REMARK   10  A    between atoms: C_24  and  N_26
REMARK   11  A    between atoms: C_28  and  C_29
REMARK                            x       y       z     vdW  Elec       q    Type
REMARK                         _______ _______ _______ _____ _____    ______ ____
ROOT
ATOM      1  C   UNL     1      -7.465  -2.475  -3.455  0.00  0.00    +0.131 C 
ATOM      2  C   UNL     1      -7.145  -3.746  -2.699  0.00  0.00    +0.095 A 
ATOM      3  C   UNL     1      -7.687  -4.828  -3.410  0.00  0.00    +0.162 A 
ATOM      4  N   UNL     1      -7.535  -6.062  -2.942  0.00  0.00    -0.227 NA
ATOM      5  C   UNL     1      -6.871  -6.270  -1.802  0.00  0.00    +0.091 A 
ATOM      6  C   UNL     1      -6.698  -7.569  -1.290  0.00  0.00    +0.030 A 
ATOM      7  C   UNL     1      -6.016  -7.750  -0.127  0.00  0.00    +0.002 A 
ATOM      8  C   UNL     1      -5.483  -6.667   0.569  0.00  0.00    +0.002 A 
ATOM      9  C   UNL     1      -5.631  -5.396   0.104  0.00  0.00    +0.030 A 
ATOM     10  C   UNL     1      -6.329  -5.169  -1.094  0.00  0.00    +0.090 A 
ATOM     11  N   UNL     1      -6.490  -3.932  -1.577  0.00  0.00    -0.246 NA
ATOM     12  N   UNL     1      -8.335  -4.406  -4.561  0.00  0.00    -0.219 N 
ATOM     13  C   UNL     1      -8.257  -2.946  -4.685  0.00  0.00    +0.058 C 
ENDROOT
BRANCH   1  15
ATOM     14  N   UNL     1      -5.337  -1.320  -2.949  0.00  0.00    -0.315 N 
ATOM     15  C   UNL     1      -6.197  -1.781  -3.879  0.00  0.00    +0.222 C 
ATOM     16  O   UNL     1      -5.949  -1.638  -5.058  0.00  0.00    -0.275 OA
ATOM     17  H   UNL     1      -5.535  -1.434  -2.007  0.00  0.00    +0.149 HD
BRANCH  14  18
ATOM     18  C   UNL     1      -4.104  -0.645  -3.362  0.00  0.00    +0.106 C 
BRANCH  18  19
ATOM     19  C   UNL     1      -3.313  -0.224  -2.122  0.00  0.00    +0.047 C 
BRANCH  19  20
ATOM     20  C   UNL     1      -2.026   0.481  -2.553  0.00  0.00    +0.161 C 
BRANCH  20  21
ATOM     21  O   UNL     1      -1.287   0.874  -1.395  0.00  0.00    -0.377 OA
BRANCH  21  23
ATOM     22  C   UNL     1      -0.311   3.051  -1.783  0.00  0.00    +0.037 C 
ATOM     23  C   UNL     1      -0.060   1.545  -1.688  0.00  0.00    +0.112 C 
ATOM     24  C   UNL     1       0.952   1.266  -0.574  0.00  0.00    +0.037 C 
ENDBRANCH  21  23
ENDBRANCH  20  21
ENDBRANCH  19  20
ENDBRANCH  18  19
ENDBRANCH  14  18
ENDBRANCH   1  15
BRANCH  13  25
ATOM     25  N   UNL     1      -9.604  -2.360  -4.678  0.00  0.00    +0.392 N 
ATOM     26  H   UNL     1      -9.534  -1.357  -4.601  0.00  0.00    -0.087 HD
ATOM     27  H   UNL     1     -10.080  -2.600  -5.534  0.00  0.00    -0.087 HD
ATOM     28  H   UNL     1     -10.124  -2.722  -3.892  0.00  0.00    -0.087 HD
ENDBRANCH  13  25
BRANCH  12  29
ATOM     29  N   UNL     1      -8.924  -5.186  -5.403  0.00  0.00    -0.188 NA
ATOM     30  C   UNL     1      -9.404  -4.699  -6.523  0.00  0.00    +0.136 C 
BRANCH  30  31
ATOM     31  C   UNL     1     -10.138  -5.521  -7.384  0.00  0.00    +0.000 C 
ATOM     32  C   UNL     1     -10.710  -5.165  -8.607  0.00  0.00    +0.004 A 
ATOM     33  C   UNL     1     -10.737  -3.954  -9.329  0.00  0.00    +0.010 A 
ATOM     34  C   UNL     1     -11.383  -3.895 -10.522  0.00  0.00    +0.001 A 
ATOM     35  C   UNL     1     -12.029  -5.011 -11.059  0.00  0.00    +0.002 A 
ATOM     36  C   UNL     1     -12.043  -6.206 -10.419  0.00  0.00    +0.026 A 
ATOM     37  C   UNL     1     -11.388  -6.344  -9.168  0.00  0.00    +0.043 A 
ATOM     38  N   UNL     1     -11.259  -7.378  -8.361  0.00  0.00    -0.380 N 
ATOM     39  C   UNL     1     -10.474  -6.983  -7.188  0.00  0.00    +0.150 C 
ATOM     40  H   UNL     1     -11.622  -8.264  -8.521  0.00  0.00    +0.160 HD
ENDBRANCH  30  31
ENDBRANCH  12  29
TORSDOF 9
