REMARK  Name = ZINC65591882
REMARK  8 active torsions:
REMARK  status: ('A' for Active; 'I' for Inactive)
REMARK    1  A    between atoms: C_1  and  C_2
REMARK    2  A    between atoms: C_2  and  C_4
REMARK    3  A    between atoms: C_2  and  N_16
REMARK    4  A    between atoms: N_6  and  C_7
REMARK    5  A    between atoms: C_12  and  C_13
REMARK    6  A    between atoms: C_13  and  C_14
REMARK    7  A    between atoms: C_13  and  C_15
REMARK    8  A    between atoms: C_17  and  C_22
REMARK                            x       y       z     vdW  Elec       q    Type
REMARK                         _______ _______ _______ _____ _____    ______ ____
ROOT
ATOM      1  C   UNL     1      -0.012   1.512   0.032  0.00  0.00    +0.041 C 
ATOM      2  C   UNL     1       0.009  -0.017   0.012  0.00  0.00    +0.174 C 
ENDROOT
BRANCH   2   3
ATOM      3  N   UNL     1      -1.365  -0.525   0.024  0.00  0.00    -0.291 N 
ATOM      4  C   UNL     1      -1.919  -1.339   0.994  0.00  0.00    +0.170 A 
ATOM      5  N   UNL     1      -3.160  -1.585   0.668  0.00  0.00    -0.153 NA
ATOM      6  N   UNL     1      -3.431  -0.922  -0.537  0.00  0.00    -0.254 N 
ATOM      7  C   UNL     1      -2.308  -0.273  -0.906  0.00  0.00    +0.176 A 
ATOM      8  S   UNL     1      -2.113   0.693  -2.306  0.00  0.00    -0.011 S 
ATOM      9  H   UNL     1      -4.274  -0.927  -1.017  0.00  0.00    +0.191 HD
BRANCH   4  10
ATOM     10  C   UNL     1      -1.228  -1.844   2.192  0.00  0.00    +0.056 A 
ATOM     11  C   UNL     1      -1.707  -2.655   3.189  0.00  0.00    +0.019 A 
ATOM     12  C   UNL     1      -0.865  -3.001   4.221  0.00  0.00    +0.008 A 
ATOM     13  C   UNL     1       0.410  -2.530   4.222  0.00  0.00    +0.046 A 
ATOM     14  S   UNL     1       0.455  -1.567   2.720  0.00  0.00    -0.094 S 
ENDBRANCH   4  10
ENDBRANCH   2   3
BRANCH   2  15
ATOM     15  C   UNL     1       0.710  -0.493  -1.234  0.00  0.00    +0.240 C 
ATOM     16  O   UNL     1       0.120  -1.188  -2.034  0.00  0.00    -0.273 OA
ATOM     17  N   UNL     1       1.993  -0.147  -1.460  0.00  0.00    -0.284 N 
ATOM     18  H   UNL     1       2.440   0.473  -0.863  0.00  0.00    +0.155 HD
BRANCH  17  19
ATOM     19  C   UNL     1       2.679  -0.681  -2.556  0.00  0.00    +0.037 A 
ATOM     20  C   UNL     1       2.286  -1.899  -3.097  0.00  0.00    +0.023 A 
ATOM     21  C   UNL     1       2.966  -2.423  -4.179  0.00  0.00    +0.002 A 
ATOM     22  C   UNL     1       4.037  -1.738  -4.723  0.00  0.00    +0.000 A 
ATOM     23  C   UNL     1       4.431  -0.526  -4.186  0.00  0.00    +0.006 A 
ATOM     24  C   UNL     1       3.751   0.007  -3.109  0.00  0.00    -0.024 A 
BRANCH  24  25
ATOM     25  C   UNL     1       4.176   1.331  -2.529  0.00  0.00    +0.015 C 
ATOM     26  C   UNL     1       5.660   1.274  -2.161  0.00  0.00    +0.012 C 
ATOM     27  C   UNL     1       3.950   2.437  -3.562  0.00  0.00    +0.012 C 
ENDBRANCH  24  25
ENDBRANCH  17  19
ENDBRANCH   2  15
TORSDOF 5
