REMARK  Name = ZINC49392437
REMARK  4 active torsions:
REMARK  status: ('A' for Active; 'I' for Inactive)
REMARK    1  A    between atoms: C_5  and  C_6
REMARK    2  A    between atoms: C_6  and  N_7
REMARK    3  A    between atoms: C_11  and  C_14
REMARK    4  A    between atoms: C_14  and  N_15
REMARK                            x       y       z     vdW  Elec       q    Type
REMARK                         _______ _______ _______ _____ _____    ______ ____
ROOT
ATOM      1  N   UNL     1      -1.546  -1.275  -1.374  0.00  0.00    +0.383 N 
ATOM      2  C   UNL     1      -2.049  -0.056  -2.020  0.00  0.00    -0.078 C 
ATOM      3  C   UNL     1      -2.380  -0.351  -3.485  0.00  0.00    -0.018 C 
ATOM      4  C   UNL     1      -3.451  -1.444  -3.550  0.00  0.00    +0.001 C 
ATOM      5  C   UNL     1      -2.945  -2.685  -2.809  0.00  0.00    -0.011 C 
ATOM      6  C   UNL     1      -2.592  -2.304  -1.369  0.00  0.00    -0.073 C 
ATOM      7  H   UNL     1      -0.743  -1.615  -1.882  0.00  0.00    -0.081 HD
ENDROOT
BRANCH   1   8
ATOM      8  C   UNL     1      -1.156  -0.969   0.009  0.00  0.00    -0.036 C 
BRANCH   8  13
ATOM      9  C   UNL     1      -0.016   1.351   0.009  0.00  0.00    +0.010 A 
ATOM     10  C   UNL     1       1.183   2.038   0.002  0.00  0.00    +0.023 A 
ATOM     11  C   UNL     1       2.343   1.335  -0.013  0.00  0.00    +0.055 A 
ATOM     12  S   UNL     1       1.753  -0.350  -0.017  0.00  0.00    -0.088 S 
ATOM     13  C   UNL     1       0.002  -0.004   0.002  0.00  0.00    -0.026 A 
ATOM     14 BR   UNL     1       4.123   1.974  -0.027  0.00  0.00    -0.043 Br
ENDBRANCH   8  13
ENDBRANCH   1   8
BRANCH   5  15
ATOM     15  C   UNL     1      -4.038  -3.756  -2.801  0.00  0.00    +0.107 C 
BRANCH  15  16
ATOM     16  N   UNL     1      -4.293  -4.202  -4.173  0.00  0.00    -0.299 N 
ATOM     17  C   UNL     1      -5.223  -5.148  -4.412  0.00  0.00    +0.297 C 
ATOM     18  O   UNL     1      -5.849  -5.632  -3.489  0.00  0.00    -0.253 OA
ATOM     19  N   UNL     1      -5.458  -5.559  -5.674  0.00  0.00    -0.313 N 
ATOM     20  H   UNL     1      -3.794  -3.816  -4.910  0.00  0.00    +0.150 HD
ATOM     21  H   UNL     1      -4.958  -5.173  -6.411  0.00  0.00    +0.146 HD
ATOM     22  H   UNL     1      -6.127  -6.240  -5.846  0.00  0.00    +0.146 HD
ENDBRANCH  15  16
ENDBRANCH   5  15
TORSDOF 4
