REMARK  Name = ZINC12579372
REMARK  9 active torsions:
REMARK  status: ('A' for Active; 'I' for Inactive)
REMARK    1  A    between atoms: C_1  and  C_2
REMARK    2  A    between atoms: C_2  and  C_3
REMARK    3  A    between atoms: C_3  and  C_4
REMARK    4  A    between atoms: C_4  and  N_5
REMARK    5  A    between atoms: C_6  and  C_24
REMARK    6  A    between atoms: N_16  and  C_17
REMARK    7  A    between atoms: C_17  and  C_18
REMARK    8  A    between atoms: C_24  and  N_25
REMARK    9  A    between atoms: C_27  and  C_36
REMARK                            x       y       z     vdW  Elec       q    Type
REMARK                         _______ _______ _______ _____ _____    ______ ____
ROOT
ATOM      1  N   UNL     1      -2.702  -1.105   0.771  0.00  0.00    -0.321 N 
ATOM      2  C   UNL     1      -2.069  -0.486  -0.244  0.00  0.00    +0.130 A 
ATOM      3  N   UNL     1      -2.702   0.618  -0.551  0.00  0.00    -0.213 NA
ATOM      4  C   UNL     1      -3.763   0.767   0.245  0.00  0.00    +0.169 A 
ATOM      5  C   UNL     1      -3.788  -0.322   1.107  0.00  0.00    +0.152 A 
ATOM      6  C   UNL     1      -4.819  -0.416   2.067  0.00  0.00    +0.280 A 
ATOM      7  O   UNL     1      -4.862  -1.361   2.834  0.00  0.00    -0.265 OA
ATOM      8  N   UNL     1      -5.756   0.553   2.124  0.00  0.00    -0.273 N 
ATOM      9  H   UNL     1      -6.488   0.490   2.802  0.00  0.00    +0.173 HD
ATOM     10  C   UNL     1      -5.720   1.601   1.284  0.00  0.00    +0.331 A 
ATOM     11  O   UNL     1      -6.581   2.456   1.365  0.00  0.00    -0.246 OA
ATOM     12  N   UNL     1      -4.753   1.730   0.355  0.00  0.00    -0.272 N 
ENDROOT
BRANCH   1  13
ATOM     13  C   UNL     1      -2.311  -2.369   1.400  0.00  0.00    +0.124 C 
BRANCH  13  14
ATOM     14  C   UNL     1      -1.488  -2.080   2.657  0.00  0.00    +0.021 C 
BRANCH  14  16
ATOM     15  C   UNL     1      -0.141  -3.106   4.494  0.00  0.00    +0.004 C 
ATOM     16  C   UNL     1      -0.964  -3.395   3.238  0.00  0.00    -0.002 C 
ENDBRANCH  14  16
ENDBRANCH  13  14
ENDBRANCH   1  13
BRANCH  12  17
ATOM     17  C   UNL     1      -4.750   2.888  -0.541  0.00  0.00    +0.163 C 
BRANCH  17  18
ATOM     18  C   UNL     1      -5.549   2.568  -1.779  0.00  0.00    -0.028 A 
ATOM     19  C   UNL     1      -4.925   2.012  -2.880  0.00  0.00    +0.005 A 
ATOM     20  C   UNL     1      -5.658   1.714  -4.013  0.00  0.00    +0.000 A 
ATOM     21  C   UNL     1      -7.014   1.981  -4.049  0.00  0.00    +0.000 A 
ATOM     22  C   UNL     1      -7.637   2.542  -2.950  0.00  0.00    +0.000 A 
ATOM     23  C   UNL     1      -6.905   2.835  -1.815  0.00  0.00    +0.005 A 
ENDBRANCH  17  18
ENDBRANCH  12  17
BRANCH   2  24
ATOM     24  C   UNL     1      -0.824  -0.991  -0.927  0.00  0.00    +0.179 C 
BRANCH  24  25
ATOM     25  N   UNL     1       0.323  -0.163  -0.529  0.00  0.00    -0.316 N 
ATOM     26  C   UNL     1       0.625  -0.333   0.897  0.00  0.00    +0.160 C 
ATOM     27  C   UNL     1       1.901   0.453   1.224  0.00  0.00    +0.275 C 
ATOM     28  O   UNL     1       2.977  -0.121   0.474  0.00  0.00    -0.476 OA
ATOM     29  C   UNL     1       2.730  -0.396  -0.836  0.00  0.00    +0.143 A 
ATOM     30  C   UNL     1       1.434  -0.423  -1.338  0.00  0.00    +0.072 A 
ATOM     31  C   UNL     1       1.225  -0.711  -2.683  0.00  0.00    +0.027 A 
ATOM     32  C   UNL     1       2.298  -0.973  -3.512  0.00  0.00    +0.002 A 
ATOM     33  C   UNL     1       3.586  -0.942  -3.012  0.00  0.00    +0.004 A 
ATOM     34  C   UNL     1       3.802  -0.654  -1.677  0.00  0.00    +0.047 A 
BRANCH  27  35
ATOM     35  C   UNL     1       2.197   0.354   2.699  0.00  0.00    +0.253 C 
ATOM     36  O   UNL     1       3.199  -0.214   3.079  0.00  0.00    -0.272 OA
ATOM     37  N   UNL     1       1.349   0.896   3.594  0.00  0.00    -0.326 N 
ATOM     38  H   UNL     1       0.547   1.351   3.290  0.00  0.00    +0.145 HD
ATOM     39  H   UNL     1       1.539   0.833   4.543  0.00  0.00    +0.145 HD
ENDBRANCH  27  35
ENDBRANCH  24  25
ENDBRANCH   2  24
TORSDOF 8
