REMARK  Name = ZINC35368346
REMARK  5 active torsions:
REMARK  status: ('A' for Active; 'I' for Inactive)
REMARK    1  A    between atoms: C_1  and  C_2
REMARK    2  A    between atoms: C_7  and  C_8
REMARK    3  A    between atoms: C_8  and  N_9
REMARK    4  A    between atoms: N_12  and  C_15
REMARK    5  A    between atoms: C_20  and  N_21
REMARK                            x       y       z     vdW  Elec       q    Type
REMARK                         _______ _______ _______ _____ _____    ______ ____
ROOT
ATOM      1  N   UNL     1      -1.342   0.478   2.824  0.00  0.00    -0.295 NA
ATOM      2  C   UNL     1      -2.215  -0.677   3.073  0.00  0.00    +0.103 C 
ATOM      3  C   UNL     1      -3.662  -0.196   3.222  0.00  0.00    +0.120 C 
ATOM      4  N   UNL     1      -3.703   0.850   4.256  0.00  0.00    -0.326 N 
ATOM      5  C   UNL     1      -2.759   1.972   4.148  0.00  0.00    +0.120 C 
ATOM      6  C   UNL     1      -1.348   1.406   3.962  0.00  0.00    +0.103 C 
ENDROOT
BRANCH   4   7
ATOM      7  C   UNL     1      -4.612   0.778   5.311  0.00  0.00    +0.053 A 
ATOM      8  C   UNL     1      -4.277   0.137   6.501  0.00  0.00    +0.042 A 
ATOM      9  C   UNL     1      -5.205   0.088   7.522  0.00  0.00    +0.084 A 
ATOM     10  N   UNL     1      -6.397   0.637   7.385  0.00  0.00    -0.365 N 
ATOM     11  C   UNL     1      -6.757   1.254   6.275  0.00  0.00    +0.107 A 
ATOM     12  C   UNL     1      -5.884   1.353   5.204  0.00  0.00    +0.062 A 
ATOM     13  H   UNL     1      -7.027   0.586   8.120  0.00  0.00    +0.165 HD
BRANCH  12  14
ATOM     14  N   UNL     1      -6.269   2.015   4.031  0.00  0.00    -0.355 N 
ATOM     15  H   UNL     1      -5.653   2.077   3.285  0.00  0.00    +0.142 HD
ATOM     16  H   UNL     1      -7.152   2.411   3.965  0.00  0.00    +0.142 HD
ENDBRANCH  12  14
ENDBRANCH   4   7
BRANCH   1  17
ATOM     17  C   UNL     1       0.025   0.045   2.504  0.00  0.00    +0.120 C 
BRANCH  17  24
ATOM     18  C   UNL     1      -0.018   1.503   0.010  0.00  0.00    +0.044 C 
ATOM     19  C   UNL     1       0.002  -0.004   0.002  0.00  0.00    -0.046 A 
ATOM     20  C   UNL     1       0.006  -0.689  -1.199  0.00  0.00    +0.003 A 
ATOM     21  C   UNL     1       0.025  -2.071  -1.207  0.00  0.00    +0.000 A 
ATOM     22  C   UNL     1       0.040  -2.768  -0.013  0.00  0.00    +0.000 A 
ATOM     23  C   UNL     1       0.037  -2.084   1.188  0.00  0.00    +0.005 A 
ATOM     24  C   UNL     1       0.023  -0.702   1.195  0.00  0.00    -0.030 A 
ENDBRANCH  17  24
ENDBRANCH   1  17
TORSDOF 4
