REMARK  Name = ZINC36637567
REMARK  12 active torsions:
REMARK  status: ('A' for Active; 'I' for Inactive)
REMARK    1  A    between atoms: C_1  and  C_2
REMARK    2  A    between atoms: C_5  and  C_38
REMARK    3  A    between atoms: N_8  and  S_10
REMARK    4  A    between atoms: S_10  and  C_13
REMARK    5  A    between atoms: C_16  and  C_19
REMARK    6  A    between atoms: N_21  and  C_22
REMARK    7  A    between atoms: C_22  and  C_23
REMARK    8  A    between atoms: C_23  and  N_24
REMARK    9  A    between atoms: N_24  and  C_25
REMARK   10  A    between atoms: N_24  and  C_26
REMARK   11  A    between atoms: C_31  and  O_36
REMARK   12  A    between atoms: O_36  and  C_37
REMARK                            x       y       z     vdW  Elec       q    Type
REMARK                         _______ _______ _______ _____ _____    ______ ____
ROOT
ATOM      1  C   UNL     1       2.040   6.156   1.315  0.00  0.00    +0.252 C 
ATOM      2  O   UNL     1       3.024   6.612   0.767  0.00  0.00    -0.270 OA
ATOM      3  N   UNL     1       1.048   6.979   1.711  0.00  0.00    -0.248 N 
ATOM      4  C   UNL     1       1.093   8.324   1.386  0.00  0.00    +0.168 A 
ATOM      5  N   UNL     1       2.005   8.976   0.704  0.00  0.00    -0.224 NA
ATOM      6  C   UNL     1       1.920  10.302   0.461  0.00  0.00    +0.084 A 
ATOM      7  C   UNL     1       2.827  11.118  -0.255  0.00  0.00    +0.074 A 
ATOM      8  C   UNL     1       2.589  12.462  -0.411  0.00  0.00    +0.122 A 
ATOM      9  C   UNL     1       1.454  13.064   0.126  0.00  0.00    +0.047 A 
ATOM     10  C   UNL     1       0.549  12.293   0.830  0.00  0.00    +0.021 A 
ATOM     11  C   UNL     1       0.780  10.950   0.990  0.00  0.00    +0.041 A 
ATOM     12  S   UNL     1      -0.080   9.613   1.784  0.00  0.00    -0.052 S 
ENDROOT
BRANCH   1  16
ATOM     13  C   UNL     1       1.723   1.974   1.981  0.00  0.00    +0.106 A 
ATOM     14  C   UNL     1       1.402   2.859   2.995  0.00  0.00    +0.029 A 
ATOM     15  C   UNL     1       1.503   4.219   2.785  0.00  0.00    +0.015 A 
ATOM     16  C   UNL     1       1.930   4.701   1.547  0.00  0.00    +0.037 A 
ATOM     17  C   UNL     1       2.252   3.802   0.528  0.00  0.00    +0.015 A 
ATOM     18  C   UNL     1       2.152   2.445   0.753  0.00  0.00    +0.029 A 
BRANCH  13  19
ATOM     19  S   UNL     1       1.591   0.239   2.257  0.00  0.00    +0.061 S 
ATOM     20  O   UNL     1       1.431  -0.365   0.981  0.00  0.00    -0.153 OA
ATOM     21  O   UNL     1       0.647   0.065   3.306  0.00  0.00    -0.153 OA
BRANCH  19  27
ATOM     22  C   UNL     1       5.171   1.536   1.903  0.00  0.00    +0.009 C 
ATOM     23  C   UNL     1       5.389   0.057   2.232  0.00  0.00    +0.002 C 
ATOM     24  C   UNL     1       5.736  -0.090   3.715  0.00  0.00    +0.009 C 
ATOM     25  C   UNL     1       4.603   0.489   4.566  0.00  0.00    +0.002 C 
ATOM     26  C   UNL     1       3.313  -0.291   4.290  0.00  0.00    +0.112 C 
ATOM     27  N   UNL     1       3.051  -0.276   2.845  0.00  0.00    -0.176 NA
ATOM     28  C   UNL     1       4.109  -0.728   1.930  0.00  0.00    +0.112 C 
ATOM     29  C   UNL     1       4.965   0.372   6.047  0.00  0.00    +0.009 C 
ENDBRANCH  19  27
ENDBRANCH  13  19
ENDBRANCH   1  16
BRANCH   8  30
ATOM     30  O   UNL     1       3.480  13.220  -1.104  0.00  0.00    -0.495 OA
ATOM     31  C   UNL     1       3.183  14.612  -1.236  0.00  0.00    +0.277 C 
ENDBRANCH   8  30
BRANCH   3  32
ATOM     32  C   UNL     1      -0.078   6.449   2.484  0.00  0.00    +0.097 C 
BRANCH  32  33
ATOM     33  C   UNL     1       0.153   6.720   3.972  0.00  0.00    -0.060 C 
BRANCH  33  34
ATOM     34  N   UNL     1      -0.908   6.076   4.758  0.00  0.00    +0.377 N 
ATOM     35  C   UNL     1      -0.621   6.234   6.190  0.00  0.00    -0.097 C 
ATOM     36  C   UNL     1      -2.199   6.702   4.444  0.00  0.00    -0.097 C 
ATOM     37  H   UNL     1      -0.946   5.094   4.529  0.00  0.00    -0.083 HD
ENDBRANCH  33  34
ENDBRANCH  32  33
ENDBRANCH   3  32
TORSDOF 7
