REMARK  Name = ZINC60064088
REMARK  9 active torsions:
REMARK  status: ('A' for Active; 'I' for Inactive)
REMARK    1  A    between atoms: C_1  and  C_2
REMARK    2  A    between atoms: C_3  and  C_8
REMARK    3  A    between atoms: C_4  and  C_7
REMARK    4  A    between atoms: C_8  and  N_9
REMARK    5  A    between atoms: C_10  and  C_12
REMARK    6  A    between atoms: C_19  and  C_22
REMARK    7  A    between atoms: C_22  and  C_23
REMARK    8  A    between atoms: C_22  and  C_24
REMARK    9  A    between atoms: C_22  and  C_25
REMARK                            x       y       z     vdW  Elec       q    Type
REMARK                         _______ _______ _______ _____ _____    ______ ____
ROOT
ATOM      1  C   UNL     1       2.983   0.421  -4.769  0.00  0.00    +0.074 A 
ATOM      2  C   UNL     1       3.436   0.844  -6.005  0.00  0.00    +0.024 A 
ATOM      3  C   UNL     1       4.811   0.917  -6.177  0.00  0.00    -0.036 A 
ATOM      4  C   UNL     1       5.581   0.563  -5.109  0.00  0.00    -0.006 A 
ATOM      5  S   UNL     1       4.513   0.149  -3.894  0.00  0.00    -0.088 S 
ATOM      6  C   UNL     1       7.080   0.557  -5.046  0.00  0.00    +0.043 C 
ATOM      7  C   UNL     1       7.626   0.645  -6.478  0.00  0.00    +0.009 C 
ATOM      8  C   UNL     1       6.899   1.774  -7.214  0.00  0.00    -0.001 C 
ATOM      9  C   UNL     1       5.451   1.369  -7.487  0.00  0.00    +0.040 C 
ENDROOT
BRANCH   1  11
ATOM     10  N   UNL     1       1.371  -0.174  -3.041  0.00  0.00    -0.307 N 
ATOM     11  C   UNL     1       1.606   0.247  -4.299  0.00  0.00    +0.251 C 
ATOM     12  O   UNL     1       0.674   0.484  -5.045  0.00  0.00    -0.270 OA
ATOM     13  H   UNL     1       2.114  -0.363  -2.446  0.00  0.00    +0.149 HD
BRANCH  10  14
ATOM     14  C   UNL     1      -0.005  -0.348  -2.571  0.00  0.00    +0.145 C 
BRANCH  14  17
ATOM     15  C   UNL     1      -0.018   1.503   0.010  0.00  0.00    +0.069 C 
ATOM     16  C   UNL     1       0.002  -0.004   0.002  0.00  0.00    +0.085 A 
ATOM     17  C   UNL     1       0.008  -0.824  -1.141  0.00  0.00    +0.034 A 
ATOM     18  C   UNL     1       0.027  -2.108  -0.735  0.00  0.00    +0.139 A 
ATOM     19  O   UNL     1       0.034  -2.119   0.606  0.00  0.00    -0.359 OA
ATOM     20  N   UNL     1       0.023  -0.775   1.052  0.00  0.00    -0.083 NA
ATOM     21  C   UNL     1       0.039  -3.320  -1.631  0.00  0.00    +0.089 C 
ENDBRANCH  14  17
ENDBRANCH  10  14
ENDBRANCH   1  11
BRANCH   8  22
ATOM     22  C   UNL     1       7.606   2.054  -8.541  0.00  0.00    -0.035 C 
ATOM     23  C   UNL     1       7.591   0.791  -9.404  0.00  0.00    +0.011 C 
ATOM     24  C   UNL     1       6.881   3.183  -9.277  0.00  0.00    +0.011 C 
ATOM     25  C   UNL     1       9.054   2.470  -8.270  0.00  0.00    +0.011 C 
ENDBRANCH   8  22
TORSDOF 4
