REMARK  Name = ZINC58053652
REMARK  11 active torsions:
REMARK  status: ('A' for Active; 'I' for Inactive)
REMARK    1  A    between atoms: C_1  and  C_2
REMARK    2  A    between atoms: C_2  and  C_4
REMARK    3  A    between atoms: C_2  and  N_14
REMARK    4  A    between atoms: C_7  and  S_10
REMARK    5  A    between atoms: S_10  and  N_13
REMARK    6  A    between atoms: N_14  and  C_15
REMARK    7  A    between atoms: N_14  and  C_16
REMARK    8  A    between atoms: C_16  and  C_17
REMARK    9  A    between atoms: N_19  and  C_20
REMARK   10  A    between atoms: C_20  and  C_22
REMARK   11  A    between atoms: C_20  and  C_23
REMARK                            x       y       z     vdW  Elec       q    Type
REMARK                         _______ _______ _______ _____ _____    ______ ____
ROOT
ATOM      1  N   UNL     1       1.291   2.689  -2.310  0.00  0.00    +0.388 N 
ATOM      2  C   UNL     1       2.599   2.139  -1.927  0.00  0.00    -0.095 C 
ATOM      3  H   UNL     1       1.419   3.403  -3.012  0.00  0.00    -0.081 HD
ENDROOT
BRANCH   1   5
ATOM      4  C   UNL     1      -0.720   3.847  -1.529  0.00  0.00    -0.008 C 
ATOM      5  C   UNL     1       0.641   3.274  -1.130  0.00  0.00    -0.041 C 
BRANCH   5   6
ATOM      6  C   UNL     1       1.506   4.376  -0.574  0.00  0.00    -0.061 A 
ATOM      7  C   UNL     1       2.156   5.244  -1.431  0.00  0.00    +0.004 A 
ATOM      8  C   UNL     1       2.949   6.255  -0.922  0.00  0.00    +0.029 A 
ATOM      9  C   UNL     1       3.093   6.397   0.446  0.00  0.00    +0.105 A 
ATOM     10  C   UNL     1       2.443   5.529   1.303  0.00  0.00    +0.029 A 
ATOM     11  C   UNL     1       1.646   4.522   0.794  0.00  0.00    +0.004 A 
BRANCH   9  12
ATOM     12  S   UNL     1       4.106   7.684   1.095  0.00  0.00    +0.056 S 
ATOM     13  O   UNL     1       4.511   7.267   2.392  0.00  0.00    -0.153 OA
ATOM     14  O   UNL     1       5.038   8.021   0.077  0.00  0.00    -0.153 OA
BRANCH  12  15
ATOM     15  N   UNL     1       3.136   9.010   1.307  0.00  0.00    -0.204 NA
ATOM     16  H   UNL     1       2.195   8.964   1.077  0.00  0.00    +0.144 HD
ATOM     17  H   UNL     1       3.510   9.833   1.660  0.00  0.00    +0.144 HD
ENDBRANCH  12  15
ENDBRANCH   9  12
ENDBRANCH   5   6
ENDBRANCH   1   5
BRANCH   1  18
ATOM     18  C   UNL     1       0.448   1.615  -2.852  0.00  0.00    +0.019 C 
BRANCH  18  19
ATOM     19  C   UNL     1       1.054   1.098  -4.131  0.00  0.00    +0.197 C 
ATOM     20  O   UNL     1       2.086   1.577  -4.550  0.00  0.00    -0.278 OA
ATOM     21  N   UNL     1       0.448   0.103  -4.809  0.00  0.00    -0.310 N 
ATOM     22  H   UNL     1      -0.378  -0.280  -4.474  0.00  0.00    +0.149 HD
BRANCH  21  23
ATOM     23  C   UNL     1       1.036  -0.400  -6.053  0.00  0.00    +0.101 C 
ATOM     24  C   UNL     1       0.556  -1.830  -6.303  0.00  0.00    +0.033 C 
BRANCH  23  25
ATOM     25  C   UNL     1       0.613   0.480  -7.201  0.00  0.00    -0.020 A 
ATOM     26  C   UNL     1      -0.527   1.219  -7.112  0.00  0.00    +0.006 A 
ATOM     27  C   UNL     1      -0.935   2.038  -8.163  0.00  0.00    +0.001 A 
ATOM     28  C   UNL     1      -0.205   2.123  -9.309  0.00  0.00    +0.008 A 
ATOM     29  C   UNL     1       0.978   1.376  -9.438  0.00  0.00    -0.018 A 
ATOM     30  C   UNL     1       1.395   0.547  -8.366  0.00  0.00    -0.013 A 
ATOM     31  C   UNL     1       2.582  -0.197  -8.492  0.00  0.00    +0.009 A 
ATOM     32  C   UNL     1       3.314  -0.107  -9.636  0.00  0.00    +0.001 A 
ATOM     33  C   UNL     1       2.906   0.713 -10.687  0.00  0.00    +0.001 A 
ATOM     34  C   UNL     1       1.757   1.437 -10.605  0.00  0.00    +0.008 A 
ENDBRANCH  23  25
ENDBRANCH  21  23
ENDBRANCH  18  19
ENDBRANCH   1  18
TORSDOF 8
