REMARK  Name = ZINC20636880
REMARK  9 active torsions:
REMARK  status: ('A' for Active; 'I' for Inactive)
REMARK    1  A    between atoms: C_1  and  C_2
REMARK    2  A    between atoms: N_7  and  C_9
REMARK    3  A    between atoms: C_9  and  C_10
REMARK    4  A    between atoms: C_12  and  C_27
REMARK    5  A    between atoms: C_15  and  O_16
REMARK    6  A    between atoms: O_16  and  C_17
REMARK    7  A    between atoms: C_17  and  C_18
REMARK    8  A    between atoms: N_20  and  C_21
REMARK    9  A    between atoms: C_21  and  C_22
REMARK                            x       y       z     vdW  Elec       q    Type
REMARK                         _______ _______ _______ _____ _____    ______ ____
ROOT
ATOM      1  C   UNL     1      -0.820   1.629  -3.524  0.00  0.00    -0.022 A 
ATOM      2  C   UNL     1      -0.303   1.278  -4.753  0.00  0.00    +0.013 A 
ATOM      3  C   UNL     1       0.844   0.490  -4.825  0.00  0.00    -0.017 A 
ATOM      4  C   UNL     1       1.468   0.063  -3.654  0.00  0.00    +0.012 A 
ATOM      5  C   UNL     1       0.949   0.422  -2.428  0.00  0.00    +0.046 A 
ATOM      6  C   UNL     1      -0.194   1.208  -2.359  0.00  0.00    +0.123 A 
ENDROOT
BRANCH   3   7
ATOM      7  C   UNL     1       1.401   0.105  -6.146  0.00  0.00    -0.014 A 
ATOM      8  C   UNL     1       0.777   0.532  -7.317  0.00  0.00    +0.012 A 
ATOM      9  C   UNL     1       1.295   0.174  -8.544  0.00  0.00    +0.050 A 
ATOM     10  C   UNL     1       2.436  -0.610  -8.618  0.00  0.00    +0.166 A 
ATOM     11  C   UNL     1       3.064  -1.039  -7.450  0.00  0.00    +0.167 A 
ATOM     12  C   UNL     1       2.551  -0.678  -6.217  0.00  0.00    +0.058 A 
ATOM     13  O   UNL     1       4.153  -1.789  -7.790  0.00  0.00    -0.453 OA
ATOM     14  C   UNL     1       4.420  -1.474  -9.170  0.00  0.00    +0.466 C 
ATOM     15  O   UNL     1       3.133  -1.091  -9.689  0.00  0.00    -0.453 OA
ENDBRANCH   3   7
BRANCH   1  16
ATOM     16  C   UNL     1      -2.064   2.477  -3.445  0.00  0.00    -0.039 C 
BRANCH  16  22
ATOM     17  C   UNL     1      -3.600   7.148  -3.336  0.00  0.00    +0.005 C 
ATOM     18  C   UNL     1      -2.391   6.220  -3.200  0.00  0.00    -0.031 C 
ATOM     19  C   UNL     1      -1.743   6.421  -1.827  0.00  0.00    -0.001 C 
ATOM     20  C   UNL     1      -0.572   5.447  -1.677  0.00  0.00    -0.018 C 
ATOM     21  C   UNL     1      -1.079   4.015  -1.856  0.00  0.00    -0.078 C 
ATOM     22  N   UNL     1      -1.690   3.873  -3.184  0.00  0.00    +0.383 N 
ATOM     23  C   UNL     1      -2.846   4.765  -3.335  0.00  0.00    -0.075 C 
ATOM     24  H   UNL     1      -0.939   4.169  -3.932  0.00  0.00    -0.081 HD
ENDBRANCH  16  22
ENDBRANCH   1  16
BRANCH   6  25
ATOM     25  O   UNL     1      -0.704   1.559  -1.150  0.00  0.00    -0.483 OA
BRANCH  25  26
ATOM     26  C   UNL     1      -0.013   1.086   0.008  0.00  0.00    +0.324 C 
BRANCH  26  27
ATOM     27  C   UNL     1      -0.718   1.572   1.248  0.00  0.00    +0.251 C 
ATOM     28  O   UNL     1      -1.714   2.256   1.150  0.00  0.00    -0.272 OA
ATOM     29  N   UNL     1      -0.242   1.246   2.466  0.00  0.00    -0.308 N 
ATOM     30  H   UNL     1       0.662   0.625   2.555  0.00  0.00    +0.149 HD
BRANCH  29  31
ATOM     31  C   UNL     1      -0.927   1.718   3.671  0.00  0.00    +0.146 C 
BRANCH  31  32
ATOM     32  C   UNL     1      -0.198   1.219   4.892  0.00  0.00    +0.007 A 
ATOM     33  C   UNL     1       0.814   1.802   5.579  0.00  0.00    +0.013 A 
ATOM     34  C   UNL     1       1.333   1.155   6.685  0.00  0.00    +0.008 A 
ATOM     35  C   UNL     1       0.821  -0.048   7.043  0.00  0.00    +0.045 A 
ATOM     36  S   UNL     1      -0.440  -0.297   5.804  0.00  0.00    -0.100 S 
ENDBRANCH  31  32
ENDBRANCH  29  31
ENDBRANCH  26  27
ENDBRANCH  25  26
ENDBRANCH   6  25
TORSDOF 8
