REMARK  Name = ZINC04231342
REMARK  10 active torsions:
REMARK  status: ('A' for Active; 'I' for Inactive)
REMARK    1  A    between atoms: C_1  and  C_2
REMARK    2  A    between atoms: C_9  and  C_14
REMARK    3  A    between atoms: C_14  and  N_15
REMARK    4  A    between atoms: N_15  and  C_16
REMARK    5  A    between atoms: C_16  and  C_17
REMARK    6  A    between atoms: C_17  and  C_18
REMARK    7  A    between atoms: C_18  and  N_19
REMARK    8  A    between atoms: N_19  and  C_20
REMARK    9  A    between atoms: N_19  and  C_21
REMARK   10  A    between atoms: N_24  and  C_25
REMARK                            x       y       z     vdW  Elec       q    Type
REMARK                         _______ _______ _______ _____ _____    ______ ____
ROOT
ATOM      1  N   UNL     1      -1.282  -5.402   3.971  0.00  0.00    -0.281 N 
ATOM      2  C   UNL     1      -2.021  -4.606   4.770  0.00  0.00    +0.307 C 
ATOM      3  O   UNL     1      -1.550  -3.571   5.200  0.00  0.00    -0.252 OA
ATOM      4  N   UNL     1      -3.281  -4.959   5.093  0.00  0.00    -0.269 N 
ATOM      5  H   UNL     1      -3.680  -5.750   4.697  0.00  0.00    +0.156 HD
ENDROOT
BRANCH   4   6
ATOM      6  C   UNL     1      -4.015  -4.183   5.999  0.00  0.00    +0.035 A 
ATOM      7  C   UNL     1      -4.898  -4.793   6.880  0.00  0.00    +0.026 A 
ATOM      8  C   UNL     1      -5.621  -4.026   7.773  0.00  0.00    +0.040 A 
ATOM      9  C   UNL     1      -5.465  -2.651   7.790  0.00  0.00    +0.124 A 
ATOM     10  C   UNL     1      -4.584  -2.041   6.913  0.00  0.00    +0.040 A 
ATOM     11  C   UNL     1      -3.856  -2.804   6.022  0.00  0.00    +0.026 A 
ATOM     12  F   UNL     1      -6.172  -1.902   8.665  0.00  0.00    -0.205 F 
ENDBRANCH   4   6
BRANCH   1  13
ATOM     13  C   UNL     1       0.088  -5.018   3.620  0.00  0.00    +0.150 C 
BRANCH  13  22
ATOM     14  C   UNL     1      -0.006   1.532   0.055  0.00  0.00    +0.044 C 
ATOM     15  C   UNL     1       0.010   0.025   0.036  0.00  0.00    -0.050 A 
ATOM     16  C   UNL     1       0.011  -0.648  -1.179  0.00  0.00    +0.005 A 
ATOM     17  C   UNL     1       0.026  -2.025  -1.221  0.00  0.00    +0.026 A 
ATOM     18  C   UNL     1       0.041  -2.751  -0.034  0.00  0.00    +0.049 A 
ATOM     19  C   UNL     1       0.041  -2.066   1.195  0.00  0.00    -0.001 A 
ATOM     20  C   UNL     1       0.030  -0.667   1.213  0.00  0.00    +0.013 A 
ATOM     21  C   UNL     1       0.057  -2.839   2.439  0.00  0.00    +0.020 A 
ATOM     22  C   UNL     1       0.071  -4.193   2.360  0.00  0.00    +0.035 A 
ATOM     23  C   UNL     1       0.071  -4.831   1.101  0.00  0.00    +0.254 A 
ATOM     24  O   UNL     1       0.084  -6.049   1.052  0.00  0.00    -0.268 OA
ATOM     25  N   UNL     1       0.056  -4.130  -0.046  0.00  0.00    -0.322 N 
ATOM     26  H   UNL     1       0.056  -4.600  -0.894  0.00  0.00    +0.169 HD
ENDBRANCH  13  22
ENDBRANCH   1  13
BRANCH   1  27
ATOM     27  C   UNL     1      -1.849  -6.649   3.453  0.00  0.00    +0.108 C 
BRANCH  27  28
ATOM     28  C   UNL     1      -1.553  -7.788   4.431  0.00  0.00    +0.000 C 
BRANCH  28  29
ATOM     29  C   UNL     1      -2.145  -9.091   3.890  0.00  0.00    -0.078 C 
BRANCH  29  30
ATOM     30  N   UNL     1      -1.860 -10.185   4.828  0.00  0.00    +0.376 N 
ATOM     31  C   UNL     1      -2.530 -11.410   4.370  0.00  0.00    -0.097 C 
ATOM     32  C   UNL     1      -0.410 -10.413   4.890  0.00  0.00    -0.097 C 
ATOM     33  H   UNL     1      -2.201  -9.938   5.746  0.00  0.00    -0.083 HD
ENDBRANCH  29  30
ENDBRANCH  28  29
ENDBRANCH  27  28
ENDBRANCH   1  27
TORSDOF 7
