REMARK  Name = ZINC36717691
REMARK  10 active torsions:
REMARK  status: ('A' for Active; 'I' for Inactive)
REMARK    1  A    between atoms: C_1  and  N_2
REMARK    2  A    between atoms: N_2  and  C_3
REMARK    3  A    between atoms: N_2  and  C_4
REMARK    4  A    between atoms: C_4  and  C_5
REMARK    5  A    between atoms: C_5  and  N_6
REMARK    6  A    between atoms: C_17  and  C_19
REMARK    7  A    between atoms: C_19  and  C_20
REMARK    8  A    between atoms: C_20  and  C_21
REMARK    9  A    between atoms: C_21  and  S_22
REMARK   10  A    between atoms: S_22  and  C_23
REMARK                            x       y       z     vdW  Elec       q    Type
REMARK                         _______ _______ _______ _____ _____    ______ ____
ROOT
ATOM      1  N   UNL     1      -3.452  -0.617  -1.276  0.00  0.00    -0.252 N 
ATOM      2  C   UNL     1      -4.474   0.161  -0.755  0.00  0.00    +0.168 A 
ATOM      3  N   UNL     1      -4.409   1.365  -0.237  0.00  0.00    -0.224 NA
ATOM      4  C   UNL     1      -5.497   2.011   0.237  0.00  0.00    +0.080 A 
ATOM      5  C   UNL     1      -5.564   3.299   0.816  0.00  0.00    +0.030 A 
ATOM      6  C   UNL     1      -6.758   3.811   1.250  0.00  0.00    +0.017 A 
ATOM      7  C   UNL     1      -7.939   3.090   1.139  0.00  0.00    +0.019 A 
ATOM      8  C   UNL     1      -7.911   1.825   0.578  0.00  0.00    +0.032 A 
ATOM      9  C   UNL     1      -6.718   1.305   0.141  0.00  0.00    +0.042 A 
ATOM     10  S   UNL     1      -6.216  -0.218  -0.624  0.00  0.00    -0.052 S 
ATOM     11 BR   UNL     1      -9.570   3.827   1.750  0.00  0.00    -0.050 Br
ATOM     12  C   UNL     1      -3.723  -1.840  -1.773  0.00  0.00    +0.221 C 
ATOM     13  O   UNL     1      -4.861  -2.260  -1.764  0.00  0.00    -0.275 OA
ENDROOT
BRANCH   1  14
ATOM     14  C   UNL     1      -2.078  -0.110  -1.286  0.00  0.00    +0.097 C 
BRANCH  14  15
ATOM     15  C   UNL     1      -1.376  -0.512   0.012  0.00  0.00    -0.060 C 
BRANCH  15  17
ATOM     16  C   UNL     1      -0.018   1.465   0.010  0.00  0.00    -0.097 C 
ATOM     17  N   UNL     1       0.002  -0.004   0.002  0.00  0.00    +0.377 N 
ATOM     18  C   UNL     1       0.713  -0.491   1.192  0.00  0.00    -0.097 C 
ATOM     19  H   UNL     1       0.474  -0.330  -0.828  0.00  0.00    -0.083 HD
ENDBRANCH  15  17
ENDBRANCH  14  15
ENDBRANCH   1  14
BRANCH  12  20
ATOM     20  C   UNL     1      -2.612  -2.686  -2.340  0.00  0.00    +0.097 C 
BRANCH  20  21
ATOM     21  C   UNL     1      -3.185  -4.016  -2.833  0.00  0.00    +0.020 C 
BRANCH  21  22
ATOM     22  C   UNL     1      -2.057  -4.875  -3.408  0.00  0.00    +0.075 C 
BRANCH  22  23
ATOM     23  S   UNL     1      -2.736  -6.452  -3.993  0.00  0.00    -0.125 S 
BRANCH  23  24
ATOM     24  C   UNL     1      -1.333  -7.316  -4.617  0.00  0.00    +0.008 A 
ATOM     25  C   UNL     1      -0.074  -6.728  -4.566  0.00  0.00    +0.016 A 
ATOM     26  C   UNL     1       1.024  -7.407  -5.056  0.00  0.00    +0.021 A 
ATOM     27  C   UNL     1       0.872  -8.671  -5.599  0.00  0.00    +0.041 A 
ATOM     28  C   UNL     1      -0.380  -9.259  -5.651  0.00  0.00    +0.021 A 
ATOM     29  C   UNL     1      -1.481  -8.587  -5.157  0.00  0.00    +0.016 A 
ATOM     30 CL   UNL     1       2.255  -9.521  -6.215  0.00  0.00    -0.084 Cl
ENDBRANCH  23  24
ENDBRANCH  22  23
ENDBRANCH  21  22
ENDBRANCH  20  21
ENDBRANCH  12  20
TORSDOF 8
