REMARK  Name = ZINC55887018
REMARK  8 active torsions:
REMARK  status: ('A' for Active; 'I' for Inactive)
REMARK    1  A    between atoms: C_1  and  C_2
REMARK    2  A    between atoms: C_2  and  O_3
REMARK    3  A    between atoms: O_3  and  C_4
REMARK    4  A    between atoms: C_7  and  N_11
REMARK    5  A    between atoms: C_8  and  C_10
REMARK    6  A    between atoms: N_11  and  C_12
REMARK    7  A    between atoms: C_12  and  C_13
REMARK    8  A    between atoms: C_26  and  C_28
REMARK                            x       y       z     vdW  Elec       q    Type
REMARK                         _______ _______ _______ _____ _____    ______ ____
ROOT
ATOM      1  C   UNL     1      -1.262  -8.304  -0.029  0.00  0.00    +0.237 C 
ATOM      2  O   UNL     1      -2.445  -8.571  -0.024  0.00  0.00    -0.274 OA
ATOM      3  N   UNL     1      -0.348  -9.294  -0.039  0.00  0.00    -0.265 N 
ATOM      4  C   UNL     1       1.023  -9.000  -0.039  0.00  0.00    +0.058 A 
ATOM      5  C   UNL     1       1.638  -8.501   1.098  0.00  0.00    +0.025 A 
ATOM      6  C   UNL     1       2.995  -8.239   1.086  0.00  0.00    +0.002 A 
ATOM      7  C   UNL     1       3.741  -8.474  -0.054  0.00  0.00    +0.002 A 
ATOM      8  C   UNL     1       3.133  -8.963  -1.196  0.00  0.00    +0.025 A 
ATOM      9  C   UNL     1       1.772  -9.218  -1.196  0.00  0.00    +0.055 A 
ATOM     10  N   UNL     1       1.124  -9.660  -2.355  0.00  0.00    -0.284 N 
ATOM     11  C   UNL     1       0.278 -10.713  -2.308  0.00  0.00    +0.219 C 
ATOM     12  O   UNL     1      -0.339 -11.034  -3.301  0.00  0.00    -0.275 OA
ATOM     13  C   UNL     1       0.098 -11.490  -1.031  0.00  0.00    +0.118 C 
ATOM     14  C   UNL     1      -0.768 -10.697  -0.045  0.00  0.00    +0.087 C 
ATOM     15  C   UNL     1      -0.610 -11.280   1.361  0.00  0.00    +0.029 C 
ATOM     16  H   UNL     1       1.284  -9.208  -3.198  0.00  0.00    +0.155 HD
ENDROOT
BRANCH   1  17
ATOM     17  C   UNL     1      -0.815  -6.865  -0.023  0.00  0.00    +0.198 C 
BRANCH  17  18
ATOM     18  N   UNL     1      -1.988  -5.989  -0.013  0.00  0.00    -0.335 N 
ATOM     19  H   UNL     1      -2.880  -6.372  -0.010  0.00  0.00    +0.147 HD
BRANCH  18  23
ATOM     20  C   UNL     1      -1.498  -1.849   0.006  0.00  0.00    +0.121 A 
ATOM     21  C   UNL     1      -0.387  -2.679  -0.003  0.00  0.00    +0.047 A 
ATOM     22  C   UNL     1      -0.548  -4.050  -0.009  0.00  0.00    +0.027 A 
ATOM     23  C   UNL     1      -1.824  -4.599  -0.006  0.00  0.00    +0.031 A 
ATOM     24  C   UNL     1      -2.936  -3.768   0.004  0.00  0.00    -0.026 A 
ATOM     25  C   UNL     1      -2.773  -2.396   0.016  0.00  0.00    +0.050 A 
ATOM     26  C   UNL     1      -4.321  -4.362   0.008  0.00  0.00    +0.046 C 
BRANCH  20  27
ATOM     27  O   UNL     1      -1.339  -0.499   0.012  0.00  0.00    -0.492 OA
BRANCH  27  29
ATOM     28  C   UNL     1      -0.019   1.526   0.010  0.00  0.00    +0.048 C 
ATOM     29  C   UNL     1       0.002  -0.004   0.002  0.00  0.00    +0.225 C 
ENDBRANCH  27  29
ENDBRANCH  20  27
ENDBRANCH  18  23
ENDBRANCH  17  18
ENDBRANCH   1  17
TORSDOF 5
