REMARK  Name = ZINC67456219
REMARK  10 active torsions:
REMARK  status: ('A' for Active; 'I' for Inactive)
REMARK    1  A    between atoms: C_1  and  S_2
REMARK    2  A    between atoms: S_2  and  N_5
REMARK    3  A    between atoms: N_5  and  C_6
REMARK    4  A    between atoms: C_6  and  C_7
REMARK    5  A    between atoms: C_7  and  C_8
REMARK    6  A    between atoms: C_8  and  N_9
REMARK    7  A    between atoms: N_12  and  C_13
REMARK    8  A    between atoms: C_13  and  C_14
REMARK    9  A    between atoms: N_19  and  C_20
REMARK   10  A    between atoms: C_20  and  C_21
REMARK                            x       y       z     vdW  Elec       q    Type
REMARK                         _______ _______ _______ _____ _____    ______ ____
ROOT
ATOM      1  N   UNL     1       4.445  -1.611  -3.984  0.00  0.00    -0.299 N 
ATOM      2  C   UNL     1       5.732  -1.330  -4.267  0.00  0.00    +0.300 C 
ATOM      3  O   UNL     1       6.344  -0.532  -3.583  0.00  0.00    -0.253 OA
ATOM      4  N   UNL     1       6.341  -1.933  -5.306  0.00  0.00    -0.301 N 
ATOM      5  H   UNL     1       3.956  -2.248  -4.529  0.00  0.00    +0.150 HD
ATOM      6  H   UNL     1       5.853  -2.570  -5.852  0.00  0.00    +0.150 HD
ENDROOT
BRANCH   1   7
ATOM      7  C   UNL     1       3.783  -0.955  -2.854  0.00  0.00    +0.107 C 
BRANCH   7   8
ATOM      8  C   UNL     1       2.337  -1.447  -2.754  0.00  0.00    +0.035 C 
BRANCH   8   9
ATOM      9  C   UNL     1       1.646  -0.762  -1.573  0.00  0.00    +0.107 C 
BRANCH   9  10
ATOM     10  N   UNL     1       0.262  -1.233  -1.478  0.00  0.00    -0.195 NA
ATOM     11  H   UNL     1      -0.142  -1.706  -2.222  0.00  0.00    +0.148 HD
BRANCH  10  13
ATOM     12  C   UNL     1      -0.787   0.844  -0.007  0.00  0.00    +0.214 C 
ATOM     13  S   UNL     1      -0.612  -0.960  -0.098  0.00  0.00    +0.027 S 
ATOM     14  O   UNL     1       0.219  -1.424   0.956  0.00  0.00    -0.158 OA
ATOM     15  O   UNL     1      -1.875  -1.562  -0.344  0.00  0.00    -0.158 OA
ENDBRANCH  10  13
ENDBRANCH   9  10
ENDBRANCH   8   9
ENDBRANCH   7   8
ENDBRANCH   1   7
BRANCH   4  16
ATOM     16  C   UNL     1       7.741  -1.628  -5.614  0.00  0.00    +0.090 C 
BRANCH  16  17
ATOM     17  C   UNL     1       8.185  -2.441  -6.831  0.00  0.00    -0.051 C 
ATOM     18  C   UNL     1       9.700  -2.256  -7.061  0.00  0.00    -0.016 C 
ATOM     19  C   UNL     1      10.312  -3.505  -6.374  0.00  0.00    -0.020 C 
ATOM     20  C   UNL     1       9.245  -4.586  -6.681  0.00  0.00    -0.078 C 
ATOM     21  N   UNL     1       7.948  -3.876  -6.589  0.00  0.00    +0.383 N 
ATOM     22  H   UNL     1       7.554  -4.005  -5.670  0.00  0.00    -0.081 HD
BRANCH  21  23
ATOM     23  C   UNL     1       7.021  -4.401  -7.601  0.00  0.00    -0.075 C 
BRANCH  23  24
ATOM     24  C   UNL     1       6.669  -5.852  -7.266  0.00  0.00    -0.028 C 
ATOM     25  C   UNL     1       5.817  -6.443  -8.391  0.00  0.00    +0.002 C 
ATOM     26  C   UNL     1       5.465  -7.893  -8.056  0.00  0.00    +0.000 C 
ATOM     27  C   UNL     1       4.679  -7.938  -6.744  0.00  0.00    +0.000 C 
ATOM     28  C   UNL     1       5.531  -7.346  -5.619  0.00  0.00    +0.000 C 
ATOM     29  C   UNL     1       5.883  -5.896  -5.954  0.00  0.00    +0.002 C 
ENDBRANCH  23  24
ENDBRANCH  21  23
ENDBRANCH  16  17
ENDBRANCH   4  16
TORSDOF 9
