REMARK  Name = ZINC20580432
REMARK  7 active torsions:
REMARK  status: ('A' for Active; 'I' for Inactive)
REMARK    1  A    between atoms: C_1  and  C_2
REMARK    2  A    between atoms: N_8  and  S_9
REMARK    3  A    between atoms: S_9  and  C_12
REMARK    4  A    between atoms: C_14  and  C_19
REMARK    5  A    between atoms: C_17  and  C_18
REMARK    6  A    between atoms: C_20  and  C_25
REMARK    7  A    between atoms: C_21  and  C_24
REMARK                            x       y       z     vdW  Elec       q    Type
REMARK                         _______ _______ _______ _____ _____    ______ ____
ROOT
ATOM      1  C   UNL     1      -0.081  -0.892   1.264  0.00  0.00    +0.112 A 
ATOM      2  C   UNL     1       0.036  -2.261   1.393  0.00  0.00    +0.040 A 
ATOM      3  C   UNL     1       0.009  -3.071   0.257  0.00  0.00    +0.022 A 
ATOM      4  C   UNL     1      -0.138  -2.490  -1.004  0.00  0.00    +0.012 A 
ATOM      5  C   UNL     1      -0.259  -1.121  -1.119  0.00  0.00    +0.006 A 
ATOM      6  C   UNL     1      -0.225  -0.323   0.011  0.00  0.00    -0.024 A 
ATOM      7  C   UNL     1      -0.353   1.173  -0.122  0.00  0.00    +0.046 C 
ENDROOT
BRANCH   3   8
ATOM      8  C   UNL     1       0.133  -4.538   0.388  0.00  0.00    +0.170 A 
ATOM      9  C   UNL     1      -0.642  -5.487  -0.221  0.00  0.00    +0.019 A 
ATOM     10  C   UNL     1      -0.107  -6.708   0.238  0.00  0.00    +0.084 A 
ATOM     11  N   UNL     1       0.880  -6.405   1.033  0.00  0.00    -0.083 NA
ATOM     12  O   UNL     1       1.034  -5.210   1.126  0.00  0.00    -0.354 OA
ATOM     13  C   UNL     1      -0.583  -8.092  -0.120  0.00  0.00    +0.069 C 
ATOM     14  C   UNL     1      -1.799  -5.276  -1.165  0.00  0.00    +0.049 C 
ENDBRANCH   3   8
BRANCH   1  15
ATOM     15  S   UNL     1      -0.046   0.132   2.697  0.00  0.00    +0.074 S 
ATOM     16  O   UNL     1       0.091  -0.736   3.813  0.00  0.00    -0.150 OA
ATOM     17  O   UNL     1       0.879   1.177   2.426  0.00  0.00    -0.150 OA
BRANCH  15  25
ATOM     18  C   UNL     1      -6.039  -2.415   3.660  0.00  0.00    +0.045 C 
ATOM     19  C   UNL     1      -4.854  -1.511   3.435  0.00  0.00    -0.032 A 
ATOM     20  C   UNL     1      -5.038  -0.148   3.243  0.00  0.00    +0.008 A 
ATOM     21  C   UNL     1      -3.924   0.646   3.038  0.00  0.00    +0.045 A 
ATOM     22  C   UNL     1      -2.664   0.056   3.032  0.00  0.00    +0.138 A 
ATOM     23  N   UNL     1      -2.531  -1.249   3.214  0.00  0.00    -0.239 NA
ATOM     24  C   UNL     1      -3.575  -2.030   3.416  0.00  0.00    +0.116 A 
ATOM     25  N   UNL     1      -1.536   0.842   2.828  0.00  0.00    -0.199 N 
ATOM     26  H   UNL     1      -1.634   1.935   2.754  0.00  0.00    +0.175 HD
ENDBRANCH  15  25
ENDBRANCH   1  15
TORSDOF 3
