REMARK  Name = ZINC47115004
REMARK  7 active torsions:
REMARK  status: ('A' for Active; 'I' for Inactive)
REMARK    1  A    between atoms: C_4  and  C_7
REMARK    2  A    between atoms: C_8  and  C_9
REMARK    3  A    between atoms: C_9  and  N_10
REMARK    4  A    between atoms: N_18  and  C_19
REMARK    5  A    between atoms: C_19  and  C_20
REMARK    6  A    between atoms: C_20  and  N_21
REMARK    7  A    between atoms: C_23  and  C_28
REMARK                            x       y       z     vdW  Elec       q    Type
REMARK                         _______ _______ _______ _____ _____    ______ ____
ROOT
ATOM      1  N   UNL     1       5.086  -3.683   1.061  0.00  0.00    +0.384 N 
ATOM      2  C   UNL     1       4.054  -4.714   0.890  0.00  0.00    -0.059 C 
ATOM      3  C   UNL     1       4.034  -5.623   2.123  0.00  0.00    +0.091 C 
ATOM      4  N   UNL     1       5.390  -6.152   2.335  0.00  0.00    -0.289 N 
ATOM      5  C   UNL     1       6.510  -5.198   2.357  0.00  0.00    +0.091 C 
ATOM      6  C   UNL     1       6.414  -4.308   1.113  0.00  0.00    -0.059 C 
ATOM      7  C   UNL     1       5.601  -7.472   2.506  0.00  0.00    +0.302 C 
ATOM      8  O   UNL     1       4.656  -8.234   2.577  0.00  0.00    -0.253 OA
ATOM      9  N   UNL     1       6.859  -7.947   2.599  0.00  0.00    -0.298 N 
ATOM     10  H   UNL     1       7.609  -7.332   2.617  0.00  0.00    +0.150 HD
ATOM     11  H   UNL     1       4.918  -3.181   1.920  0.00  0.00    -0.081 HD
ENDROOT
BRANCH   1  12
ATOM     12  C   UNL     1       5.032  -2.746  -0.070  0.00  0.00    -0.051 C 
BRANCH  12  14
ATOM     13  C   UNL     1       3.694  -0.688  -0.046  0.00  0.00    +0.002 C 
ATOM     14  C   UNL     1       3.715  -2.014  -0.052  0.00  0.00    -0.045 C 
BRANCH  13  18
ATOM     15  C   UNL     1      -0.017   1.377   0.002  0.00  0.00    +0.000 A 
ATOM     16  C   UNL     1       1.168   2.090  -0.008  0.00  0.00    +0.001 A 
ATOM     17  C   UNL     1       2.377   1.425  -0.024  0.00  0.00    +0.008 A 
ATOM     18  C   UNL     1       2.402   0.030  -0.029  0.00  0.00    -0.025 A 
ATOM     19  C   UNL     1       1.204  -0.683  -0.019  0.00  0.00    +0.008 A 
ATOM     20  C   UNL     1       0.001  -0.007  -0.004  0.00  0.00    +0.001 A 
ENDBRANCH  13  18
ENDBRANCH  12  14
ENDBRANCH   1  12
BRANCH   9  21
ATOM     21  C   UNL     1       7.093  -9.391   2.673  0.00  0.00    +0.124 C 
BRANCH  21  22
ATOM     22  C   UNL     1       8.595  -9.660   2.772  0.00  0.00    +0.121 C 
BRANCH  22  23
ATOM     23  N   UNL     1       8.829 -11.104   2.845  0.00  0.00    -0.327 N 
ATOM     24  C   UNL     1      10.121 -11.592   2.941  0.00  0.00    +0.136 A 
ATOM     25  C   UNL     1      10.341 -12.979   3.005  0.00  0.00    +0.091 A 
ATOM     26  C   UNL     1      11.656 -13.449   3.101  0.00  0.00    +0.024 A 
ATOM     27  C   UNL     1      12.685 -12.523   3.127  0.00  0.00    +0.021 A 
ATOM     28  C   UNL     1      12.388 -11.174   3.060  0.00  0.00    +0.113 A 
ATOM     29  N   UNL     1      11.142 -10.751   2.965  0.00  0.00    -0.239 NA
ATOM     30  H   UNL     1       8.079 -11.719   2.827  0.00  0.00    +0.148 HD
BRANCH  25  31
ATOM     31  C   UNL     1       9.241 -13.895   2.975  0.00  0.00    +0.103 C 
ATOM     32  N   UNL     1       8.368 -14.621   2.950  0.00  0.00    -0.191 NA
ENDBRANCH  25  31
ENDBRANCH  22  23
ENDBRANCH  21  22
ENDBRANCH   9  21
TORSDOF 7
