REMARK  Name = ZINC66908228
REMARK  6 active torsions:
REMARK  status: ('A' for Active; 'I' for Inactive)
REMARK    1  A    between atoms: C_1  and  C_2
REMARK    2  A    between atoms: C_5  and  C_7
REMARK    3  A    between atoms: C_7  and  N_8
REMARK    4  A    between atoms: C_14  and  N_17
REMARK    5  A    between atoms: C_18  and  C_20
REMARK    6  A    between atoms: C_20  and  C_21
REMARK                            x       y       z     vdW  Elec       q    Type
REMARK                         _______ _______ _______ _____ _____    ______ ____
ROOT
ATOM      1  N   UNL     1      -0.514  -4.652   4.379  0.00  0.00    -0.293 N 
ATOM      2  C   UNL     1      -1.549  -4.116   3.703  0.00  0.00    +0.303 C 
ATOM      3  O   UNL     1      -1.346  -3.293   2.832  0.00  0.00    -0.253 OA
ATOM      4  N   UNL     1      -2.811  -4.493   3.992  0.00  0.00    -0.286 N 
ATOM      5  C   UNL     1      -3.940  -4.008   3.188  0.00  0.00    +0.111 C 
ATOM      6  C   UNL     1      -4.752  -5.212   2.700  0.00  0.00    +0.041 C 
ATOM      7  C   UNL     1      -5.158  -6.069   3.901  0.00  0.00    +0.076 C 
ATOM      8  C   UNL     1      -3.903  -6.587   4.608  0.00  0.00    +0.041 C 
ATOM      9  C   UNL     1      -3.081  -5.403   5.114  0.00  0.00    +0.111 C 
ATOM     10  H   UNL     1      -0.679  -5.253   5.123  0.00  0.00    +0.151 HD
ENDROOT
BRANCH   7  11
ATOM     11  N   UNL     1      -5.963  -7.203   3.442  0.00  0.00    -0.312 N 
ATOM     12  C   UNL     1      -6.835  -7.795   4.281  0.00  0.00    +0.214 C 
ATOM     13  O   UNL     1      -6.954  -7.388   5.418  0.00  0.00    -0.276 OA
ATOM     14  H   UNL     1      -5.867  -7.529   2.533  0.00  0.00    +0.149 HD
BRANCH  12  15
ATOM     15  C   UNL     1      -7.663  -8.962   3.808  0.00  0.00    +0.099 C 
BRANCH  15  16
ATOM     16  C   UNL     1      -8.563  -9.444   4.947  0.00  0.00    -0.002 C 
ATOM     17  C   UNL     1      -7.708 -10.067   6.070  0.00  0.00    +0.004 C 
ATOM     18  C   UNL     1      -8.560 -11.256   6.580  0.00  0.00    +0.000 C 
ATOM     19  C   UNL     1      -9.186 -11.811   5.277  0.00  0.00    +0.000 C 
ATOM     20  C   UNL     1      -9.503 -10.553   4.444  0.00  0.00    +0.004 C 
ENDBRANCH  15  16
ENDBRANCH  12  15
ENDBRANCH   7  11
BRANCH   1  21
ATOM     21  C   UNL     1       0.861  -4.327   3.991  0.00  0.00    +0.168 C 
BRANCH  21  26
ATOM     22  C   UNL     1       3.793  -8.107   5.459  0.00  0.00    +0.066 C 
ATOM     23  C   UNL     1       3.184  -6.740   5.633  0.00  0.00    +0.046 A 
ATOM     24  C   UNL     1       3.470  -5.968   6.713  0.00  0.00    +0.070 A 
ATOM     25  S   UNL     1       2.481  -4.524   6.356  0.00  0.00    -0.079 S 
ATOM     26  C   UNL     1       1.823  -5.050   4.899  0.00  0.00    +0.096 A 
ATOM     27  N   UNL     1       2.354  -6.237   4.742  0.00  0.00    -0.248 NA
ENDBRANCH  21  26
ENDBRANCH   1  21
TORSDOF 5
