REMARK  Name = ZINC02138424
REMARK  5 active torsions:
REMARK  status: ('A' for Active; 'I' for Inactive)
REMARK    1  A    between atoms: C_10  and  N_11
REMARK    2  A    between atoms: C_15  and  C_16
REMARK    3  A    between atoms: C_19  and  C_21
REMARK    4  A    between atoms: C_24  and  S_27
REMARK    5  A    between atoms: S_27  and  N_30
REMARK                            x       y       z     vdW  Elec       q    Type
REMARK                         _______ _______ _______ _____ _____    ______ ____
ROOT
ATOM      1  N   UNL     1       8.427   1.493   0.252  0.00  0.00    -0.217 N 
ATOM      2  C   UNL     1       7.964   2.756   0.164  0.00  0.00    +0.262 C 
ATOM      3  O   UNL     1       8.728   3.704   0.167  0.00  0.00    -0.269 OA
ATOM      4  C   UNL     1       6.509   2.959   0.065  0.00  0.00    +0.103 C 
ATOM      5  C   UNL     1       5.958   4.234  -0.029  0.00  0.00    +0.064 C 
ATOM      6  C   UNL     1       5.661   1.755   0.075  0.00  0.00    +0.255 C 
ATOM      7  O   UNL     1       4.450   1.843   0.001  0.00  0.00    -0.270 OA
ATOM      8  N   UNL     1       6.264   0.551   0.163  0.00  0.00    -0.263 N 
ATOM      9  C   UNL     1       7.597   0.440   0.250  0.00  0.00    +0.151 C 
ATOM     10  S   UNL     1       8.275  -1.128   0.366  0.00  0.00    -0.018 S 
ATOM     11  H   UNL     1       5.720  -0.252   0.167  0.00  0.00    +0.157 HD
ENDROOT
BRANCH   1  21
ATOM     12  C   UNL     1      12.148   0.773  -3.083  0.00  0.00    +0.001 A 
ATOM     13  C   UNL     1      10.777   0.988  -3.200  0.00  0.00    +0.001 A 
ATOM     14  C   UNL     1       9.997   1.153  -2.096  0.00  0.00    +0.010 A 
ATOM     15  C   UNL     1      10.581   1.107  -0.820  0.00  0.00    +0.004 A 
ATOM     16  C   UNL     1      11.975   0.889  -0.700  0.00  0.00    -0.016 A 
ATOM     17  C   UNL     1      12.748   0.722  -1.863  0.00  0.00    +0.008 A 
ATOM     18  C   UNL     1      12.561   0.844   0.576  0.00  0.00    +0.008 A 
ATOM     19  C   UNL     1      11.789   1.010   1.685  0.00  0.00    +0.002 A 
ATOM     20  C   UNL     1      10.418   1.229   1.580  0.00  0.00    +0.024 A 
ATOM     21  C   UNL     1       9.805   1.275   0.346  0.00  0.00    +0.051 A 
ENDBRANCH   1  21
BRANCH   5  22
ATOM     22  C   UNL     1       4.593   4.389  -0.308  0.00  0.00    +0.129 A 
ATOM     23  C   UNL     1       3.754   5.354   0.236  0.00  0.00    +0.050 A 
ATOM     24  C   UNL     1       2.491   5.144  -0.312  0.00  0.00    +0.050 A 
ATOM     25  C   UNL     1       2.596   4.066  -1.168  0.00  0.00    +0.136 A 
ATOM     26  O   UNL     1       3.864   3.623  -1.148  0.00  0.00    -0.455 OA
BRANCH  25  27
ATOM     27  C   UNL     1       1.496   3.492  -1.967  0.00  0.00    +0.017 A 
ATOM     28  C   UNL     1       1.732   2.395  -2.800  0.00  0.00    +0.013 A 
ATOM     29  C   UNL     1       0.700   1.864  -3.543  0.00  0.00    +0.029 A 
ATOM     30  C   UNL     1      -0.567   2.418  -3.471  0.00  0.00    +0.105 A 
ATOM     31  C   UNL     1      -0.809   3.501  -2.644  0.00  0.00    +0.029 A 
ATOM     32  C   UNL     1       0.214   4.043  -1.895  0.00  0.00    +0.013 A 
BRANCH  30  33
ATOM     33  S   UNL     1      -1.878   1.737  -4.430  0.00  0.00    +0.056 S 
ATOM     34  O   UNL     1      -2.836   2.772  -4.601  0.00  0.00    -0.153 OA
ATOM     35  O   UNL     1      -1.273   1.070  -5.530  0.00  0.00    -0.153 OA
BRANCH  33  36
ATOM     36  N   UNL     1      -2.603   0.568  -3.509  0.00  0.00    -0.204 NA
ATOM     37  H   UNL     1      -3.547   0.377  -3.622  0.00  0.00    +0.144 HD
ATOM     38  H   UNL     1      -2.084   0.073  -2.855  0.00  0.00    +0.144 HD
ENDBRANCH  33  36
ENDBRANCH  30  33
ENDBRANCH  25  27
ENDBRANCH   5  22
TORSDOF 5
