REMARK  Name = ZINC09292156
REMARK  7 active torsions:
REMARK  status: ('A' for Active; 'I' for Inactive)
REMARK    1  A    between atoms: C_4  and  C_7
REMARK    2  A    between atoms: C_7  and  O_8
REMARK    3  A    between atoms: O_8  and  C_9
REMARK    4  A    between atoms: C_12  and  C_15
REMARK    5  A    between atoms: C_22  and  N_33
REMARK    6  A    between atoms: C_23  and  C_31
REMARK    7  A    between atoms: C_24  and  C_26
REMARK                            x       y       z     vdW  Elec       q    Type
REMARK                         _______ _______ _______ _____ _____    ______ ____
ROOT
ATOM      1  C   UNL     1       9.445  -3.757   2.161  0.00  0.00    +0.100 A 
ATOM      2  C   UNL     1      10.399  -3.574   1.155  0.00  0.00    +0.055 A 
ATOM      3  C   UNL     1      11.481  -4.351   1.453  0.00  0.00    +0.223 A 
ATOM      4  N   UNL     1      11.216  -4.998   2.607  0.00  0.00    -0.246 N 
ATOM      5  H   UNL     1      11.807  -5.619   3.060  0.00  0.00    +0.192 HD
ATOM      6  N   UNL     1       9.938  -4.610   3.038  0.00  0.00    -0.171 NA
ATOM      7  O   UNL     1      12.584  -4.401   0.666  0.00  0.00    -0.423 OA
ATOM      8  C   UNL     1      12.493  -3.876  -0.573  0.00  0.00    +0.200 C 
ATOM      9  C   UNL     1      11.478  -3.082  -0.980  0.00  0.00    +0.099 C 
ATOM     10  C   UNL     1      10.336  -2.701  -0.071  0.00  0.00    +0.108 C 
ENDROOT
BRANCH   1  14
ATOM     11  C   UNL     1       5.632  -1.881   2.366  0.00  0.00    +0.121 A 
ATOM     12  C   UNL     1       6.103  -2.362   1.152  0.00  0.00    +0.046 A 
ATOM     13  C   UNL     1       7.339  -2.970   1.082  0.00  0.00    +0.013 A 
ATOM     14  C   UNL     1       8.115  -3.102   2.232  0.00  0.00    +0.003 A 
ATOM     15  C   UNL     1       7.640  -2.618   3.450  0.00  0.00    +0.013 A 
ATOM     16  C   UNL     1       6.405  -2.006   3.512  0.00  0.00    +0.046 A 
BRANCH  11  17
ATOM     17  O   UNL     1       4.414  -1.282   2.432  0.00  0.00    -0.487 OA
BRANCH  17  18
ATOM     18  C   UNL     1       3.671  -1.187   1.215  0.00  0.00    +0.264 C 
BRANCH  18  22
ATOM     19  C   UNL     1      -0.054   0.765   1.966  0.00  0.00    +0.000 A 
ATOM     20  C   UNL     1       1.058   1.508   1.618  0.00  0.00    +0.000 A 
ATOM     21  C   UNL     1       2.264   0.877   1.375  0.00  0.00    +0.007 A 
ATOM     22  C   UNL     1       2.357  -0.498   1.481  0.00  0.00    -0.010 A 
ATOM     23  C   UNL     1       1.246  -1.242   1.830  0.00  0.00    +0.007 A 
ATOM     24  C   UNL     1       0.040  -0.611   2.071  0.00  0.00    +0.000 A 
ENDBRANCH  18  22
ENDBRANCH  17  18
ENDBRANCH  11  17
ENDBRANCH   1  14
BRANCH  10  25
ATOM     25  C   UNL     1      10.465  -1.253   0.328  0.00  0.00    +0.003 A 
ATOM     26  C   UNL     1       9.640  -0.214   0.049  0.00  0.00    +0.012 A 
ATOM     27  C   UNL     1       9.962   1.043   0.525  0.00  0.00    +0.008 A 
ATOM     28  C   UNL     1      11.091   1.199   1.258  0.00  0.00    +0.045 A 
ATOM     29  S   UNL     1      11.739  -0.464   1.298  0.00  0.00    -0.101 S 
ENDBRANCH  10  25
BRANCH   8  30
ATOM     30  N   UNL     1      13.490  -4.163  -1.472  0.00  0.00    -0.328 N 
ATOM     31  H   UNL     1      14.232  -4.730  -1.209  0.00  0.00    +0.145 HD
ATOM     32  H   UNL     1      13.452  -3.800  -2.370  0.00  0.00    +0.145 HD
ENDBRANCH   8  30
BRANCH   9  33
ATOM     33  C   UNL     1      11.487  -2.584  -2.323  0.00  0.00    +0.101 C 
ATOM     34  N   UNL     1      11.495  -2.190  -3.388  0.00  0.00    -0.191 NA
ENDBRANCH   9  33
TORSDOF 7
