REMARK  Name = ZINC41553822
REMARK  8 active torsions:
REMARK  status: ('A' for Active; 'I' for Inactive)
REMARK    1  A    between atoms: C_1  and  C_2
REMARK    2  A    between atoms: C_2  and  C_3
REMARK    3  A    between atoms: C_2  and  C_4
REMARK    4  A    between atoms: C_2  and  C_5
REMARK    5  A    between atoms: C_10  and  N_11
REMARK    6  A    between atoms: C_12  and  C_14
REMARK    7  A    between atoms: N_16  and  C_17
REMARK    8  A    between atoms: C_24  and  C_26
REMARK                            x       y       z     vdW  Elec       q    Type
REMARK                         _______ _______ _______ _____ _____    ______ ____
ROOT
ATOM      1  C   UNL     1       3.417   3.467  -0.934  0.00  0.00    +0.303 C 
ATOM      2  O   UNL     1       2.451   4.145  -1.219  0.00  0.00    -0.265 OA
ATOM      3  N   UNL     1       4.573   4.059  -0.574  0.00  0.00    -0.278 N 
ATOM      4  H   UNL     1       5.325   3.518  -0.285  0.00  0.00    +0.155 HD
ENDROOT
BRANCH   3   5
ATOM      5  C   UNL     1       4.690   5.452  -0.618  0.00  0.00    +0.036 A 
ATOM      6  C   UNL     1       3.595   6.250  -0.292  0.00  0.00    +0.027 A 
ATOM      7  C   UNL     1       3.697   7.624  -0.332  0.00  0.00    +0.050 A 
ATOM      8  C   UNL     1       4.896   8.219  -0.699  0.00  0.00    +0.155 A 
ATOM      9  C   UNL     1       6.002   7.422  -1.028  0.00  0.00    +0.111 A 
ATOM     10  C   UNL     1       5.893   6.032  -0.980  0.00  0.00    +0.055 A 
ATOM     11  N   UNL     1       7.015   8.275  -1.341  0.00  0.00    -0.213 NA
ATOM     12  C   UNL     1       6.587   9.496  -1.219  0.00  0.00    +0.200 A 
ATOM     13  O   UNL     1       5.302   9.502  -0.830  0.00  0.00    -0.439 OA
BRANCH  12  14
ATOM     14  C   UNL     1       7.414  10.728  -1.477  0.00  0.00    +0.075 C 
ATOM     15  C   UNL     1       6.809  12.079  -1.089  0.00  0.00    +0.013 C 
ATOM     16  C   UNL     1       6.930  11.690  -2.564  0.00  0.00    +0.013 C 
ENDBRANCH  12  14
ENDBRANCH   3   5
BRANCH   1  18
ATOM     17  N   UNL     1       2.167   1.386  -1.342  0.00  0.00    -0.304 N 
ATOM     18  C   UNL     1       3.324   1.977  -0.982  0.00  0.00    +0.300 C 
ATOM     19  O   UNL     1       4.289   1.299  -0.698  0.00  0.00    -0.265 OA
ATOM     20  H   UNL     1       1.395   1.928  -1.570  0.00  0.00    +0.149 HD
BRANCH  17  26
ATOM     21  C   UNL     1       0.626  -0.503  -1.153  0.00  0.00    +0.015 C 
ATOM     22  C   UNL     1       0.530  -2.030  -1.202  0.00  0.00    +0.006 C 
ATOM     23  C   UNL     1       0.991  -2.525  -2.575  0.00  0.00    +0.000 C 
ATOM     24  C   UNL     1       2.441  -2.097  -2.811  0.00  0.00    +0.002 C 
ATOM     25  C   UNL     1       2.536  -0.571  -2.762  0.00  0.00    +0.022 C 
ATOM     26  C   UNL     1       2.075  -0.075  -1.389  0.00  0.00    +0.077 C 
BRANCH  21  28
ATOM     27  C   UNL     1       0.121   1.522   0.221  0.00  0.00    +0.011 C 
ATOM     28  C   UNL     1       0.165  -0.008   0.219  0.00  0.00    -0.033 C 
ATOM     29  C   UNL     1       1.144  -0.491   1.291  0.00  0.00    +0.011 C 
ATOM     30  C   UNL     1      -1.231  -0.558   0.518  0.00  0.00    +0.011 C 
ENDBRANCH  21  28
ENDBRANCH  17  26
ENDBRANCH   1  18
TORSDOF 5
