REMARK  Name = ZINC33289452
REMARK  5 active torsions:
REMARK  status: ('A' for Active; 'I' for Inactive)
REMARK    1  A    between atoms: C_1  and  C_2
REMARK    2  A    between atoms: C_5  and  N_9
REMARK    3  A    between atoms: C_10  and  C_12
REMARK    4  A    between atoms: C_12  and  N_13
REMARK    5  A    between atoms: C_27  and  C_31
REMARK                            x       y       z     vdW  Elec       q    Type
REMARK                         _______ _______ _______ _____ _____    ______ ____
ROOT
ATOM      1  N   UNL     1       2.631   3.965   0.087  0.00  0.00    -0.217 N 
ATOM      2  C   UNL     1       3.347   4.293  -1.008  0.00  0.00    +0.366 A 
ATOM      3  O   UNL     1       2.935   4.276  -2.155  0.00  0.00    -0.243 OA
ATOM      4  N   UNL     1       4.579   4.639  -0.631  0.00  0.00    -0.172 NA
ATOM      5  C   UNL     1       4.685   4.545   0.688  0.00  0.00    +0.169 A 
ATOM      6  N   UNL     1       3.484   4.130   1.190  0.00  0.00    -0.218 N 
ATOM      7  C   UNL     1       3.308   3.956   2.523  0.00  0.00    +0.224 A 
ATOM      8  N   UNL     1       4.280   4.182   3.367  0.00  0.00    -0.228 NA
ATOM      9  C   UNL     1       5.475   4.589   2.951  0.00  0.00    +0.114 A 
ATOM     10  C   UNL     1       5.764   4.793   1.589  0.00  0.00    +0.055 A 
ATOM     11  C   UNL     1       7.121   5.246   1.286  0.00  0.00    -0.024 A 
ATOM     12  C   UNL     1       7.960   5.413   2.330  0.00  0.00    -0.004 A 
ATOM     13  S   UNL     1       7.002   4.990   3.761  0.00  0.00    -0.073 S 
ATOM     14  C   UNL     1       9.389   5.859   2.284  0.00  0.00    +0.046 C 
ATOM     15  C   UNL     1       9.666   6.459   0.898  0.00  0.00    -0.009 C 
ATOM     16  C   UNL     1       9.120   5.505  -0.168  0.00  0.00    +0.008 C 
ATOM     17  C   UNL     1       7.591   5.516  -0.141  0.00  0.00    +0.037 C 
ATOM     18  C   UNL     1      11.174   6.634   0.707  0.00  0.00    +0.008 C 
ENDROOT
BRANCH   1  19
ATOM     19  C   UNL     1       1.234   3.527   0.120  0.00  0.00    +0.243 C 
BRANCH  19  21
ATOM     20  N   UNL     1      -0.017   1.395   0.010  0.00  0.00    -0.283 N 
ATOM     21  C   UNL     1       1.174   2.026   0.002  0.00  0.00    +0.239 C 
ATOM     22  O   UNL     1       2.199   1.385  -0.099  0.00  0.00    -0.273 OA
ATOM     23  H   UNL     1      -0.949   1.980   0.010  0.00  0.00    +0.155 HD
BRANCH  20  28
ATOM     24  C   UNL     1      -0.227  -4.275   0.041  0.00  0.00    +0.044 C 
ATOM     25  C   UNL     1      -0.172  -2.769   0.032  0.00  0.00    -0.049 A 
ATOM     26  C   UNL     1       0.943  -2.117   0.527  0.00  0.00    +0.005 A 
ATOM     27  C   UNL     1       0.997  -0.737   0.521  0.00  0.00    +0.024 A 
ATOM     28  C   UNL     1      -0.069  -0.003   0.017  0.00  0.00    +0.048 A 
ATOM     29  C   UNL     1      -1.189  -0.661  -0.476  0.00  0.00    +0.039 A 
ATOM     30  C   UNL     1      -1.235  -2.042  -0.471  0.00  0.00    +0.020 A 
ATOM     31 BR   UNL     1      -2.647   0.333  -1.157  0.00  0.00    -0.048 Br
ENDBRANCH  20  28
ENDBRANCH  19  21
ENDBRANCH   1  19
TORSDOF 3
