REMARK  Name = ZINC39578400
REMARK  7 active torsions:
REMARK  status: ('A' for Active; 'I' for Inactive)
REMARK    1  A    between atoms: C_1  and  C_2
REMARK    2  A    between atoms: C_2  and  C_3
REMARK    3  A    between atoms: C_10  and  C_12
REMARK    4  A    between atoms: C_12  and  S_13
REMARK    5  A    between atoms: S_13  and  C_14
REMARK    6  A    between atoms: C_17  and  C_20
REMARK    7  A    between atoms: N_18  and  N_19
REMARK                            x       y       z     vdW  Elec       q    Type
REMARK                         _______ _______ _______ _____ _____    ______ ____
ROOT
ATOM      1  C   UNL     1       6.132   2.336   1.199  0.00  0.00    +0.209 A 
ATOM      2  N   UNL     1       6.963   1.891   0.285  0.00  0.00    -0.121 NA
ATOM      3  N   UNL     1       8.144   2.347   0.511  0.00  0.00    -0.132 NA
ATOM      4  C   UNL     1       8.136   3.103   1.572  0.00  0.00    +0.154 A 
ATOM      5  N   UNL     1       6.853   3.127   2.045  0.00  0.00    -0.228 N 
ENDROOT
BRANCH   4   6
ATOM      6  C   UNL     1       9.321   3.822   2.165  0.00  0.00    +0.059 C 
ATOM      7  C   UNL     1      10.393   2.803   2.556  0.00  0.00    +0.011 C 
ATOM      8  C   UNL     1      11.595   3.533   3.158  0.00  0.00    +0.001 C 
ATOM      9  C   UNL     1      12.169   4.507   2.127  0.00  0.00    +0.000 C 
ATOM     10  C   UNL     1      11.097   5.526   1.736  0.00  0.00    +0.001 C 
ATOM     11  C   UNL     1       9.894   4.796   1.134  0.00  0.00    +0.011 C 
ENDBRANCH   4   6
BRANCH   5  12
ATOM     12  N   UNL     1       6.390   3.802   3.139  0.00  0.00    -0.295 N 
ATOM     13  H   UNL     1       6.456   3.232   3.970  0.00  0.00    +0.163 HD
ATOM     14  H   UNL     1       6.881   4.675   3.261  0.00  0.00    +0.163 HD
ENDBRANCH   5  12
BRANCH   1  15
ATOM     15  S   UNL     1       4.409   1.983   1.308  0.00  0.00    -0.075 S 
BRANCH  15  16
ATOM     16  C   UNL     1       4.096   0.886  -0.103  0.00  0.00    +0.173 C 
BRANCH  16  23
ATOM     17  C   UNL     1       0.735  -0.599  -1.203  0.00  0.00    +0.076 C 
ATOM     18  C   UNL     1       0.532  -2.118  -1.211  0.00  0.00    +0.022 C 
ATOM     19  C   UNL     1       1.382  -2.736  -2.323  0.00  0.00    +0.003 C 
ATOM     20  C   UNL     1       2.862  -2.448  -2.057  0.00  0.00    +0.019 C 
ATOM     21  C   UNL     1       3.091  -0.934  -2.058  0.00  0.00    +0.108 C 
ATOM     22  N   UNL     1       2.172  -0.312  -1.095  0.00  0.00    -0.298 N 
ATOM     23  C   UNL     1       2.638   0.503  -0.128  0.00  0.00    +0.226 C 
ATOM     24  O   UNL     1       1.885   0.928   0.722  0.00  0.00    -0.275 OA
BRANCH  17  26
ATOM     25  C   UNL     1      -1.497  -0.289  -0.125  0.00  0.00    +0.006 C 
ATOM     26  C   UNL     1      -0.001   0.011  -0.009  0.00  0.00    +0.019 C 
ENDBRANCH  17  26
ENDBRANCH  16  23
ENDBRANCH  15  16
ENDBRANCH   1  15
TORSDOF 6
