REMARK  Name = ZINC41213682
REMARK  9 active torsions:
REMARK  status: ('A' for Active; 'I' for Inactive)
REMARK    1  A    between atoms: C_1  and  C_2
REMARK    2  A    between atoms: C_2  and  O_3
REMARK    3  A    between atoms: O_3  and  C_4
REMARK    4  A    between atoms: C_6  and  C_11
REMARK    5  A    between atoms: C_9  and  O_10
REMARK    6  A    between atoms: N_12  and  N_13
REMARK    7  A    between atoms: C_14  and  C_16
REMARK    8  A    between atoms: C_16  and  C_17
REMARK    9  A    between atoms: C_17  and  C_18
REMARK                            x       y       z     vdW  Elec       q    Type
REMARK                         _______ _______ _______ _____ _____    ______ ____
ROOT
ATOM      1  N   UNL     1      -0.645  -7.119   1.244  0.00  0.00    -0.207 N 
ATOM      2  C   UNL     1      -0.538  -8.452   1.078  0.00  0.00    +0.233 C 
ATOM      3  O   UNL     1       0.024  -8.898   0.100  0.00  0.00    -0.274 OA
ATOM      4  H   UNL     1      -1.095  -6.762   2.026  0.00  0.00    +0.177 HD
ENDROOT
BRANCH   1   6
ATOM      5  C   UNL     1      -0.211  -4.964   0.447  0.00  0.00    +0.138 C 
ATOM      6  N   UNL     1      -0.108  -6.248   0.287  0.00  0.00    -0.188 NA
BRANCH   5   9
ATOM      7  C   UNL     1       0.777  -1.811  -1.336  0.00  0.00    +0.162 A 
ATOM      8  C   UNL     1       0.244  -2.665  -0.389  0.00  0.00    +0.059 A 
ATOM      9  C   UNL     1       0.354  -4.048  -0.560  0.00  0.00    -0.002 A 
ATOM     10  C   UNL     1       1.002  -4.560  -1.687  0.00  0.00    +0.013 A 
ATOM     11  C   UNL     1       1.531  -3.701  -2.627  0.00  0.00    +0.050 A 
ATOM     12  C   UNL     1       1.417  -2.329  -2.460  0.00  0.00    +0.158 A 
BRANCH  12  13
ATOM     13  O   UNL     1       1.935  -1.487  -3.393  0.00  0.00    -0.503 OA
ATOM     14  H   UNL     1       2.854  -1.235  -3.229  0.00  0.00    +0.292 HD
ENDBRANCH  12  13
BRANCH   7  15
ATOM     15  O   UNL     1       0.671  -0.465  -1.174  0.00  0.00    -0.489 OA
BRANCH  15  17
ATOM     16  C   UNL     1      -0.019   1.526   0.010  0.00  0.00    +0.048 C 
ATOM     17  C   UNL     1       0.002  -0.004   0.002  0.00  0.00    +0.226 C 
ENDBRANCH  15  17
ENDBRANCH   7  15
ENDBRANCH   5   9
ENDBRANCH   1   6
BRANCH   2  18
ATOM     18  C   UNL     1      -1.117  -9.388   2.108  0.00  0.00    +0.104 C 
BRANCH  18  19
ATOM     19  C   UNL     1      -0.860 -10.835   1.682  0.00  0.00    +0.070 C 
BRANCH  19  20
ATOM     20  C   UNL     1      -1.438 -11.772   2.711  0.00  0.00    +0.106 A 
ATOM     21  C   UNL     1      -1.315 -13.222   2.531  0.00  0.00    +0.271 A 
ATOM     22  N   UNL     1      -1.838 -14.049   3.462  0.00  0.00    -0.319 N 
ATOM     23  C   UNL     1      -2.474 -13.503   4.559  0.00  0.00    +0.068 A 
ATOM     24  C   UNL     1      -3.023 -14.328   5.536  0.00  0.00    +0.028 A 
ATOM     25  C   UNL     1      -3.656 -13.772   6.626  0.00  0.00    +0.002 A 
ATOM     26  C   UNL     1      -3.751 -12.393   6.758  0.00  0.00    +0.002 A 
ATOM     27  C   UNL     1      -3.220 -11.565   5.813  0.00  0.00    +0.030 A 
ATOM     28  C   UNL     1      -2.571 -12.105   4.692  0.00  0.00    +0.088 A 
ATOM     29  N   UNL     1      -2.041 -11.290   3.760  0.00  0.00    -0.245 NA
ATOM     30  O   UNL     1      -0.748 -13.676   1.553  0.00  0.00    -0.266 OA
ATOM     31  H   UNL     1      -1.767 -15.012   3.362  0.00  0.00    +0.169 HD
ENDBRANCH  19  20
ENDBRANCH  18  19
ENDBRANCH   2  18
TORSDOF 8
