REMARK  Name = ZINC06624101
REMARK  5 active torsions:
REMARK  status: ('A' for Active; 'I' for Inactive)
REMARK    1  A    between atoms: C_1  and  C_2
REMARK    2  A    between atoms: C_2  and  C_3
REMARK    3  A    between atoms: C_2  and  C_4
REMARK    4  A    between atoms: C_10  and  C_15
REMARK    5  A    between atoms: C_16  and  N_24
REMARK                            x       y       z     vdW  Elec       q    Type
REMARK                         _______ _______ _______ _____ _____    ______ ____
ROOT
ATOM      1  C   UNL     1       0.488   9.099  -0.332  0.00  0.00    -0.044 A 
ATOM      2  C   UNL     1      -0.203  10.302  -0.331  0.00  0.00    +0.007 A 
ATOM      3  C   UNL     1      -1.577  10.322  -0.215  0.00  0.00    +0.047 A 
ATOM      4  C   UNL     1      -2.282   9.131  -0.098  0.00  0.00    +0.140 A 
ATOM      5  C   UNL     1      -1.583   7.915  -0.098  0.00  0.00    +0.029 A 
ATOM      6  C   UNL     1      -0.193   7.907  -0.216  0.00  0.00    +0.016 A 
ATOM      7  C   UNL     1      -2.343   6.655   0.028  0.00  0.00    +0.037 A 
ATOM      8  C   UNL     1      -3.728   6.744   0.136  0.00  0.00    +0.104 A 
ATOM      9  C   UNL     1      -4.338   8.002   0.131  0.00  0.00    +0.338 A 
ATOM     10  O   UNL     1      -5.552   8.071   0.230  0.00  0.00    -0.245 OA
ATOM     11  O   UNL     1      -3.628   9.136   0.016  0.00  0.00    -0.422 OA
ENDROOT
BRANCH   7  12
ATOM     12  C   UNL     1      -1.665   5.359   0.032  0.00  0.00    +0.158 A 
ATOM     13  C   UNL     1      -1.894   4.342   0.935  0.00  0.00    +0.079 A 
ATOM     14  C   UNL     1      -0.990   3.253   0.546  0.00  0.00    +0.041 A 
ATOM     15  C   UNL     1      -0.745   1.972   1.044  0.00  0.00    +0.013 A 
ATOM     16  C   UNL     1       0.191   1.179   0.442  0.00  0.00    +0.001 A 
ATOM     17  C   UNL     1       0.889   1.635  -0.667  0.00  0.00    +0.004 A 
ATOM     18  C   UNL     1       0.657   2.894  -1.177  0.00  0.00    +0.047 A 
ATOM     19  C   UNL     1      -0.286   3.721  -0.577  0.00  0.00    +0.138 A 
ATOM     20  O   UNL     1      -0.716   4.970  -0.847  0.00  0.00    -0.453 OA
BRANCH  13  21
ATOM     21  N   UNL     1      -2.793   4.348   1.994  0.00  0.00    -0.355 N 
ATOM     22  H   UNL     1      -2.932   3.543   2.517  0.00  0.00    +0.142 HD
ATOM     23  H   UNL     1      -3.282   5.157   2.211  0.00  0.00    +0.142 HD
ENDBRANCH  13  21
ENDBRANCH   7  12
BRANCH   1  25
ATOM     24  C   UNL     1       2.390   9.756  -1.782  0.00  0.00    +0.012 C 
ATOM     25  C   UNL     1       1.989   9.097  -0.460  0.00  0.00    +0.013 C 
ATOM     26  C   UNL     1       2.602   9.877   0.705  0.00  0.00    +0.012 C 
ENDBRANCH   1  25
TORSDOF 3
