REMARK  Name = ZINC20993764
REMARK  10 active torsions:
REMARK  status: ('A' for Active; 'I' for Inactive)
REMARK    1  A    between atoms: C_1  and  C_2
REMARK    2  A    between atoms: C_11  and  C_12
REMARK    3  A    between atoms: C_12  and  N_13
REMARK    4  A    between atoms: N_16  and  C_23
REMARK    5  A    between atoms: C_17  and  C_20
REMARK    6  A    between atoms: C_20  and  C_21
REMARK    7  A    between atoms: C_21  and  O_22
REMARK    8  A    between atoms: N_26  and  C_29
REMARK    9  A    between atoms: C_29  and  C_30
REMARK   10  A    between atoms: C_29  and  C_31
REMARK                            x       y       z     vdW  Elec       q    Type
REMARK                         _______ _______ _______ _____ _____    ______ ____
ROOT
ATOM      1  N   UNL     1       1.766   2.085   0.437  0.00  0.00    -0.300 NA
ATOM      2  C   UNL     1       2.620   1.300  -0.465  0.00  0.00    +0.066 C 
ATOM      3  C   UNL     1       4.014   1.928  -0.518  0.00  0.00    -0.062 C 
ATOM      4  N   UNL     1       3.905   3.319  -0.979  0.00  0.00    +0.385 N 
ATOM      5  C   UNL     1       3.051   4.104  -0.077  0.00  0.00    -0.052 C 
ATOM      6  C   UNL     1       1.656   3.476  -0.024  0.00  0.00    +0.069 C 
ATOM      7  H   UNL     1       3.433   3.312  -1.973  0.00  0.00    -0.081 HD
ENDROOT
BRANCH   4   8
ATOM      8  C   UNL     1       5.231   3.935  -1.116  0.00  0.00    -0.066 C 
ATOM      9  C   UNL     1       6.020   3.213  -2.213  0.00  0.00    +0.000 C 
ATOM     10  C   UNL     1       7.422   3.817  -2.308  0.00  0.00    +0.083 C 
ATOM     11  N   UNL     1       8.106   3.680  -1.016  0.00  0.00    -0.300 NA
ATOM     12  C   UNL     1       7.392   4.405   0.043  0.00  0.00    +0.083 C 
ATOM     13  C   UNL     1       5.989   3.817   0.209  0.00  0.00    +0.000 C 
BRANCH  11  14
ATOM     14  C   UNL     1       9.503   4.125  -1.109  0.00  0.00    +0.050 C 
ATOM     15  C   UNL     1      10.245   3.263  -2.133  0.00  0.00    +0.024 C 
ATOM     16  C   UNL     1       9.543   5.589  -1.550  0.00  0.00    +0.024 C 
ENDBRANCH  11  14
ENDBRANCH   4   8
BRANCH   1  17
ATOM     17  C   UNL     1       0.439   1.470   0.574  0.00  0.00    +0.137 C 
BRANCH  17  28
ATOM     18  C   UNL     1       1.132   0.136   3.290  0.00  0.00    +0.046 C 
ATOM     19  C   UNL     1       0.893  -0.579   1.986  0.00  0.00    -0.021 A 
ATOM     20  C   UNL     1       0.945  -2.026   1.763  0.00  0.00    +0.004 A 
ATOM     21  C   UNL     1       1.204  -3.126   2.585  0.00  0.00    +0.010 A 
ATOM     22  C   UNL     1       1.175  -4.387   2.060  0.00  0.00    +0.002 A 
ATOM     23  C   UNL     1       0.892  -4.585   0.715  0.00  0.00    +0.022 A 
ATOM     24  C   UNL     1       0.635  -3.514  -0.114  0.00  0.00    +0.065 A 
ATOM     25  C   UNL     1       0.658  -2.220   0.401  0.00  0.00    +0.066 A 
ATOM     26  N   UNL     1       0.444  -0.977  -0.151  0.00  0.00    -0.356 N 
ATOM     27  H   UNL     1       0.193  -0.884  -1.218  0.00  0.00    +0.166 HD
ATOM     28  C   UNL     1       0.594  -0.011   0.807  0.00  0.00    +0.034 A 
ATOM     29 CL   UNL     1       0.282  -3.777  -1.793  0.00  0.00    -0.081 Cl
ENDBRANCH  17  28
ENDBRANCH   1  17
BRANCH   5  30
ATOM     30  C   UNL     1       2.944   5.540  -0.595  0.00  0.00    +0.014 C 
BRANCH  30  31
ATOM     31  C   UNL     1       2.116   6.375   0.383  0.00  0.00    +0.154 C 
BRANCH  31  32
ATOM     32  O   UNL     1       2.116   7.741  -0.038  0.00  0.00    -0.395 OA
ATOM     33  H   UNL     1       1.569   8.496   0.545  0.00  0.00    +0.209 HD
ENDBRANCH  31  32
ENDBRANCH  30  31
ENDBRANCH   5  30
TORSDOF 7
