REMARK  Name = ZINC43231356
REMARK  8 active torsions:
REMARK  status: ('A' for Active; 'I' for Inactive)
REMARK    1  A    between atoms: C_3  and  C_27
REMARK    2  A    between atoms: N_7  and  C_8
REMARK    3  A    between atoms: C_8  and  C_9
REMARK    4  A    between atoms: C_9  and  N_10
REMARK    5  A    between atoms: N_13  and  C_14
REMARK    6  A    between atoms: C_14  and  C_15
REMARK    7  A    between atoms: C_15  and  C_17
REMARK    8  A    between atoms: C_15  and  N_22
REMARK                            x       y       z     vdW  Elec       q    Type
REMARK                         _______ _______ _______ _____ _____    ______ ____
ROOT
ATOM      1  N   UNL     1       4.782  -4.291   0.017  0.00  0.00    -0.298 N 
ATOM      2  C   UNL     1       5.913  -5.017   0.123  0.00  0.00    +0.300 C 
ATOM      3  O   UNL     1       6.971  -4.465   0.350  0.00  0.00    -0.253 OA
ATOM      4  N   UNL     1       5.870  -6.356  -0.024  0.00  0.00    -0.301 N 
ATOM      5  H   UNL     1       3.938  -4.732  -0.165  0.00  0.00    +0.150 HD
ATOM      6  H   UNL     1       5.025  -6.797  -0.205  0.00  0.00    +0.150 HD
ENDROOT
BRANCH   1   7
ATOM      7  C   UNL     1       4.830  -2.835   0.176  0.00  0.00    +0.124 C 
BRANCH   7   8
ATOM      8  C   UNL     1       3.422  -2.258   0.011  0.00  0.00    +0.121 C 
BRANCH   8  15
ATOM      9  C   UNL     1      -0.003   1.386  -0.160  0.00  0.00    +0.021 A 
ATOM     10  C   UNL     1       1.171   2.072   0.101  0.00  0.00    +0.024 A 
ATOM     11  C   UNL     1       2.358   1.340   0.215  0.00  0.00    +0.091 A 
ATOM     12  C   UNL     1       2.308  -0.057   0.061  0.00  0.00    +0.136 A 
ATOM     13  N   UNL     1       1.158  -0.662  -0.187  0.00  0.00    -0.239 NA
ATOM     14  C   UNL     1       0.029   0.011  -0.298  0.00  0.00    +0.113 A 
ATOM     15  N   UNL     1       3.469  -0.803   0.170  0.00  0.00    -0.327 N 
ATOM     16  H   UNL     1       4.314  -0.362   0.352  0.00  0.00    +0.148 HD
BRANCH  11  17
ATOM     17  C   UNL     1       3.600   2.000   0.483  0.00  0.00    +0.103 C 
ATOM     18  N   UNL     1       4.585   2.525   0.695  0.00  0.00    -0.191 NA
ENDBRANCH  11  17
ENDBRANCH   8  15
ENDBRANCH   7   8
ENDBRANCH   1   7
BRANCH   4  19
ATOM     19  C   UNL     1       7.098  -7.146   0.091  0.00  0.00    +0.095 C 
BRANCH  19  20
ATOM     20  C   UNL     1       6.756  -8.635   0.017  0.00  0.00    -0.013 C 
BRANCH  20  21
ATOM     21  N   UNL     1       7.996  -9.422   0.001  0.00  0.00    +0.386 N 
ATOM     22  C   UNL     1       7.682 -10.871  -0.092  0.00  0.00    -0.078 C 
ATOM     23  C   UNL     1       8.990 -11.482  -0.655  0.00  0.00    -0.020 C 
ATOM     24  C   UNL     1       9.469 -10.408  -1.659  0.00  0.00    -0.020 C 
ATOM     25  C   UNL     1       8.787  -9.103  -1.207  0.00  0.00    -0.078 C 
ATOM     26  H   UNL     1       8.538  -9.235   0.831  0.00  0.00    -0.081 HD
ENDBRANCH  20  21
BRANCH  20  27
ATOM     27  C   UNL     1       5.931  -9.022   1.218  0.00  0.00    -0.022 A 
ATOM     28  C   UNL     1       4.590  -9.193   1.312  0.00  0.00    +0.009 A 
ATOM     29  C   UNL     1       4.045  -9.554   2.530  0.00  0.00    +0.008 A 
ATOM     30  C   UNL     1       4.868  -9.726   3.594  0.00  0.00    +0.045 A 
ATOM     31  S   UNL     1       6.468  -9.380   2.882  0.00  0.00    -0.103 S 
ENDBRANCH  20  27
ENDBRANCH  19  20
ENDBRANCH   4  19
TORSDOF 8
