REMARK  Name = ZINC01923325
REMARK  10 active torsions:
REMARK  status: ('A' for Active; 'I' for Inactive)
REMARK    1  A    between atoms: C_1  and  C_2
REMARK    2  A    between atoms: C_9  and  N_15
REMARK    3  A    between atoms: C_10  and  C_11
REMARK    4  A    between atoms: C_11  and  O_13
REMARK    5  A    between atoms: O_13  and  C_14
REMARK    6  A    between atoms: C_16  and  C_18
REMARK    7  A    between atoms: C_18  and  N_19
REMARK    8  A    between atoms: C_23  and  S_24
REMARK    9  A    between atoms: S_24  and  C_25
REMARK   10  A    between atoms: C_25  and  C_26
REMARK                            x       y       z     vdW  Elec       q    Type
REMARK                         _______ _______ _______ _____ _____    ______ ____
ROOT
ATOM      1  N   UNL     1       1.930  -5.845  -1.738  0.00  0.00    -0.278 N 
ATOM      2  C   UNL     1       2.227  -6.106  -3.026  0.00  0.00    +0.238 C 
ATOM      3  O   UNL     1       2.199  -5.214  -3.848  0.00  0.00    -0.273 OA
ATOM      4  H   UNL     1       1.953  -6.558  -1.081  0.00  0.00    +0.155 HD
ENDROOT
BRANCH   1  12
ATOM      5  C   UNL     1      -0.019   1.526   0.010  0.00  0.00    +0.008 C 
ATOM      6  C   UNL     1       0.002  -0.004   0.002  0.00  0.00    -0.009 C 
ATOM      7  C   UNL     1       0.742  -0.514   1.242  0.00  0.00    +0.008 C 
ATOM      8  C   UNL     1       0.557  -2.027   1.373  0.00  0.00    +0.037 C 
ATOM      9  C   UNL     1       0.941  -2.684   0.053  0.00  0.00    -0.021 A 
ATOM     10  C   UNL     1       1.008  -1.966  -1.089  0.00  0.00    -0.004 A 
ATOM     11  S   UNL     1       1.484  -3.133  -2.332  0.00  0.00    -0.077 S 
ATOM     12  C   UNL     1       1.592  -4.558  -1.351  0.00  0.00    +0.086 A 
ATOM     13  C   UNL     1       1.258  -4.096  -0.085  0.00  0.00    +0.091 A 
ATOM     14  C   UNL     1       0.736  -0.502  -1.252  0.00  0.00    +0.046 C 
BRANCH  13  15
ATOM     15  C   UNL     1       1.226  -4.998   1.068  0.00  0.00    +0.342 C 
ATOM     16  O   UNL     1       0.198  -5.582   1.355  0.00  0.00    -0.245 OA
BRANCH  15  17
ATOM     17  O   UNL     1       2.336  -5.182   1.812  0.00  0.00    -0.464 OA
ATOM     18  C   UNL     1       2.231  -6.090   2.940  0.00  0.00    +0.280 C 
ENDBRANCH  15  17
ENDBRANCH  13  15
ENDBRANCH   1  12
BRANCH   2  19
ATOM     19  C   UNL     1       2.594  -7.506  -3.446  0.00  0.00    +0.223 C 
BRANCH  19  20
ATOM     20  N   UNL     1       2.871  -7.528  -4.885  0.00  0.00    -0.282 N 
ATOM     21  C   UNL     1       4.087  -7.321  -5.472  0.00  0.00    +0.216 A 
ATOM     22  N   UNL     1       3.932  -7.420  -6.769  0.00  0.00    -0.113 NA
ATOM     23  N   UNL     1       2.583  -7.697  -7.025  0.00  0.00    -0.121 NA
ATOM     24  C   UNL     1       1.958  -7.764  -5.874  0.00  0.00    +0.194 A 
ATOM     25  N   UNL     1       5.278  -7.054  -4.810  0.00  0.00    -0.328 N 
ATOM     26  H   UNL     1       5.293  -7.000  -3.842  0.00  0.00    +0.145 HD
ATOM     27  H   UNL     1       6.095  -6.921  -5.316  0.00  0.00    +0.145 HD
BRANCH  24  28
ATOM     28  S   UNL     1       0.243  -8.097  -5.644  0.00  0.00    -0.081 S 
BRANCH  28  29
ATOM     29  C   UNL     1      -0.392  -8.315  -7.330  0.00  0.00    +0.114 C 
BRANCH  29  30
ATOM     30  C   UNL     1      -1.869  -8.609  -7.276  0.00  0.00    -0.019 A 
ATOM     31  C   UNL     1      -2.311  -9.916  -7.194  0.00  0.00    +0.006 A 
ATOM     32  C   UNL     1      -3.665 -10.186  -7.141  0.00  0.00    +0.000 A 
ATOM     33  C   UNL     1      -4.579  -9.149  -7.178  0.00  0.00    +0.001 A 
ATOM     34  C   UNL     1      -4.139  -7.842  -7.265  0.00  0.00    +0.020 A 
ATOM     35  C   UNL     1      -2.783  -7.571  -7.314  0.00  0.00    +0.045 A 
ATOM     36 CL   UNL     1      -2.228  -5.929  -7.423  0.00  0.00    -0.083 Cl
ENDBRANCH  29  30
ENDBRANCH  28  29
ENDBRANCH  24  28
ENDBRANCH  19  20
ENDBRANCH   2  19
TORSDOF 8
