REMARK  Name = ZINC45971542
REMARK  9 active torsions:
REMARK  status: ('A' for Active; 'I' for Inactive)
REMARK    1  A    between atoms: C_1  and  C_2
REMARK    2  A    between atoms: C_5  and  C_9
REMARK    3  A    between atoms: C_7  and  C_8
REMARK    4  A    between atoms: C_15  and  S_21
REMARK    5  A    between atoms: S_21  and  C_22
REMARK    6  A    between atoms: C_22  and  C_23
REMARK    7  A    between atoms: N_25  and  C_26
REMARK    8  A    between atoms: C_28  and  C_33
REMARK    9  A    between atoms: C_30  and  C_32
REMARK                            x       y       z     vdW  Elec       q    Type
REMARK                         _______ _______ _______ _____ _____    ______ ____
ROOT
ATOM      1  C   UNL     1       0.027  -4.256  -0.025  0.00  0.00    +0.094 A 
ATOM      2  C   UNL     1       0.135  -5.068  -1.164  0.00  0.00    +0.061 A 
ATOM      3  C   UNL     1       0.124  -6.377  -0.742  0.00  0.00    +0.112 A 
ATOM      4  C   UNL     1       0.205  -7.666  -1.435  0.00  0.00    +0.187 A 
ATOM      5  N   UNL     1       0.315  -8.032  -2.689  0.00  0.00    -0.126 NA
ATOM      6  N   UNL     1       0.345  -9.316  -2.768  0.00  0.00    -0.122 NA
ATOM      7  C   UNL     1       0.257  -9.847  -1.567  0.00  0.00    +0.196 A 
ATOM      8  N   UNL     1       0.165  -8.820  -0.678  0.00  0.00    -0.274 N 
ATOM      9  C   UNL     1       0.050  -8.738   0.698  0.00  0.00    +0.115 A 
ATOM     10  C   UNL     1      -0.023  -7.568   1.320  0.00  0.00    +0.131 A 
ATOM     11  N   UNL     1       0.012  -6.370   0.626  0.00  0.00    -0.234 N 
ATOM     12  N   UNL     1      -0.041  -5.034   1.039  0.00  0.00    -0.166 NA
ENDROOT
BRANCH   1  17
ATOM     13  C   UNL     1      -0.080   1.502   0.003  0.00  0.00    +0.044 C 
ATOM     14  C   UNL     1      -0.052  -0.004  -0.004  0.00  0.00    -0.047 A 
ATOM     15  C   UNL     1      -0.051  -0.688  -1.207  0.00  0.00    +0.004 A 
ATOM     16  C   UNL     1      -0.026  -2.067  -1.220  0.00  0.00    +0.010 A 
ATOM     17  C   UNL     1      -0.000  -2.772  -0.018  0.00  0.00    +0.002 A 
ATOM     18  C   UNL     1      -0.001  -2.079   1.190  0.00  0.00    +0.013 A 
ATOM     19  C   UNL     1      -0.021  -0.699   1.191  0.00  0.00    -0.047 A 
ATOM     20  C   UNL     1      -0.015   0.052   2.498  0.00  0.00    +0.044 C 
ENDBRANCH   1  17
BRANCH   7  21
ATOM     21  S   UNL     1       0.257 -11.567  -1.183  0.00  0.00    -0.076 S 
BRANCH  21  22
ATOM     22  C   UNL     1       0.405 -12.378  -2.798  0.00  0.00    +0.173 C 
BRANCH  22  23
ATOM     23  C   UNL     1       0.418 -13.873  -2.610  0.00  0.00    +0.227 C 
ATOM     24  O   UNL     1       0.335 -14.345  -1.496  0.00  0.00    -0.275 OA
ATOM     25  N   UNL     1       0.521 -14.686  -3.680  0.00  0.00    -0.285 N 
ATOM     26  H   UNL     1       0.520 -14.312  -4.575  0.00  0.00    +0.155 HD
BRANCH  25  27
ATOM     27  C   UNL     1       0.630 -16.070  -3.500  0.00  0.00    +0.034 A 
ATOM     28  C   UNL     1       1.419 -16.823  -4.359  0.00  0.00    +0.026 A 
ATOM     29  C   UNL     1       1.525 -18.188  -4.178  0.00  0.00    -0.048 A 
ATOM     30  C   UNL     1       0.845 -18.805  -3.144  0.00  0.00    +0.006 A 
ATOM     31  C   UNL     1       0.058 -18.057  -2.287  0.00  0.00    -0.048 A 
ATOM     32  C   UNL     1      -0.047 -16.691  -2.459  0.00  0.00    +0.026 A 
ATOM     33  C   UNL     1      -0.682 -18.734  -1.162  0.00  0.00    +0.044 C 
ATOM     34  C   UNL     1       2.381 -19.007  -5.110  0.00  0.00    +0.044 C 
ENDBRANCH  25  27
ENDBRANCH  22  23
ENDBRANCH  21  22
ENDBRANCH   7  21
TORSDOF 5
