REMARK  Name = ZINC19343727
REMARK  4 active torsions:
REMARK  status: ('A' for Active; 'I' for Inactive)
REMARK    1  A    between atoms: C_3  and  C_6
REMARK    2  A    between atoms: C_6  and  N_7
REMARK    3  A    between atoms: C_8  and  C_10
REMARK    4  A    between atoms: C_10  and  N_11
REMARK                            x       y       z     vdW  Elec       q    Type
REMARK                         _______ _______ _______ _____ _____    ______ ____
ROOT
ATOM      1  N   UNL     1       8.237   2.756   1.868  0.00  0.00    +0.389 N 
ATOM      2  C   UNL     1       8.133   1.608   0.953  0.00  0.00    -0.072 C 
ATOM      3  C   UNL     1       6.842   0.853   1.268  0.00  0.00    +0.037 C 
ATOM      4  C   UNL     1       5.681   1.813   1.312  0.00  0.00    +0.050 A 
ATOM      5  C   UNL     1       5.868   3.154   1.435  0.00  0.00    +0.022 A 
ATOM      6  C   UNL     1       4.740   3.998   1.481  0.00  0.00    +0.254 A 
ATOM      7  O   UNL     1       4.873   5.205   1.597  0.00  0.00    -0.268 OA
ATOM      8  N   UNL     1       3.510   3.450   1.389  0.00  0.00    -0.295 N 
ATOM      9  H   UNL     1       2.619   4.094   1.413  0.00  0.00    +0.172 HD
ATOM     10  C   UNL     1       3.383   2.101   1.268  0.00  0.00    +0.198 A 
ATOM     11  N   UNL     1       4.442   1.320   1.231  0.00  0.00    -0.221 NA
ATOM     12  N   UNL     1       2.134   1.548   1.179  0.00  0.00    -0.301 N 
ATOM     13  C   UNL     1       1.419   2.052  -0.001  0.00  0.00    +0.108 C 
ATOM     14  C   UNL     1      -0.019   1.527   0.010  0.00  0.00    +0.019 C 
ATOM     15  C   UNL     1       0.002  -0.004   0.002  0.00  0.00    +0.003 C 
ATOM     16  C   UNL     1       0.794  -0.503   1.214  0.00  0.00    +0.019 C 
ATOM     17  C   UNL     1       2.208   0.081   1.168  0.00  0.00    +0.108 C 
ATOM     18  C   UNL     1       7.237   3.771   1.521  0.00  0.00    -0.035 C 
ATOM     19  H   UNL     1       8.037   2.409   2.892  0.00  0.00    -0.081 HD
ENDROOT
BRANCH   1  20
ATOM     20  C   UNL     1       9.592   3.324   1.848  0.00  0.00    +0.019 C 
BRANCH  20  22
ATOM     21  N   UNL     1      10.898   4.981   3.140  0.00  0.00    -0.312 N 
ATOM     22  C   UNL     1       9.732   4.328   2.963  0.00  0.00    +0.197 C 
ATOM     23  O   UNL     1       8.795   4.549   3.701  0.00  0.00    -0.278 OA
ATOM     24  H   UNL     1      11.747   4.780   2.470  0.00  0.00    +0.149 HD
BRANCH  21  25
ATOM     25  C   UNL     1      11.034   5.957   4.223  0.00  0.00    +0.146 C 
BRANCH  25  28
ATOM     26  C   UNL     1      14.212   7.984   3.675  0.00  0.00    +0.008 A 
ATOM     27  C   UNL     1      12.883   7.630   3.541  0.00  0.00    +0.013 A 
ATOM     28  C   UNL     1      12.424   6.540   4.203  0.00  0.00    +0.007 A 
ATOM     29  S   UNL     1      13.894   5.969   5.039  0.00  0.00    -0.100 S 
ATOM     30  C   UNL     1      15.020   7.226   4.455  0.00  0.00    +0.045 A 
ENDBRANCH  25  28
ENDBRANCH  21  25
ENDBRANCH  20  22
ENDBRANCH   1  20
TORSDOF 4
