REMARK  Name = ZINC00969219
REMARK  3 active torsions:
REMARK  status: ('A' for Active; 'I' for Inactive)
REMARK    1  A    between atoms: C_10  and  C_12
REMARK    2  A    between atoms: C_16  and  S_18
REMARK    3  A    between atoms: S_18  and  N_21
REMARK                            x       y       z     vdW  Elec       q    Type
REMARK                         _______ _______ _______ _____ _____    ______ ____
ROOT
ATOM      1  C   UNL     1       1.329   1.956   0.006  0.00  0.00    +0.039 A 
ATOM      2  C   UNL     1       2.466   1.151  -0.092  0.00  0.00    +0.013 A 
ATOM      3  C   UNL     1       3.718   1.729  -0.095  0.00  0.00    +0.003 A 
ATOM      4  C   UNL     1       3.849   3.103  -0.001  0.00  0.00    +0.028 A 
ATOM      5  C   UNL     1       2.727   3.907   0.096  0.00  0.00    +0.106 A 
ATOM      6  C   UNL     1       1.468   3.342   0.096  0.00  0.00    +0.041 A 
ENDROOT
BRANCH   1  16
ATOM      7  C   UNL     1      -3.536  -2.391   0.424  0.00  0.00    +0.000 A 
ATOM      8  C   UNL     1      -3.733  -1.023   0.389  0.00  0.00    +0.002 A 
ATOM      9  C   UNL     1      -2.658  -0.169   0.273  0.00  0.00    +0.024 A 
ATOM     10  C   UNL     1      -1.360  -0.679   0.189  0.00  0.00    +0.040 A 
ATOM     11  C   UNL     1      -1.173  -2.052   0.221  0.00  0.00    -0.024 A 
ATOM     12  C   UNL     1      -2.255  -2.904   0.332  0.00  0.00    +0.005 A 
ATOM     13  C   UNL     1       0.308  -2.338   0.122  0.00  0.00    +0.056 C 
ATOM     14  C   UNL     1       0.964  -0.951   0.022  0.00  0.00    +0.118 C 
ATOM     15  N   UNL     1      -0.146   0.003   0.069  0.00  0.00    -0.267 N 
ATOM     16  C   UNL     1      -0.016   1.344   0.009  0.00  0.00    +0.251 C 
ATOM     17  O   UNL     1      -1.005   2.048  -0.046  0.00  0.00    -0.270 OA
ENDBRANCH   1  16
BRANCH   5  18
ATOM     18  S   UNL     1       2.906   5.656   0.215  0.00  0.00    +0.061 S 
ATOM     19  O   UNL     1       1.728   6.142   0.845  0.00  0.00    -0.153 OA
ATOM     20  O   UNL     1       4.205   5.897   0.739  0.00  0.00    -0.153 OA
BRANCH  18  21
ATOM     21  N   UNL     1       2.899   6.255  -1.329  0.00  0.00    -0.177 NA
ATOM     22  C   UNL     1       4.159   6.385  -2.027  0.00  0.00    +0.109 C 
ATOM     23  C   UNL     1       4.776   7.771  -1.742  0.00  0.00    +0.017 C 
ATOM     24  C   UNL     1       4.008   8.822  -2.426  0.00  0.00    +0.001 C 
ATOM     25  C   UNL     1       2.561   8.948  -1.960  0.00  0.00    +0.001 C 
ATOM     26  C   UNL     1       1.704   7.961  -2.714  0.00  0.00    +0.017 C 
ATOM     27  C   UNL     1       1.609   6.638  -1.933  0.00  0.00    +0.109 C 
ENDBRANCH  18  21
ENDBRANCH   5  18
TORSDOF 3
