REMARK  Name = ZINC59056893
REMARK  8 active torsions:
REMARK  status: ('A' for Active; 'I' for Inactive)
REMARK    1  A    between atoms: C_1  and  C_2
REMARK    2  A    between atoms: C_6  and  C_25
REMARK    3  A    between atoms: C_8  and  N_11
REMARK    4  A    between atoms: N_14  and  C_15
REMARK    5  A    between atoms: C_18  and  S_21
REMARK    6  A    between atoms: S_21  and  C_24
REMARK    7  A    between atoms: C_25  and  C_26
REMARK    8  A    between atoms: C_25  and  C_27
REMARK                            x       y       z     vdW  Elec       q    Type
REMARK                         _______ _______ _______ _____ _____    ______ ____
ROOT
ATOM      1  N   UNL     1       0.202   1.446   2.641  0.00  0.00    -0.296 N 
ATOM      2  C   UNL     1       1.316   2.145   2.938  0.00  0.00    +0.304 C 
ATOM      3  O   UNL     1       2.310   1.566   3.330  0.00  0.00    -0.253 OA
ATOM      4  N   UNL     1       1.326   3.486   2.799  0.00  0.00    -0.268 N 
ATOM      5  H   UNL     1      -0.592   1.908   2.328  0.00  0.00    +0.151 HD
ATOM      6  H   UNL     1       0.512   3.955   2.559  0.00  0.00    +0.156 HD
ENDROOT
BRANCH   1  12
ATOM      7  C   UNL     1       0.377   1.254   0.155  0.00  0.00    +0.007 C 
ATOM      8  C   UNL     1       0.364  -0.268   0.312  0.00  0.00    -0.012 C 
ATOM      9  C   UNL     1      -1.079  -0.774   0.263  0.00  0.00    +0.004 C 
ATOM     10  C   UNL     1      -1.881  -0.138   1.400  0.00  0.00    +0.006 C 
ATOM     11  C   UNL     1      -1.253  -0.517   2.742  0.00  0.00    +0.012 C 
ATOM     12  C   UNL     1       0.190  -0.011   2.791  0.00  0.00    +0.078 C 
ATOM     13  C   UNL     1       0.993  -0.648   1.654  0.00  0.00    +0.026 C 
BRANCH  11  14
ATOM     14  C   UNL     1      -2.055   0.119   3.879  0.00  0.00    -0.012 C 
ATOM     15  C   UNL     1      -3.498  -0.387   3.830  0.00  0.00    +0.007 C 
ATOM     16  C   UNL     1      -1.427  -0.261   5.221  0.00  0.00    +0.007 C 
ENDBRANCH  11  14
ENDBRANCH   1  12
BRANCH   4  17
ATOM     17  C   UNL     1       2.513   4.200   3.002  0.00  0.00    +0.053 A 
ATOM     18  C   UNL     1       3.744   3.632   2.683  0.00  0.00    +0.028 A 
ATOM     19  C   UNL     1       4.889   4.379   2.902  0.00  0.00    +0.049 A 
ATOM     20  C   UNL     1       4.775   5.654   3.425  0.00  0.00    +0.176 A 
ATOM     21  N   UNL     1       3.594   6.163   3.717  0.00  0.00    -0.235 NA
ATOM     22  C   UNL     1       2.479   5.489   3.519  0.00  0.00    +0.136 A 
BRANCH  20  23
ATOM     23  S   UNL     1       6.227   6.611   3.706  0.00  0.00    +0.011 S 
ATOM     24  O   UNL     1       5.873   7.511   4.747  0.00  0.00    -0.168 OA
ATOM     25  O   UNL     1       7.261   5.655   3.896  0.00  0.00    -0.168 OA
ATOM     26  C   UNL     1       6.494   7.519   2.159  0.00  0.00    +0.202 C 
ENDBRANCH  20  23
ENDBRANCH   4  17
TORSDOF 4
