REMARK  Name = ZINC63447863
REMARK  6 active torsions:
REMARK  status: ('A' for Active; 'I' for Inactive)
REMARK    1  A    between atoms: C_1  and  O_2
REMARK    2  A    between atoms: O_2  and  C_3
REMARK    3  A    between atoms: C_5  and  C_12
REMARK    4  A    between atoms: C_7  and  O_10
REMARK    5  A    between atoms: C_8  and  O_9
REMARK    6  A    between atoms: O_10  and  C_11
REMARK                            x       y       z     vdW  Elec       q    Type
REMARK                         _______ _______ _______ _____ _____    ______ ____
ROOT
ATOM      1  C   UNL     1      -4.871   0.264   0.038  0.00  0.00    +0.111 C 
ATOM      2  C   UNL     1      -5.503   0.211   1.431  0.00  0.00    +0.128 C 
ATOM      3  C   UNL     1      -5.929  -1.236   1.652  0.00  0.00    -0.035 C 
ATOM      4  C   UNL     1      -5.374  -1.620   2.792  0.00  0.00    +0.001 A 
ATOM      5  C   UNL     1      -5.485  -2.867   3.566  0.00  0.00    +0.030 A 
ATOM      6  C   UNL     1      -4.751  -2.932   4.710  0.00  0.00    +0.042 A 
ATOM      7  C   UNL     1      -3.928  -1.891   5.154  0.00  0.00    +0.022 A 
ATOM      8  C   UNL     1      -3.771  -0.708   4.509  0.00  0.00    +0.027 A 
ATOM      9  C   UNL     1      -4.496  -0.520   3.297  0.00  0.00    +0.043 A 
ATOM     10  N   UNL     1      -4.550   0.525   2.494  0.00  0.00    -0.376 N 
ATOM     11 CL   UNL     1      -4.841  -4.377   5.666  0.00  0.00    -0.084 Cl
ATOM     12  C   UNL     1      -6.745  -1.986   0.627  0.00  0.00    +0.048 C 
ATOM     13  C   UNL     1      -6.060  -1.740  -0.731  0.00  0.00    +0.086 C 
ATOM     14  N   UNL     1      -5.827  -0.305  -0.926  0.00  0.00    -0.307 NA
ATOM     15  H   UNL     1      -6.696   0.207  -0.918  0.00  0.00    +0.123 HD
ATOM     16  H   UNL     1      -4.049   1.351   2.582  0.00  0.00    +0.160 HD
ENDROOT
BRANCH   1  19
ATOM     17  C   UNL     1      -2.447  -2.611   0.422  0.00  0.00    +0.165 A 
ATOM     18  C   UNL     1      -3.616  -1.865   0.431  0.00  0.00    +0.055 A 
ATOM     19  C   UNL     1      -3.598  -0.543   0.028  0.00  0.00    -0.021 A 
ATOM     20  C   UNL     1      -2.416   0.042  -0.385  0.00  0.00    +0.055 A 
ATOM     21  C   UNL     1      -1.242  -0.697  -0.397  0.00  0.00    +0.165 A 
ATOM     22  C   UNL     1      -1.255  -2.025   0.013  0.00  0.00    +0.201 A 
BRANCH  17  24
ATOM     23  C   UNL     1      -3.727  -4.447   1.226  0.00  0.00    +0.277 C 
ATOM     24  O   UNL     1      -2.466  -3.911   0.818  0.00  0.00    -0.491 OA
ENDBRANCH  17  24
BRANCH  22  25
ATOM     25  O   UNL     1      -0.105  -2.752   0.008  0.00  0.00    -0.501 OA
ATOM     26  H   UNL     1       0.066  -3.213  -0.825  0.00  0.00    +0.292 HD
ENDBRANCH  22  25
BRANCH  21  27
ATOM     27  O   UNL     1      -0.079  -0.122  -0.804  0.00  0.00    -0.491 OA
ATOM     28  C   UNL     1      -0.139   1.248  -1.206  0.00  0.00    +0.277 C 
ENDBRANCH  21  27
ENDBRANCH   1  19
TORSDOF 4
