REMARK  Name = ZINC66380967
REMARK  6 active torsions:
REMARK  status: ('A' for Active; 'I' for Inactive)
REMARK    1  A    between atoms: C_3  and  C_14
REMARK    2  A    between atoms: C_5  and  C_6
REMARK    3  A    between atoms: N_16  and  C_17
REMARK    4  A    between atoms: N_20  and  C_22
REMARK    5  A    between atoms: C_22  and  C_23
REMARK    6  A    between atoms: C_23  and  O_24
REMARK                            x       y       z     vdW  Elec       q    Type
REMARK                         _______ _______ _______ _____ _____    ______ ____
ROOT
ATOM      1  C   UNL     1      -0.017   1.381   0.010  0.00  0.00    +0.017 A 
ATOM      2  C   UNL     1       1.172   2.055   0.002  0.00  0.00    +0.021 A 
ATOM      3  C   UNL     1       2.352   1.325  -0.013  0.00  0.00    +0.075 A 
ATOM      4  S   UNL     1       1.752  -0.357  -0.017  0.00  0.00    -0.084 S 
ATOM      5  C   UNL     1       0.002  -0.004   0.002  0.00  0.00    +0.020 A 
ENDROOT
BRANCH   5   6
ATOM      6  C   UNL     1      -1.135  -0.948   0.008  0.00  0.00    -0.009 A 
ATOM      7  C   UNL     1      -2.445  -0.467   0.018  0.00  0.00    +0.029 A 
ATOM      8  C   UNL     1      -3.504  -1.353   0.024  0.00  0.00    +0.043 A 
ATOM      9  C   UNL     1      -3.267  -2.717   0.020  0.00  0.00    +0.040 A 
ATOM     10  C   UNL     1      -1.970  -3.201   0.011  0.00  0.00    +0.043 A 
ATOM     11  C   UNL     1      -0.903  -2.324  -0.002  0.00  0.00    +0.029 A 
ATOM     12 CL   UNL     1      -1.684  -4.913   0.006  0.00  0.00    -0.083 Cl
ATOM     13 CL   UNL     1      -5.134  -0.756   0.037  0.00  0.00    -0.083 Cl
ENDBRANCH   5   6
BRANCH   3  14
ATOM     14  C   UNL     1       3.734   1.809  -0.024  0.00  0.00    +0.255 C 
ATOM     15  O   UNL     1       3.960   3.005  -0.020  0.00  0.00    -0.269 OA
ATOM     16  N   UNL     1       4.756   0.930  -0.039  0.00  0.00    -0.279 N 
ATOM     17  H   UNL     1       4.576  -0.023  -0.042  0.00  0.00    +0.155 HD
BRANCH  16  18
ATOM     18  C   UNL     1       6.084   1.395  -0.049  0.00  0.00    +0.072 A 
ATOM     19  C   UNL     1       6.489   2.738  -0.040  0.00  0.00    +0.157 A 
ATOM     20  N   UNL     1       7.797   2.774  -0.055  0.00  0.00    -0.178 NA
ATOM     21  N   UNL     1       8.274   1.457  -0.074  0.00  0.00    -0.267 N 
ATOM     22  C   UNL     1       7.201   0.624  -0.064  0.00  0.00    +0.131 A 
BRANCH  21  23
ATOM     23  C   UNL     1       9.681   1.051  -0.095  0.00  0.00    +0.171 C 
BRANCH  23  24
ATOM     24  C   UNL     1      10.387   1.716  -1.278  0.00  0.00    +0.179 C 
BRANCH  24  25
ATOM     25  O   UNL     1      11.760   1.319  -1.299  0.00  0.00    -0.393 OA
ATOM     26  H   UNL     1      12.269   1.704  -2.025  0.00  0.00    +0.209 HD
ENDBRANCH  24  25
ENDBRANCH  23  24
ENDBRANCH  21  23
ENDBRANCH  16  18
ENDBRANCH   3  14
TORSDOF 6
