REMARK  Name = ZINC35494147
REMARK  11 active torsions:
REMARK  status: ('A' for Active; 'I' for Inactive)
REMARK    1  A    between atoms: C_1  and  C_2
REMARK    2  A    between atoms: C_2  and  C_4
REMARK    3  A    between atoms: C_8  and  C_41
REMARK    4  A    between atoms: C_17  and  C_40
REMARK    5  A    between atoms: C_18  and  C_21
REMARK    6  A    between atoms: C_26  and  C_39
REMARK    7  A    between atoms: C_29  and  N_30
REMARK    8  A    between atoms: C_36  and  C_37
REMARK    9  A    between atoms: C_36  and  C_38
REMARK   10  A    between atoms: C_41  and  O_43
REMARK   11  A    between atoms: O_43  and  C_44
REMARK                            x       y       z     vdW  Elec       q    Type
REMARK                         _______ _______ _______ _____ _____    ______ ____
ROOT
ATOM      1  C   UNL     1      -2.713  -1.434  -0.248  0.00  0.00    +0.019 C 
ATOM      2  C   UNL     1      -3.589  -0.990   0.966  0.00  0.00    +0.009 C 
ATOM      3  C   UNL     1      -4.612   0.039   0.409  0.00  0.00    +0.019 C 
ATOM      4  C   UNL     1      -4.607  -0.295  -1.111  0.00  0.00    +0.071 C 
ATOM      5  C   UNL     1      -3.091  -0.385  -1.301  0.00  0.00    +0.017 C 
ATOM      6  C   UNL     1      -2.557  -0.510  -2.706  0.00  0.00    +0.000 C 
ATOM      7  C   UNL     1      -1.363   0.472  -2.698  0.00  0.00    +0.005 C 
ATOM      8  C   UNL     1      -0.796   0.769  -4.067  0.00  0.00    +0.005 C 
ATOM      9  C   UNL     1      -1.881   1.329  -5.005  0.00  0.00    +0.002 C 
ATOM     10  C   UNL     1      -2.969   0.275  -5.105  0.00  0.00    -0.023 C 
ATOM     11  C   UNL     1      -3.580  -0.036  -3.731  0.00  0.00    -0.023 C 
ATOM     12  C   UNL     1      -4.330   1.157  -3.143  0.00  0.00    +0.008 C 
ATOM     13  C   UNL     1      -5.256   0.727  -1.993  0.00  0.00    +0.019 C 
ATOM     14  C   UNL     1      -4.596  -1.149  -4.028  0.00  0.00    +0.012 C 
ATOM     15  C   UNL     1      -2.365  -0.997  -5.714  0.00  0.00    +0.008 C 
ATOM     16  C   UNL     1      -1.781  -0.678  -7.098  0.00  0.00    +0.005 C 
ATOM     17  C   UNL     1      -0.669   0.355  -6.968  0.00  0.00    +0.009 C 
ATOM     18  C   UNL     1      -1.179   1.643  -6.332  0.00  0.00    -0.021 C 
ATOM     19  C   UNL     1       0.069   2.499  -6.005  0.00  0.00    +0.047 C 
ATOM     20  C   UNL     1       0.775   2.802  -7.299  0.00  0.00    +0.010 C 
ATOM     21  C   UNL     1       1.462   3.956  -7.420  0.00  0.00    +0.083 C 
ATOM     22  C   UNL     1       0.733   1.908  -8.367  0.00  0.00    +0.166 C 
ATOM     23  O   UNL     1       1.268   2.223  -9.412  0.00  0.00    -0.292 OA
ATOM     24  C   UNL     1       0.064   0.566  -8.282  0.00  0.00    +0.031 C 
ATOM     25  C   UNL     1      -0.856   0.392  -9.491  0.00  0.00    +0.019 C 
ATOM     26  C   UNL     1       1.176  -0.499  -8.389  0.00  0.00    +0.019 C 
ATOM     27  C   UNL     1      -2.055   2.469  -7.265  0.00  0.00    +0.012 C 
ATOM     28  C   UNL     1      -4.137   0.714  -6.001  0.00  0.00    +0.012 C 
ENDROOT
BRANCH  21  29
ATOM     29  N   UNL     1       2.366   4.112  -8.436  0.00  0.00    -0.276 N 
ATOM     30  C   UNL     1       2.965   5.304  -8.629  0.00  0.00    +0.301 C 
ATOM     31  O   UNL     1       2.701   6.241  -7.900  0.00  0.00    -0.253 OA
ATOM     32  N   UNL     1       3.855   5.458  -9.629  0.00  0.00    -0.313 N 
ATOM     33  H   UNL     1       2.576   3.364  -9.017  0.00  0.00    +0.156 HD
ATOM     34  H   UNL     1       4.065   4.710 -10.210  0.00  0.00    +0.146 HD
ATOM     35  H   UNL     1       4.285   6.316  -9.768  0.00  0.00    +0.146 HD
ENDBRANCH  21  29
BRANCH   1  37
ATOM     36  C   UNL     1      -0.683  -0.033   0.610  0.00  0.00    +0.039 C 
ATOM     37  C   UNL     1      -1.255  -1.340   0.124  0.00  0.00    -0.076 C 
ATOM     38  C   UNL     1      -0.484  -2.395   0.025  0.00  0.00    +0.007 C 
ENDBRANCH   1  37
BRANCH   4  39
ATOM     39  C   UNL     1      -5.309  -1.631  -1.191  0.00  0.00    +0.313 C 
ATOM     40  O   UNL     1      -4.723  -2.596  -1.623  0.00  0.00    -0.250 OA
BRANCH  39  41
ATOM     41  O   UNL     1      -6.582  -1.746  -0.783  0.00  0.00    -0.468 OA
ATOM     42  C   UNL     1      -7.184  -3.038  -0.888  0.00  0.00    +0.280 C 
ENDBRANCH  39  41
ENDBRANCH   4  39
TORSDOF 4
