REMARK  Name = ZINC13991076
REMARK  8 active torsions:
REMARK  status: ('A' for Active; 'I' for Inactive)
REMARK    1  A    between atoms: C_4  and  C_7
REMARK    2  A    between atoms: C_7  and  C_8
REMARK    3  A    between atoms: C_8  and  N_9
REMARK    4  A    between atoms: C_10  and  C_12
REMARK    5  A    between atoms: C_17  and  N_18
REMARK    6  A    between atoms: N_18  and  C_19
REMARK    7  A    between atoms: C_19  and  N_21
REMARK    8  A    between atoms: C_22  and  C_24
REMARK                            x       y       z     vdW  Elec       q    Type
REMARK                         _______ _______ _______ _____ _____    ______ ____
ROOT
ATOM      1  C   UNL     1       3.809  12.362   0.219  0.00  0.00    +0.058 A 
ATOM      2  C   UNL     1       4.746  13.393   0.317  0.00  0.00    +0.015 A 
ATOM      3  C   UNL     1       6.093  13.103   0.296  0.00  0.00    +0.001 A 
ATOM      4  C   UNL     1       6.524  11.791   0.178  0.00  0.00    +0.002 A 
ATOM      5  C   UNL     1       5.610  10.761   0.085  0.00  0.00    +0.024 A 
ATOM      6  C   UNL     1       4.249  11.035   0.099  0.00  0.00    +0.045 A 
ENDROOT
BRANCH   1   8
ATOM      7  N   UNL     1       1.947  13.947   0.242  0.00  0.00    -0.311 N 
ATOM      8  C   UNL     1       2.366  12.666   0.240  0.00  0.00    +0.246 C 
ATOM      9  O   UNL     1       1.554  11.761   0.256  0.00  0.00    -0.270 OA
ATOM     10  H   UNL     1       2.595  14.669   0.229  0.00  0.00    +0.149 HD
BRANCH   7  11
ATOM     11  C   UNL     1       0.514  14.249   0.263  0.00  0.00    +0.109 C 
BRANCH  11  12
ATOM     12  C   UNL     1       0.312  15.766   0.261  0.00  0.00    +0.054 C 
BRANCH  12  16
ATOM     13  C   UNL     1      -3.867  16.647   0.322  0.00  0.00    +0.000 A 
ATOM     14  C   UNL     1      -3.173  16.509   1.509  0.00  0.00    +0.000 A 
ATOM     15  C   UNL     1      -1.820  16.223   1.489  0.00  0.00    +0.004 A 
ATOM     16  C   UNL     1      -1.162  16.077   0.282  0.00  0.00    -0.046 A 
ATOM     17  C   UNL     1      -1.856  16.221  -0.905  0.00  0.00    +0.004 A 
ATOM     18  C   UNL     1      -3.209  16.501  -0.885  0.00  0.00    +0.000 A 
ENDBRANCH  12  16
ENDBRANCH  11  12
ENDBRANCH   7  11
ENDBRANCH   1   8
BRANCH   6  19
ATOM     19  N   UNL     1       3.325   9.998   0.001  0.00  0.00    -0.296 N 
ATOM     20  H   UNL     1       2.582  10.068  -0.619  0.00  0.00    +0.154 HD
BRANCH  19  21
ATOM     21  C   UNL     1       3.464   8.897   0.766  0.00  0.00    +0.141 C 
ATOM     22  S   UNL     1       4.840   8.720   1.769  0.00  0.00    -0.018 S 
BRANCH  21  23
ATOM     23  N   UNL     1       2.520   7.936   0.741  0.00  0.00    -0.263 N 
ATOM     24  C   UNL     1       2.658   6.835   1.506  0.00  0.00    +0.258 C 
ATOM     25  O   UNL     1       3.636   6.709   2.219  0.00  0.00    -0.269 OA
ATOM     26  H   UNL     1       1.740   8.037   0.173  0.00  0.00    +0.157 HD
BRANCH  24  27
ATOM     27  C   UNL     1       1.630   5.789   1.480  0.00  0.00    +0.094 A 
ATOM     28  C   UNL     1       1.593   4.618   2.173  0.00  0.00    +0.068 A 
ATOM     29  C   UNL     1       0.507   3.739   2.006  0.00  0.00    +0.008 A 
ATOM     30  C   UNL     1       0.288   2.485   2.633  0.00  0.00    +0.010 A 
ATOM     31  C   UNL     1      -0.824   1.756   2.358  0.00  0.00    +0.001 A 
ATOM     32  C   UNL     1      -1.782   2.201   1.455  0.00  0.00    +0.001 A 
ATOM     33  C   UNL     1      -1.611   3.417   0.827  0.00  0.00    +0.016 A 
ATOM     34  C   UNL     1      -0.487   4.169   1.096  0.00  0.00    +0.021 A 
ATOM     35  S   UNL     1       0.121   5.738   0.530  0.00  0.00    -0.082 S 
ATOM     36 CL   UNL     1       2.883   4.210   3.261  0.00  0.00    -0.082 Cl
ENDBRANCH  24  27
ENDBRANCH  21  23
ENDBRANCH  19  21
ENDBRANCH   6  19
TORSDOF 8
