REMARK  Name = ZINC21376657
REMARK  9 active torsions:
REMARK  status: ('A' for Active; 'I' for Inactive)
REMARK    1  A    between atoms: C_1  and  C_2
REMARK    2  A    between atoms: C_2  and  C_3
REMARK    3  A    between atoms: C_6  and  C_9
REMARK    4  A    between atoms: C_9  and  C_11
REMARK    5  A    between atoms: C_9  and  N_12
REMARK    6  A    between atoms: C_13  and  C_15
REMARK    7  A    between atoms: C_15  and  N_16
REMARK    8  A    between atoms: C_19  and  C_23
REMARK    9  A    between atoms: C_19  and  C_24
REMARK                            x       y       z     vdW  Elec       q    Type
REMARK                         _______ _______ _______ _____ _____    ______ ____
ROOT
ATOM      1  N   UNL     1       2.953  -5.704  -2.891  0.00  0.00    -0.215 N 
ATOM      2  C   UNL     1       2.240  -5.957  -4.006  0.00  0.00    +0.251 C 
ATOM      3  O   UNL     1       1.765  -5.146  -4.772  0.00  0.00    -0.272 OA
ATOM      4  C   UNL     1       2.152  -7.468  -4.102  0.00  0.00    +0.135 C 
ATOM      5  N   UNL     1       2.897  -7.933  -2.919  0.00  0.00    -0.281 N 
ATOM      6  C   UNL     1       3.329  -6.832  -2.279  0.00  0.00    +0.310 C 
ATOM      7  O   UNL     1       3.985  -6.859  -1.256  0.00  0.00    -0.252 OA
ATOM      8  C   UNL     1       2.818  -7.965  -5.387  0.00  0.00    +0.047 C 
ATOM      9  H   UNL     1       2.999  -9.011  -2.723  0.00  0.00    +0.152 HD
ENDROOT
BRANCH   4  10
ATOM     10  C   UNL     1       0.717  -7.921  -4.037  0.00  0.00    -0.015 A 
ATOM     11  C   UNL     1      -0.289  -7.100  -4.512  0.00  0.00    +0.007 A 
ATOM     12  C   UNL     1      -1.606  -7.518  -4.458  0.00  0.00    +0.020 A 
ATOM     13  C   UNL     1      -1.918  -8.753  -3.919  0.00  0.00    +0.041 A 
ATOM     14  C   UNL     1      -0.911  -9.572  -3.439  0.00  0.00    +0.020 A 
ATOM     15  C   UNL     1       0.406  -9.155  -3.498  0.00  0.00    +0.007 A 
ATOM     16 CL   UNL     1      -3.571  -9.275  -3.845  0.00  0.00    -0.084 Cl
ENDBRANCH   4  10
BRANCH   1  17
ATOM     17  C   UNL     1       3.281  -4.358  -2.413  0.00  0.00    +0.213 C 
BRANCH  17  19
ATOM     18  N   UNL     1       2.285  -2.655  -0.921  0.00  0.00    -0.307 N 
ATOM     19  C   UNL     1       2.195  -3.876  -1.486  0.00  0.00    +0.231 C 
ATOM     20  O   UNL     1       1.241  -4.585  -1.249  0.00  0.00    -0.274 OA
ATOM     21  H   UNL     1       3.150  -2.011  -1.137  0.00  0.00    +0.149 HD
BRANCH  18  22
ATOM     22  C   UNL     1       1.229  -2.186  -0.021  0.00  0.00    +0.100 C 
ATOM     23  C   UNL     1       1.500  -2.699   1.395  0.00  0.00    +0.033 C 
BRANCH  22  27
ATOM     24  C   UNL     1       1.171   2.086   0.002  0.00  0.00    -0.048 A 
ATOM     25  C   UNL     1      -0.017   1.378   0.010  0.00  0.00    +0.004 A 
ATOM     26  C   UNL     1       0.002  -0.004   0.002  0.00  0.00    +0.006 A 
ATOM     27  C   UNL     1       1.208  -0.679  -0.013  0.00  0.00    -0.027 A 
ATOM     28  C   UNL     1       2.396   0.029  -0.022  0.00  0.00    +0.006 A 
ATOM     29  C   UNL     1       2.377   1.411  -0.015  0.00  0.00    +0.004 A 
BRANCH  24  31
ATOM     30  C   UNL     1       1.157   4.095   1.455  0.00  0.00    +0.009 C 
ATOM     31  C   UNL     1       1.151   3.592   0.010  0.00  0.00    +0.032 C 
ENDBRANCH  24  31
ENDBRANCH  22  27
ENDBRANCH  18  22
ENDBRANCH  17  19
ENDBRANCH   1  17
TORSDOF 6
