REMARK  Name = ZINC04770068
REMARK  7 active torsions:
REMARK  status: ('A' for Active; 'I' for Inactive)
REMARK    1  A    between atoms: C_1  and  N_43
REMARK    2  A    between atoms: C_2  and  N_43
REMARK    3  A    between atoms: C_3  and  C_4
REMARK    4  A    between atoms: C_3  and  N_43
REMARK    5  A    between atoms: C_4  and  C_5
REMARK    6  A    between atoms: C_5  and  N_6
REMARK    7  A    between atoms: N_6  and  C_7
REMARK                            x       y       z     vdW  Elec       q    Type
REMARK                         _______ _______ _______ _____ _____    ______ ____
ROOT
ATOM      1  C   UNL     1       2.529   1.495  -0.018  0.00  0.00    +0.040 A 
ATOM      2  C   UNL     1       3.615   2.392  -0.023  0.00  0.00    +0.041 A 
ATOM      3  C   UNL     1       3.510   3.748  -0.012  0.00  0.00    +0.049 A 
ATOM      4  C   UNL     1       2.186   4.367   0.009  0.00  0.00    +0.129 A 
ATOM      5  C   UNL     1       1.075   3.422   0.014  0.00  0.00    +0.063 A 
ATOM      6  C   UNL     1       1.223   1.992   0.001  0.00  0.00    +0.056 A 
ATOM      7  C   UNL     1      -0.015   1.216   0.009  0.00  0.00    +0.196 C 
ATOM      8  O   UNL     1       0.002  -0.004   0.002  0.00  0.00    -0.287 OA
ATOM      9  C   UNL     1      -1.290   1.969   0.019  0.00  0.00    +0.033 A 
ATOM     10  C   UNL     1      -2.494   1.255   0.028  0.00  0.00    +0.012 A 
ATOM     11  C   UNL     1      -3.696   1.923   0.042  0.00  0.00    +0.001 A 
ATOM     12  C   UNL     1      -3.733   3.311   0.054  0.00  0.00    +0.001 A 
ATOM     13  C   UNL     1      -2.565   4.039   0.050  0.00  0.00    +0.012 A 
ATOM     14  C   UNL     1      -1.330   3.384   0.036  0.00  0.00    +0.031 A 
ATOM     15  C   UNL     1      -0.085   4.152   0.032  0.00  0.00    +0.176 A 
ATOM     16  O   UNL     1       0.349   5.419   0.038  0.00  0.00    -0.353 OA
ATOM     17  N   UNL     1       1.575   5.521   0.025  0.00  0.00    -0.076 NA
ATOM     18 BR   UNL     1       5.064   4.825  -0.022  0.00  0.00    -0.048 Br
ENDROOT
BRANCH   1  19
ATOM     19  N   UNL     1       2.752   0.135  -0.029  0.00  0.00    -0.343 N 
ATOM     20  H   UNL     1       2.002  -0.480  -0.025  0.00  0.00    +0.146 HD
BRANCH  19  21
ATOM     21  C   UNL     1       4.123  -0.381  -0.049  0.00  0.00    +0.100 C 
BRANCH  21  22
ATOM     22  C   UNL     1       4.091  -1.911  -0.059  0.00  0.00    -0.000 C 
BRANCH  22  23
ATOM     23  C   UNL     1       5.523  -2.450  -0.079  0.00  0.00    -0.078 C 
BRANCH  23  26
ATOM     24  C   UNL     1       4.910  -4.426  -1.339  0.00  0.00    -0.097 C 
ATOM     25  C   UNL     1       6.835  -4.475   0.130  0.00  0.00    -0.097 C 
ATOM     26  N   UNL     1       5.476  -3.928  -0.067  0.00  0.00    +0.376 N 
ATOM     27  H   UNL     1       4.877  -4.236   0.708  0.00  0.00    -0.083 HD
ENDBRANCH  23  26
ENDBRANCH  22  23
ENDBRANCH  21  22
ENDBRANCH  19  21
ENDBRANCH   1  19
TORSDOF 5
