REMARK  Name = ZINC52994045
REMARK  8 active torsions:
REMARK  status: ('A' for Active; 'I' for Inactive)
REMARK    1  A    between atoms: C_1  and  C_2
REMARK    2  A    between atoms: C_3  and  C_13
REMARK    3  A    between atoms: C_4  and  C_12
REMARK    4  A    between atoms: C_9  and  C_10
REMARK    5  A    between atoms: C_13  and  C_14
REMARK    6  A    between atoms: C_14  and  C_15
REMARK    7  A    between atoms: C_20  and  C_23
REMARK    8  A    between atoms: C_23  and  N_24
REMARK                            x       y       z     vdW  Elec       q    Type
REMARK                         _______ _______ _______ _____ _____    ______ ____
ROOT
ATOM      1  C   UNL     1      -4.786   0.800   1.111  0.00  0.00    +0.216 C 
ATOM      2  O   UNL     1      -5.482   1.024   0.143  0.00  0.00    -0.276 OA
ATOM      3  N   UNL     1      -5.150   1.263   2.323  0.00  0.00    -0.301 N 
ATOM      4  C   UNL     1      -4.314   1.005   3.504  0.00  0.00    +0.108 C 
ATOM      5  C   UNL     1      -5.182   0.364   4.591  0.00  0.00    +0.021 C 
ATOM      6  C   UNL     1      -6.396   1.256   4.862  0.00  0.00    -0.025 C 
ATOM      7  C   UNL     1      -7.233   1.382   3.588  0.00  0.00    +0.021 C 
ATOM      8  C   UNL     1      -6.386   2.040   2.488  0.00  0.00    +0.108 C 
ENDROOT
BRANCH   1   9
ATOM      9  C   UNL     1      -3.516   0.005   0.958  0.00  0.00    +0.100 C 
BRANCH   9  10
ATOM     10  C   UNL     1      -3.339  -0.397  -0.508  0.00  0.00    +0.046 C 
BRANCH  10  13
ATOM     11  C   UNL     1      -0.793   0.973  -0.868  0.00  0.00    +0.045 C 
ATOM     12  C   UNL     1      -0.850  -0.533  -0.833  0.00  0.00    -0.023 A 
ATOM     13  C   UNL     1      -2.068  -1.192  -0.661  0.00  0.00    -0.024 A 
ATOM     14  C   UNL     1      -2.110  -2.548  -0.631  0.00  0.00    +0.019 A 
ATOM     15  N   UNL     1      -0.984  -3.289  -0.766  0.00  0.00    -0.325 N 
ATOM     16  H   UNL     1      -1.043  -4.257  -0.740  0.00  0.00    +0.169 HD
ATOM     17  C   UNL     1       0.217  -2.704  -0.934  0.00  0.00    +0.267 A 
ATOM     18  O   UNL     1       1.219  -3.387  -1.054  0.00  0.00    -0.266 OA
ATOM     19  C   UNL     1       0.311  -1.288  -0.978  0.00  0.00    +0.119 A 
ATOM     20  C   UNL     1      -3.435  -3.243  -0.444  0.00  0.00    +0.063 C 
BRANCH  19  21
ATOM     21  C   UNL     1       1.578  -0.647  -1.163  0.00  0.00    +0.105 C 
ATOM     22  N   UNL     1       2.584  -0.139  -1.309  0.00  0.00    -0.191 NA
ENDBRANCH  19  21
ENDBRANCH  10  13
ENDBRANCH   9  10
ENDBRANCH   1   9
BRANCH   6  23
ATOM     23  C   UNL     1      -7.247   0.636   5.972  0.00  0.00    -0.075 C 
BRANCH  23  24
ATOM     24  N   UNL     1      -8.367   1.532   6.289  0.00  0.00    +0.380 N 
ATOM     25  C   UNL     1      -7.825   2.800   6.814  0.00  0.00    -0.079 C 
ATOM     26  C   UNL     1      -8.843   3.886   6.571  0.00  0.00    -0.019 C 
ATOM     27  C   UNL     1      -9.726   4.120   7.811  0.00  0.00    -0.002 C 
ATOM     28  C   UNL     1     -10.120   2.793   8.491  0.00  0.00    -0.002 C 
ATOM     29  C   UNL     1     -10.478   1.721   7.494  0.00  0.00    -0.019 C 
ATOM     30  C   UNL     1      -9.221   0.882   7.182  0.00  0.00    -0.079 C 
ATOM     31  H   UNL     1      -8.875   1.726   5.439  0.00  0.00    -0.082 HD
ENDBRANCH  23  24
ENDBRANCH   6  23
TORSDOF 6
