REMARK  Name = ZINC62957649
REMARK  18 active torsions:
REMARK  status: ('A' for Active; 'I' for Inactive)
REMARK    1  A    between atoms: C_1  and  C_2
REMARK    2  A    between atoms: C_2  and  N_3
REMARK    3  A    between atoms: N_3  and  C_4
REMARK    4  A    between atoms: N_3  and  C_6
REMARK    5  A    between atoms: C_4  and  C_5
REMARK    6  A    between atoms: C_9  and  C_12
REMARK    7  A    between atoms: C_17  and  C_34
REMARK    8  A    between atoms: C_19  and  O_33
REMARK    9  A    between atoms: C_20  and  C_23
REMARK   10  A    between atoms: C_23  and  N_24
REMARK   11  A    between atoms: N_24  and  C_25
REMARK   12  A    between atoms: N_24  and  C_29
REMARK   13  A    between atoms: C_25  and  C_26
REMARK   14  A    between atoms: C_26  and  C_27
REMARK   15  A    between atoms: C_26  and  C_28
REMARK   16  A    between atoms: C_29  and  C_30
REMARK   17  A    between atoms: C_30  and  C_31
REMARK   18  A    between atoms: C_30  and  C_32
REMARK                            x       y       z     vdW  Elec       q    Type
REMARK                         _______ _______ _______ _____ _____    ______ ____
ROOT
ATOM      1  C   UNL     1      -2.015  -6.379  -0.859  0.00  0.00    +0.058 C 
ATOM      2  C   UNL     1      -2.415  -6.702   0.396  0.00  0.00    +0.176 C 
ATOM      3  C   UNL     1      -3.123  -5.819   1.337  0.00  0.00    +0.232 C 
ATOM      4  O   UNL     1      -3.470  -4.665   1.160  0.00  0.00    -0.283 OA
ATOM      5  C   UNL     1      -3.320  -6.646   2.542  0.00  0.00    +0.071 A 
ATOM      6  C   UNL     1      -3.917  -6.403   3.779  0.00  0.00    -0.033 A 
ATOM      7  C   UNL     1      -3.949  -7.388   4.725  0.00  0.00    +0.050 A 
ATOM      8  C   UNL     1      -3.386  -8.633   4.457  0.00  0.00    +0.122 A 
ATOM      9  C   UNL     1      -2.789  -8.888   3.233  0.00  0.00    +0.020 A 
ATOM     10  C   UNL     1      -2.749  -7.898   2.260  0.00  0.00    +0.145 A 
ATOM     11  O   UNL     1      -2.239  -7.896   1.009  0.00  0.00    -0.451 OA
ATOM     12  C   UNL     1      -4.527  -5.056   4.071  0.00  0.00    +0.045 C 
ENDROOT
BRANCH   1  16
ATOM     13  C   UNL     1      -2.308  -2.371  -2.212  0.00  0.00    +0.013 A 
ATOM     14  C   UNL     1      -2.589  -3.413  -3.080  0.00  0.00    +0.022 A 
ATOM     15  C   UNL     1      -2.496  -4.719  -2.648  0.00  0.00    +0.010 A 
ATOM     16  C   UNL     1      -2.116  -4.990  -1.329  0.00  0.00    -0.021 A 
ATOM     17  C   UNL     1      -1.835  -3.931  -0.458  0.00  0.00    +0.010 A 
ATOM     18  C   UNL     1      -1.927  -2.631  -0.907  0.00  0.00    +0.022 A 
BRANCH  13  19
ATOM     19  N   UNL     1      -2.405  -1.050  -2.659  0.00  0.00    -0.394 NA
ATOM     20  H   UNL     1      -2.164  -0.422  -1.906  0.00  0.00    +0.126 HD
BRANCH  19  22
ATOM     21  C   UNL     1      -1.496   0.631  -4.190  0.00  0.00    +0.022 C 
ATOM     22  C   UNL     1      -1.482  -0.844  -3.783  0.00  0.00    +0.081 C 
ENDBRANCH  19  22
BRANCH  19  23
ATOM     23  C   UNL     1      -3.780  -0.781  -3.099  0.00  0.00    +0.081 C 
ATOM     24  C   UNL     1      -4.727  -0.874  -1.900  0.00  0.00    +0.022 C 
ENDBRANCH  19  23
ENDBRANCH  13  19
ENDBRANCH   1  16
BRANCH   8  25
ATOM     25  O   UNL     1      -3.422  -9.605   5.404  0.00  0.00    -0.506 OA
ATOM     26  H   UNL     1      -4.207 -10.168   5.360  0.00  0.00    +0.292 HD
ENDBRANCH   8  25
BRANCH   9  27
ATOM     27  C   UNL     1      -2.184 -10.241   2.958  0.00  0.00    -0.036 C 
BRANCH  27  28
ATOM     28  N   UNL     1      -3.201 -11.122   2.369  0.00  0.00    +0.383 N 
ATOM     29  H   UNL     1      -4.006 -11.158   2.975  0.00  0.00    -0.081 HD
BRANCH  28  30
ATOM     30  C   UNL     1      -3.599 -10.599   1.055  0.00  0.00    -0.075 C 
BRANCH  30  31
ATOM     31  C   UNL     1      -4.743 -11.447   0.494  0.00  0.00    -0.034 C 
ATOM     32  C   UNL     1      -5.962 -11.330   1.412  0.00  0.00    +0.005 C 
ATOM     33  C   UNL     1      -5.108 -10.950  -0.905  0.00  0.00    +0.005 C 
ENDBRANCH  30  31
ENDBRANCH  28  30
BRANCH  28  34
ATOM     34  C   UNL     1      -2.646 -12.473   2.211  0.00  0.00    -0.075 C 
BRANCH  34  35
ATOM     35  C   UNL     1      -2.373 -13.076   3.590  0.00  0.00    -0.034 C 
ATOM     36  C   UNL     1      -3.691 -13.226   4.351  0.00  0.00    +0.005 C 
ATOM     37  C   UNL     1      -1.720 -14.450   3.425  0.00  0.00    +0.005 C 
ENDBRANCH  34  35
ENDBRANCH  28  34
ENDBRANCH  27  28
ENDBRANCH   9  27
TORSDOF 11
