REMARK  Name = ZINC09303104
REMARK  8 active torsions:
REMARK  status: ('A' for Active; 'I' for Inactive)
REMARK    1  A    between atoms: C_4  and  C_7
REMARK    2  A    between atoms: C_8  and  C_9
REMARK    3  A    between atoms: N_13  and  C_17
REMARK    4  A    between atoms: C_17  and  C_18
REMARK    5  A    between atoms: C_18  and  C_19
REMARK    6  A    between atoms: N_21  and  C_22
REMARK    7  A    between atoms: C_25  and  C_29
REMARK    8  A    between atoms: C_26  and  O_28
REMARK                            x       y       z     vdW  Elec       q    Type
REMARK                         _______ _______ _______ _____ _____    ______ ____
ROOT
ATOM      1  C   UNL     1       7.406  -4.737  -0.092  0.00  0.00    +0.127 C 
ENDROOT
BRANCH   1   6
ATOM      2  C   UNL     1       2.471  -4.184  -0.056  0.00  0.00    +0.020 C 
ATOM      3  C   UNL     1       3.662  -4.850  -0.064  0.00  0.00    +0.079 C 
ATOM      4  C   UNL     1       5.037  -4.317  -0.076  0.00  0.00    +0.260 C 
ATOM      5  O   UNL     1       5.258  -3.120  -0.080  0.00  0.00    -0.269 OA
ATOM      6  N   UNL     1       6.017  -5.204  -0.081  0.00  0.00    -0.228 N 
ATOM      7  C   UNL     1       5.767  -6.530  -0.077  0.00  0.00    +0.286 C 
ATOM      8  O   UNL     1       6.564  -7.449  -0.081  0.00  0.00    -0.262 OA
ATOM      9  S   UNL     1       3.983  -6.608  -0.056  0.00  0.00    -0.026 S 
BRANCH   2  11
ATOM     10  C   UNL     1       1.271  -2.113  -0.049  0.00  0.00    +0.008 C 
ATOM     11  C   UNL     1       2.452  -2.775  -0.057  0.00  0.00    +0.002 C 
BRANCH  10  15
ATOM     12  C   UNL     1       1.214   2.127  -0.053  0.00  0.00    +0.000 A 
ATOM     13  C   UNL     1       0.022   1.422  -0.043  0.00  0.00    +0.001 A 
ATOM     14  C   UNL     1       0.032   0.044  -0.042  0.00  0.00    +0.008 A 
ATOM     15  C   UNL     1       1.251  -0.643  -0.051  0.00  0.00    -0.025 A 
ATOM     16  C   UNL     1       2.451   0.076  -0.061  0.00  0.00    +0.008 A 
ATOM     17  C   UNL     1       2.424   1.455  -0.062  0.00  0.00    +0.001 A 
ENDBRANCH  10  15
ENDBRANCH   2  11
ENDBRANCH   1   6
BRANCH   1  18
ATOM     18  C   UNL     1       7.899  -4.572   1.346  0.00  0.00    +0.115 C 
BRANCH  18  19
ATOM     19  C   UNL     1       9.328  -4.092   1.335  0.00  0.00    +0.219 C 
ATOM     20  O   UNL     1       9.895  -3.901   0.280  0.00  0.00    -0.275 OA
ATOM     21  N   UNL     1       9.975  -3.875   2.497  0.00  0.00    -0.285 N 
ATOM     22  H   UNL     1       9.502  -3.965   3.340  0.00  0.00    +0.155 HD
BRANCH  21  23
ATOM     23  C   UNL     1      11.324  -3.523   2.489  0.00  0.00    +0.037 A 
ATOM     24  C   UNL     1      11.824  -2.715   1.470  0.00  0.00    +0.024 A 
ATOM     25  C   UNL     1      13.143  -2.363   1.452  0.00  0.00    +0.020 A 
ATOM     26  C   UNL     1      14.003  -2.815   2.459  0.00  0.00    +0.105 A 
ATOM     27  C   UNL     1      13.504  -3.631   3.487  0.00  0.00    +0.133 A 
ATOM     28  C   UNL     1      12.163  -3.975   3.498  0.00  0.00    +0.069 A 
BRANCH  26  29
ATOM     29  C   UNL     1      15.425  -2.438   2.439  0.00  0.00    +0.390 C 
ATOM     30  O   UNL     1      16.170  -2.832   3.315  0.00  0.00    -0.240 OA
ATOM     31  O   UNL     1      15.901  -1.655   1.451  0.00  0.00    -0.240 OA
ENDBRANCH  26  29
BRANCH  27  32
ATOM     32  O   UNL     1      14.330  -4.074   4.467  0.00  0.00    -0.506 OA
ATOM     33  H   UNL     1      14.386  -3.484   5.232  0.00  0.00    +0.292 HD
ENDBRANCH  27  32
ENDBRANCH  21  23
ENDBRANCH  18  19
ENDBRANCH   1  18
TORSDOF 8
