REMARK  Name = ZINC35644464
REMARK  7 active torsions:
REMARK  status: ('A' for Active; 'I' for Inactive)
REMARK    1  A    between atoms: C_1  and  C_2
REMARK    2  A    between atoms: C_2  and  C_4
REMARK    3  A    between atoms: C_2  and  N_20
REMARK    4  A    between atoms: C_8  and  N_10
REMARK    5  A    between atoms: N_10  and  S_11
REMARK    6  A    between atoms: S_11  and  C_14
REMARK    7  A    between atoms: N_20  and  C_21
REMARK                            x       y       z     vdW  Elec       q    Type
REMARK                         _______ _______ _______ _____ _____    ______ ____
ROOT
ATOM      1  C   UNL     1       0.731  -0.503   1.223  0.00  0.00    -0.060 A 
ATOM      2  C   UNL     1       0.080  -0.558   2.442  0.00  0.00    +0.002 A 
ATOM      3  C   UNL     1       0.745  -1.015   3.565  0.00  0.00    +0.002 A 
ATOM      4  C   UNL     1       2.062  -1.419   3.472  0.00  0.00    +0.027 A 
ATOM      5  C   UNL     1       2.719  -1.365   2.249  0.00  0.00    +0.075 A 
ATOM      6  C   UNL     1       2.046  -0.911   1.122  0.00  0.00    +0.028 A 
ENDROOT
BRANCH   1   8
ATOM      7  C   UNL     1      -0.019   1.526   0.010  0.00  0.00    -0.009 C 
ATOM      8  C   UNL     1       0.002  -0.004   0.002  0.00  0.00    -0.044 C 
BRANCH   8   9
ATOM      9  N   UNL     1      -1.376  -0.512   0.012  0.00  0.00    +0.382 N 
ATOM     10  C   UNL     1      -2.050  -0.126  -1.234  0.00  0.00    -0.100 C 
ATOM     11  H   UNL     1      -1.363  -1.518   0.090  0.00  0.00    -0.085 HD
ATOM     12  H   UNL     1      -1.873  -0.121   0.799  0.00  0.00    -0.085 HD
ENDBRANCH   8   9
ENDBRANCH   1   8
BRANCH   5  13
ATOM     13  N   UNL     1       4.052  -1.773   2.152  0.00  0.00    -0.097 NA
BRANCH  13  14
ATOM     14  S   UNL     1       4.850  -2.321   3.496  0.00  0.00    +0.098 S 
ATOM     15  O   UNL     1       4.966  -1.213   4.379  0.00  0.00    -0.148 OA
ATOM     16  O   UNL     1       4.219  -3.536   3.876  0.00  0.00    -0.148 OA
BRANCH  14  17
ATOM     17  C   UNL     1       6.487  -2.739   2.995  0.00  0.00    +0.149 A 
ATOM     18  C   UNL     1       7.596  -1.961   2.970  0.00  0.00    +0.038 A 
ATOM     19  C   UNL     1       8.789  -2.507   2.533  0.00  0.00    +0.030 A 
ATOM     20  C   UNL     1       8.813  -3.806   2.143  0.00  0.00    +0.080 A 
ATOM     21  S   UNL     1       7.115  -4.298   2.396  0.00  0.00    -0.057 S 
ATOM     22 CL   UNL     1      10.148  -4.747   1.556  0.00  0.00    -0.076 Cl
ENDBRANCH  14  17
ENDBRANCH  13  14
ENDBRANCH   5  13
TORSDOF 5
