REMARK  Name = ZINC33381823
REMARK  14 active torsions:
REMARK  status: ('A' for Active; 'I' for Inactive)
REMARK    1  A    between atoms: C_1  and  C_2
REMARK    2  A    between atoms: C_2  and  C_3
REMARK    3  A    between atoms: C_3  and  C_5
REMARK    4  A    between atoms: C_3  and  C_6
REMARK    5  A    between atoms: C_6  and  C_8
REMARK    6  A    between atoms: C_6  and  N_39
REMARK    7  A    between atoms: C_10  and  C_13
REMARK    8  A    between atoms: N_15  and  C_16
REMARK    9  A    between atoms: C_16  and  C_18
REMARK   10  A    between atoms: C_16  and  C_29
REMARK   11  A    between atoms: C_18  and  C_19
REMARK   12  A    between atoms: C_29  and  O_31
REMARK   13  A    between atoms: O_31  and  C_32
REMARK   14  A    between atoms: C_32  and  C_33
REMARK                            x       y       z     vdW  Elec       q    Type
REMARK                         _______ _______ _______ _____ _____    ______ ____
ROOT
ATOM      1  C   UNL     1       1.280   1.975   0.000  0.00  0.00    +0.186 C 
ENDROOT
BRANCH   1   4
ATOM      2  C   UNL     1       3.606   1.418   0.469  0.00  0.00    +0.266 C 
ATOM      3  O   UNL     1       3.753   2.539   0.918  0.00  0.00    -0.268 OA
ATOM      4  N   UNL     1       2.407   1.038  -0.015  0.00  0.00    -0.297 N 
ATOM      5  H   UNL     1       2.274   0.025  -0.422  0.00  0.00    +0.150 HD
BRANCH   2   8
ATOM      6  C   UNL     1       5.906  -1.313   0.139  0.00  0.00    +0.182 A 
ATOM      7  N   UNL     1       4.721  -0.803  -0.012  0.00  0.00    -0.210 NA
ATOM      8  C   UNL     1       4.739   0.476   0.453  0.00  0.00    +0.163 A 
ATOM      9  C   UNL     1       6.000   0.719   0.905  0.00  0.00    +0.230 A 
ATOM     10  O   UNL     1       6.711  -0.402   0.703  0.00  0.00    -0.449 OA
BRANCH   6  11
ATOM     11  C   UNL     1       6.311  -2.711  -0.253  0.00  0.00    +0.016 C 
BRANCH  11  12
ATOM     12  N   UNL     1       7.606  -2.670  -0.945  0.00  0.00    +0.386 N 
ATOM     13  H   UNL     1       7.521  -2.046  -1.847  0.00  0.00    -0.089 HD
ATOM     14  H   UNL     1       7.902  -3.690  -1.231  0.00  0.00    -0.089 HD
ATOM     15  H   UNL     1       8.366  -2.243  -0.274  0.00  0.00    -0.089 HD
ENDBRANCH  11  12
BRANCH  11  16
ATOM     16  C   UNL     1       6.430  -3.578   1.001  0.00  0.00    -0.020 C 
ATOM     17  C   UNL     1       7.487  -2.984   1.934  0.00  0.00    +0.006 C 
BRANCH  16  19
ATOM     18  C   UNL     1       6.838  -5.895   1.842  0.00  0.00    +0.004 C 
ATOM     19  C   UNL     1       6.840  -4.997   0.604  0.00  0.00    -0.001 C 
ENDBRANCH  16  19
ENDBRANCH  11  16
ENDBRANCH   6  11
ENDBRANCH   2   8
ENDBRANCH   1   4
BRANCH   1  20
ATOM     20  C   UNL     1      -0.014   1.204   0.009  0.00  0.00    +0.328 C 
ATOM     21  O   UNL     1       0.002  -0.004   0.002  0.00  0.00    -0.249 OA
BRANCH  20  22
ATOM     22  O   UNL     1      -1.186   1.859   0.018  0.00  0.00    -0.459 OA
BRANCH  22  23
ATOM     23  C   UNL     1      -2.393   1.052   0.019  0.00  0.00    +0.267 C 
BRANCH  23  24
ATOM     24  C   UNL     1      -3.600   1.954   0.030  0.00  0.00    -0.010 A 
ATOM     25  C   UNL     1      -4.152   2.356   1.232  0.00  0.00    +0.007 A 
ATOM     26  C   UNL     1      -5.256   3.187   1.242  0.00  0.00    +0.000 A 
ATOM     27  C   UNL     1      -5.816   3.608   0.049  0.00  0.00    +0.000 A 
ATOM     28  C   UNL     1      -5.267   3.200  -1.153  0.00  0.00    +0.000 A 
ATOM     29  C   UNL     1      -4.160   2.374  -1.163  0.00  0.00    +0.007 A 
ENDBRANCH  23  24
ENDBRANCH  22  23
ENDBRANCH  20  22
ENDBRANCH   1  20
BRANCH   1  30
ATOM     30  C   UNL     1       1.338   2.863  -1.245  0.00  0.00    +0.071 C 
BRANCH  30  31
ATOM     31  C   UNL     1       2.573   3.724  -1.192  0.00  0.00    -0.020 A 
ATOM     32  C   UNL     1       2.651   4.981  -0.727  0.00  0.00    +0.087 A 
ATOM     33  N   UNL     1       3.935   5.441  -0.838  0.00  0.00    -0.360 N 
ATOM     34  H   UNL     1       4.185   6.458  -0.504  0.00  0.00    +0.165 HD
ATOM     35  C   UNL     1       4.735   4.466  -1.390  0.00  0.00    +0.047 A 
ATOM     36  C   UNL     1       3.918   3.345  -1.631  0.00  0.00    +0.003 A 
ATOM     37  C   UNL     1       4.468   2.190  -2.188  0.00  0.00    +0.010 A 
ATOM     38  C   UNL     1       5.799   2.152  -2.496  0.00  0.00    +0.001 A 
ATOM     39  C   UNL     1       6.609   3.253  -2.258  0.00  0.00    +0.002 A 
ATOM     40  C   UNL     1       6.086   4.406  -1.715  0.00  0.00    +0.026 A 
ENDBRANCH  30  31
ENDBRANCH   1  30
TORSDOF 12
