REMARK  Name = ZINC35450020
REMARK  11 active torsions:
REMARK  status: ('A' for Active; 'I' for Inactive)
REMARK    1  A    between atoms: C_1  and  C_2
REMARK    2  A    between atoms: C_2  and  C_3
REMARK    3  A    between atoms: C_3  and  C_5
REMARK    4  A    between atoms: C_3  and  S_6
REMARK    5  A    between atoms: S_6  and  C_7
REMARK    6  A    between atoms: C_14  and  C_24
REMARK    7  A    between atoms: C_27  and  O_38
REMARK    8  A    between atoms: C_28  and  O_30
REMARK    9  A    between atoms: O_30  and  C_31
REMARK   10  A    between atoms: C_31  and  C_32
REMARK   11  A    between atoms: O_38  and  C_39
REMARK                            x       y       z     vdW  Elec       q    Type
REMARK                         _______ _______ _______ _____ _____    ______ ____
ROOT
ATOM      1  C   UNL     1       0.774  -0.523  -4.074  0.00  0.00    +0.171 A 
ATOM      2  N   UNL     1       1.933  -1.102  -3.832  0.00  0.00    -0.208 NA
ATOM      3  C   UNL     1       2.729  -1.497  -4.832  0.00  0.00    +0.135 A 
ATOM      4  C   UNL     1       2.337  -1.300  -6.144  0.00  0.00    +0.069 A 
ATOM      5  C   UNL     1       1.106  -0.683  -6.395  0.00  0.00    +0.258 A 
ATOM      6  O   UNL     1       0.729  -0.491  -7.540  0.00  0.00    -0.267 OA
ATOM      7  N   UNL     1       0.342  -0.307  -5.348  0.00  0.00    -0.302 N 
ATOM      8  C   UNL     1       3.208  -1.744  -7.281  0.00  0.00    +0.093 C 
ATOM      9  C   UNL     1       4.626  -1.981  -6.825  0.00  0.00    +0.024 C 
ATOM     10  C   UNL     1       4.923  -2.142  -5.519  0.00  0.00    +0.017 C 
ATOM     11  N   UNL     1       3.944  -2.096  -4.564  0.00  0.00    -0.302 N 
ATOM     12  C   UNL     1       6.346  -2.373  -5.069  0.00  0.00    +0.051 C 
ATOM     13  C   UNL     1       7.115  -3.121  -6.160  0.00  0.00    +0.014 C 
ATOM     14  C   UNL     1       7.067  -2.286  -7.444  0.00  0.00    +0.080 C 
ATOM     15  C   UNL     1       5.631  -2.031  -7.808  0.00  0.00    +0.162 C 
ATOM     16  O   UNL     1       5.332  -1.865  -8.974  0.00  0.00    -0.292 OA
ATOM     17  H   UNL     1       4.105  -2.488  -3.691  0.00  0.00    +0.153 HD
ATOM     18  H   UNL     1      -0.515   0.120  -5.502  0.00  0.00    +0.171 HD
ENDROOT
BRANCH   8  19
ATOM     19  C   UNL     1       2.656  -3.023  -7.855  0.00  0.00    -0.032 A 
ATOM     20  C   UNL     1       2.535  -4.144  -7.054  0.00  0.00    +0.008 A 
ATOM     21  C   UNL     1       2.029  -5.320  -7.576  0.00  0.00    +0.050 A 
ATOM     22  C   UNL     1       1.641  -5.377  -8.905  0.00  0.00    +0.162 A 
ATOM     23  C   UNL     1       1.762  -4.249  -9.711  0.00  0.00    +0.163 A 
ATOM     24  C   UNL     1       2.265  -3.072  -9.180  0.00  0.00    +0.054 A 
BRANCH  22  25
ATOM     25  O   UNL     1       1.143  -6.533  -9.421  0.00  0.00    -0.491 OA
ATOM     26  C   UNL     1       1.049  -7.650  -8.535  0.00  0.00    +0.277 C 
ENDBRANCH  22  25
BRANCH  23  27
ATOM     27  O   UNL     1       1.382  -4.300 -11.016  0.00  0.00    -0.484 OA
BRANCH  27  28
ATOM     28  C   UNL     1       1.534  -3.104 -11.783  0.00  0.00    +0.264 C 
BRANCH  28  29
ATOM     29  C   UNL     1       1.065  -3.350 -13.194  0.00  0.00    -0.010 A 
ATOM     30  C   UNL     1       1.954  -3.806 -14.149  0.00  0.00    +0.007 A 
ATOM     31  C   UNL     1       1.524  -4.032 -15.443  0.00  0.00    +0.000 A 
ATOM     32  C   UNL     1       0.204  -3.800 -15.783  0.00  0.00    +0.000 A 
ATOM     33  C   UNL     1      -0.685  -3.344 -14.828  0.00  0.00    +0.000 A 
ATOM     34  C   UNL     1      -0.256  -3.123 -13.533  0.00  0.00    +0.007 A 
ENDBRANCH  28  29
ENDBRANCH  27  28
ENDBRANCH  23  27
ENDBRANCH   8  19
BRANCH   1  35
ATOM     35  S   UNL     1      -0.239  -0.022  -2.723  0.00  0.00    -0.085 S 
BRANCH  35  36
ATOM     36  C   UNL     1       0.718  -0.497  -1.257  0.00  0.00    +0.051 C 
ATOM     37  C   UNL     1       0.849  -2.021  -1.205  0.00  0.00    +0.019 C 
BRANCH  36  39
ATOM     38  C   UNL     1      -0.019   1.526   0.010  0.00  0.00    +0.005 C 
ATOM     39  C   UNL     1       0.002  -0.004   0.002  0.00  0.00    +0.011 C 
ENDBRANCH  36  39
ENDBRANCH  35  36
ENDBRANCH   1  35
TORSDOF 8
