REMARK  Name = ZINC52566133
REMARK  9 active torsions:
REMARK  status: ('A' for Active; 'I' for Inactive)
REMARK    1  A    between atoms: C_1  and  N_2
REMARK    2  A    between atoms: N_2  and  C_3
REMARK    3  A    between atoms: C_7  and  C_14
REMARK    4  A    between atoms: C_16  and  O_20
REMARK    5  A    between atoms: O_20  and  C_21
REMARK    6  A    between atoms: C_21  and  C_22
REMARK    7  A    between atoms: C_22  and  C_24
REMARK    8  A    between atoms: C_22  and  N_34
REMARK    9  A    between atoms: C_24  and  C_25
REMARK                            x       y       z     vdW  Elec       q    Type
REMARK                         _______ _______ _______ _____ _____    ______ ____
ROOT
ATOM      1  C   UNL     1      -0.085   2.825  -4.909  0.00  0.00    +0.004 A 
ATOM      2  C   UNL     1      -0.148   3.071  -6.282  0.00  0.00    +0.057 A 
ATOM      3  C   UNL     1      -0.090   4.389  -6.718  0.00  0.00    +0.139 A 
ATOM      4  C   UNL     1       0.028   5.407  -5.781  0.00  0.00    +0.156 A 
ATOM      5  N   UNL     1       0.085   5.138  -4.491  0.00  0.00    -0.259 NA
ATOM      6  C   UNL     1       0.029   3.904  -4.034  0.00  0.00    +0.119 A 
ENDROOT
BRANCH   1  13
ATOM      7  C   UNL     1      -0.029   1.461   0.011  0.00  0.00    +0.130 C 
ATOM      8  N   UNL     1       0.002  -0.004   0.002  0.00  0.00    -0.319 N 
ATOM      9  C   UNL     1       0.146  -0.742   1.260  0.00  0.00    +0.130 C 
ATOM     10  C   UNL     1      -0.105  -0.698  -1.206  0.00  0.00    +0.150 A 
ATOM     11  C   UNL     1      -0.140  -0.103  -2.544  0.00  0.00    +0.042 A 
ATOM     12  C   UNL     1      -0.084   1.207  -3.023  0.00  0.00    +0.022 A 
ATOM     13  C   UNL     1      -0.143   1.437  -4.389  0.00  0.00    -0.016 A 
ATOM     14  C   UNL     1      -0.257   0.362  -5.279  0.00  0.00    +0.010 A 
ATOM     15  C   UNL     1      -0.312  -0.920  -4.819  0.00  0.00    +0.028 A 
ATOM     16  C   UNL     1      -0.255  -1.176  -3.450  0.00  0.00    +0.068 A 
ATOM     17  N   UNL     1      -0.286  -2.324  -2.702  0.00  0.00    -0.275 N 
ATOM     18  N   UNL     1      -0.187  -1.994  -1.347  0.00  0.00    -0.158 NA
ATOM     19  H   UNL     1      -0.361  -3.224  -3.057  0.00  0.00    +0.189 HD
ENDBRANCH   1  13
BRANCH   3  20
ATOM     20  O   UNL     1      -0.148   4.678  -8.044  0.00  0.00    -0.492 OA
BRANCH  20  21
ATOM     21  C   UNL     1      -0.082   6.058  -8.411  0.00  0.00    +0.213 C 
BRANCH  21  22
ATOM     22  C   UNL     1      -0.161   6.186  -9.934  0.00  0.00    -0.033 C 
BRANCH  22  23
ATOM     23  N   UNL     1      -1.477   5.723 -10.396  0.00  0.00    +0.382 N 
ATOM     24  H   UNL     1      -2.199   6.287  -9.973  0.00  0.00    -0.089 HD
ATOM     25  H   UNL     1      -1.529   5.807 -11.400  0.00  0.00    -0.089 HD
ATOM     26  H   UNL     1      -1.605   4.758 -10.132  0.00  0.00    -0.089 HD
ENDBRANCH  22  23
BRANCH  22  27
ATOM     27  C   UNL     1       0.034   7.649 -10.334  0.00  0.00    +0.020 C 
BRANCH  27  28
ATOM     28  C   UNL     1       0.079   7.758 -11.836  0.00  0.00    -0.043 C 
ATOM     29  C   UNL     1      -0.952   8.052 -12.661  0.00  0.00    -0.001 A 
ATOM     30  C   UNL     1      -2.369   8.345 -12.416  0.00  0.00    +0.010 A 
ATOM     31  C   UNL     1      -3.176   8.607 -13.469  0.00  0.00    +0.001 A 
ATOM     32  C   UNL     1      -2.695   8.604 -14.786  0.00  0.00    +0.002 A 
ATOM     33  C   UNL     1      -1.405   8.343 -15.090  0.00  0.00    +0.026 A 
ATOM     34  C   UNL     1      -0.468   8.055 -14.060  0.00  0.00    +0.043 A 
ATOM     35  N   UNL     1       0.812   7.775 -14.098  0.00  0.00    -0.380 N 
ATOM     36  C   UNL     1       1.287   7.567 -12.726  0.00  0.00    +0.144 C 
ATOM     37  H   UNL     1       1.355   7.718 -14.900  0.00  0.00    +0.160 HD
ENDBRANCH  27  28
ENDBRANCH  22  27
ENDBRANCH  21  22
ENDBRANCH  20  21
ENDBRANCH   3  20
TORSDOF 7
