REMARK  Name = ZINC28070950
REMARK  5 active torsions:
REMARK  status: ('A' for Active; 'I' for Inactive)
REMARK    1  A    between atoms: C_16  and  S_18
REMARK    2  A    between atoms: S_18  and  C_19
REMARK    3  A    between atoms: C_19  and  C_20
REMARK    4  A    between atoms: N_22  and  C_23
REMARK    5  A    between atoms: C_24  and  C_31
REMARK                            x       y       z     vdW  Elec       q    Type
REMARK                         _______ _______ _______ _____ _____    ______ ____
ROOT
ATOM      1  S   UNL     1       3.371   4.452  -0.007  0.00  0.00    -0.078 S 
ENDROOT
BRANCH   1  17
ATOM      2  C   UNL     1      -3.019   6.315   0.060  0.00  0.00    +0.001 A 
ATOM      3  C   UNL     1      -2.178   7.419   0.058  0.00  0.00    +0.002 A 
ATOM      4  C   UNL     1      -0.810   7.264   0.045  0.00  0.00    +0.028 A 
ATOM      5  C   UNL     1      -0.258   5.980   0.034  0.00  0.00    +0.077 A 
ATOM      6  C   UNL     1      -1.117   4.859   0.037  0.00  0.00    +0.043 A 
ATOM      7  C   UNL     1      -2.498   5.038   0.050  0.00  0.00    +0.013 A 
ATOM      8  C   UNL     1      -0.510   3.519   0.025  0.00  0.00    +0.150 A 
ATOM      9  N   UNL     1      -1.017   2.309   0.019  0.00  0.00    -0.227 NA
ATOM     10  C   UNL     1      -0.017   1.395   0.010  0.00  0.00    +0.090 A 
ATOM     11  C   UNL     1       0.002  -0.004   0.002  0.00  0.00    +0.030 A 
ATOM     12  C   UNL     1       1.195  -0.669  -0.013  0.00  0.00    +0.002 A 
ATOM     13  C   UNL     1       2.394   0.030  -0.021  0.00  0.00    +0.002 A 
ATOM     14  C   UNL     1       2.400   1.409  -0.013  0.00  0.00    +0.028 A 
ATOM     15  C   UNL     1       1.198   2.103   0.002  0.00  0.00    +0.076 A 
ATOM     16  N   UNL     1       0.866   3.446   0.012  0.00  0.00    -0.271 N 
ATOM     17  C   UNL     1       1.615   4.593   0.010  0.00  0.00    +0.176 A 
ATOM     18  N   UNL     1       1.084   5.789   0.020  0.00  0.00    -0.223 NA
ENDBRANCH   1  17
BRANCH   1  19
ATOM     19  C   UNL     1       3.827   6.204  -0.003  0.00  0.00    +0.173 C 
BRANCH  19  20
ATOM     20  C   UNL     1       5.329   6.332  -0.016  0.00  0.00    +0.228 C 
ATOM     21  O   UNL     1       6.022   5.337  -0.027  0.00  0.00    -0.275 OA
ATOM     22  N   UNL     1       5.901   7.552  -0.016  0.00  0.00    -0.279 N 
ATOM     23  H   UNL     1       5.272   8.454  -0.006  0.00  0.00    +0.155 HD
BRANCH  22  24
ATOM     24  C   UNL     1       7.283   7.670  -0.028  0.00  0.00    +0.084 A 
ATOM     25  C   UNL     1       8.047   8.824  -0.035  0.00  0.00    +0.068 A 
ATOM     26  C   UNL     1       9.502   8.672  -0.044  0.00  0.00    -0.023 A 
ATOM     27  C   UNL     1       9.944   7.401  -0.054  0.00  0.00    -0.004 A 
ATOM     28  S   UNL     1       8.470   6.410  -0.046  0.00  0.00    -0.077 S 
ATOM     29  C   UNL     1      11.446   7.326  -0.066  0.00  0.00    +0.043 C 
ATOM     30  C   UNL     1      11.909   8.732   0.375  0.00  0.00    +0.010 C 
ATOM     31  C   UNL     1      10.713   9.606  -0.053  0.00  0.00    +0.037 C 
BRANCH  25  32
ATOM     32  C   UNL     1       7.422  10.150  -0.030  0.00  0.00    +0.244 C 
ATOM     33  O   UNL     1       7.172  10.701   1.026  0.00  0.00    -0.270 OA
ATOM     34  N   UNL     1       7.124  10.759  -1.195  0.00  0.00    -0.325 N 
ATOM     35  H   UNL     1       6.655  11.754  -1.192  0.00  0.00    +0.145 HD
ATOM     36  H   UNL     1       7.350  10.261  -2.150  0.00  0.00    +0.145 HD
ENDBRANCH  25  32
ENDBRANCH  22  24
ENDBRANCH  19  20
ENDBRANCH   1  19
TORSDOF 5
