REMARK  Name = ZINC33869227
REMARK  11 active torsions:
REMARK  status: ('A' for Active; 'I' for Inactive)
REMARK    1  A    between atoms: C_1  and  C_2
REMARK    2  A    between atoms: C_2  and  C_3
REMARK    3  A    between atoms: C_3  and  O_4
REMARK    4  A    between atoms: O_4  and  C_5
REMARK    5  A    between atoms: C_8  and  C_11
REMARK    6  A    between atoms: N_19  and  C_22
REMARK    7  A    between atoms: C_22  and  C_23
REMARK    8  A    between atoms: C_29  and  C_31
REMARK    9  A    between atoms: C_29  and  C_39
REMARK   10  A    between atoms: C_31  and  C_32
REMARK   11  A    between atoms: C_35  and  O_38
REMARK                            x       y       z     vdW  Elec       q    Type
REMARK                         _______ _______ _______ _____ _____    ______ ____
ROOT
ATOM      1  C   UNL     1       3.346  -4.486   5.542  0.00  0.00    -0.027 C 
ATOM      2  C   UNL     1       2.326  -5.028   6.538  0.00  0.00    +0.077 C 
ATOM      3  C   UNL     1       3.288  -6.035   7.275  0.00  0.00    +0.086 C 
ATOM      4  C   UNL     1       2.565  -6.303   8.494  0.00  0.00    +0.225 C 
ATOM      5  O   UNL     1       2.535  -7.340   9.122  0.00  0.00    -0.275 OA
ATOM      6  N   UNL     1       1.919  -5.128   8.788  0.00  0.00    -0.237 N 
ATOM      7  C   UNL     1       1.921  -4.233   7.739  0.00  0.00    +0.225 C 
ATOM      8  O   UNL     1       1.657  -3.050   7.774  0.00  0.00    -0.275 OA
ATOM      9  C   UNL     1       3.942  -6.753   6.173  0.00  0.00    +0.052 C 
ATOM     10  N   UNL     1       4.061  -5.719   5.077  0.00  0.00    +0.396 N 
ATOM     11  H   UNL     1       3.626  -6.071   4.237  0.00  0.00    -0.083 HD
ATOM     12  H   UNL     1       5.031  -5.505   4.898  0.00  0.00    -0.083 HD
ENDROOT
BRANCH   1  16
ATOM     13  C   UNL     1       1.385  -2.554   2.273  0.00  0.00    +0.121 A 
ATOM     14  C   UNL     1       1.962  -1.797   3.283  0.00  0.00    +0.046 A 
ATOM     15  C   UNL     1       2.595  -2.424   4.339  0.00  0.00    +0.005 A 
ATOM     16  C   UNL     1       2.654  -3.804   4.389  0.00  0.00    -0.060 A 
ATOM     17  C   UNL     1       2.081  -4.561   3.384  0.00  0.00    +0.005 A 
ATOM     18  C   UNL     1       1.442  -3.939   2.329  0.00  0.00    +0.046 A 
BRANCH  13  19
ATOM     19  O   UNL     1       0.761  -1.940   1.234  0.00  0.00    -0.492 OA
BRANCH  19  20
ATOM     20  C   UNL     1       0.742  -0.511   1.242  0.00  0.00    +0.229 C 
BRANCH  20  22
ATOM     21  C   UNL     1      -0.019   1.526   0.010  0.00  0.00    +0.007 C 
ATOM     22  C   UNL     1       0.002  -0.004   0.002  0.00  0.00    +0.038 C 
ENDBRANCH  20  22
ENDBRANCH  19  20
ENDBRANCH  13  19
ENDBRANCH   1  16
BRANCH   9  23
ATOM     23  C   UNL     1       3.100  -7.923   5.735  0.00  0.00    +0.347 C 
ATOM     24  O   UNL     1       2.689  -7.985   4.589  0.00  0.00    -0.248 OA
ATOM     25  O   UNL     1       2.830  -8.810   6.528  0.00  0.00    -0.248 OA
ENDBRANCH   9  23
BRANCH   6  26
ATOM     26  C   UNL     1       1.279  -4.855  10.078  0.00  0.00    +0.151 C 
BRANCH  26  27
ATOM     27  C   UNL     1       2.277  -4.214  11.008  0.00  0.00    -0.030 A 
ATOM     28  C   UNL     1       3.068  -5.002  11.822  0.00  0.00    +0.005 A 
ATOM     29  C   UNL     1       3.983  -4.414  12.675  0.00  0.00    +0.000 A 
ATOM     30  C   UNL     1       4.108  -3.038  12.713  0.00  0.00    +0.000 A 
ATOM     31  C   UNL     1       3.318  -2.249  11.897  0.00  0.00    +0.000 A 
ATOM     32  C   UNL     1       2.405  -2.838  11.041  0.00  0.00    +0.005 A 
ENDBRANCH  26  27
ENDBRANCH   6  26
BRANCH   9  33
ATOM     33  C   UNL     1       5.335  -7.223   6.594  0.00  0.00    +0.035 C 
BRANCH  33  34
ATOM     34  C   UNL     1       6.033  -7.847   5.413  0.00  0.00    -0.048 A 
ATOM     35  C   UNL     1       5.897  -9.201   5.167  0.00  0.00    +0.007 A 
ATOM     36  C   UNL     1       6.536  -9.775   4.085  0.00  0.00    +0.045 A 
ATOM     37  C   UNL     1       7.315  -8.992   3.246  0.00  0.00    +0.117 A 
ATOM     38  C   UNL     1       7.450  -7.634   3.495  0.00  0.00    +0.045 A 
ATOM     39  C   UNL     1       6.804  -7.064   4.575  0.00  0.00    +0.007 A 
BRANCH  37  40
ATOM     40  O   UNL     1       7.946  -9.555   2.181  0.00  0.00    -0.507 OA
ATOM     41  H   UNL     1       7.421  -9.555   1.369  0.00  0.00    +0.292 HD
ENDBRANCH  37  40
ENDBRANCH  33  34
ENDBRANCH   9  33
TORSDOF 10
