REMARK  Name = ZINC03376283
REMARK  9 active torsions:
REMARK  status: ('A' for Active; 'I' for Inactive)
REMARK    1  A    between atoms: C_1  and  C_2
REMARK    2  A    between atoms: C_2  and  C_4
REMARK    3  A    between atoms: C_2  and  N_57
REMARK    4  A    between atoms: C_7  and  S_16
REMARK    5  A    between atoms: N_8  and  C_9
REMARK    6  A    between atoms: S_16  and  C_17
REMARK    7  A    between atoms: C_17  and  C_18
REMARK    8  A    between atoms: C_33  and  N_57
REMARK    9  A    between atoms: C_34  and  N_57
REMARK                            x       y       z     vdW  Elec       q    Type
REMARK                         _______ _______ _______ _____ _____    ______ ____
ROOT
ATOM      1  C   UNL     1       5.505  -2.318   1.573  0.00  0.00    +0.125 A 
ATOM      2  N   UNL     1       5.304  -2.054   0.313  0.00  0.00    -0.135 NA
ATOM      3  N   UNL     1       4.950  -0.827   0.169  0.00  0.00    -0.122 NA
ATOM      4  C   UNL     1       4.914  -0.232   1.339  0.00  0.00    +0.196 A 
ATOM      5  N   UNL     1       5.263  -1.167   2.274  0.00  0.00    -0.275 N 
ENDROOT
BRANCH   5   6
ATOM      6  C   UNL     1       5.355  -0.985   3.662  0.00  0.00    +0.050 A 
ATOM      7  C   UNL     1       6.583  -1.102   4.299  0.00  0.00    +0.028 A 
ATOM      8  C   UNL     1       6.672  -0.917   5.665  0.00  0.00    +0.022 A 
ATOM      9  C   UNL     1       5.536  -0.626   6.400  0.00  0.00    +0.041 A 
ATOM     10  C   UNL     1       4.310  -0.514   5.768  0.00  0.00    +0.022 A 
ATOM     11  C   UNL     1       4.217  -0.692   4.402  0.00  0.00    +0.028 A 
ATOM     12 CL   UNL     1       5.650  -0.400   8.117  0.00  0.00    -0.084 Cl
ENDBRANCH   5   6
BRANCH   1  14
ATOM     13  C   UNL     1       7.409  -3.879   1.869  0.00  0.00    -0.005 C 
ATOM     14  C   UNL     1       5.924  -3.645   2.151  0.00  0.00    -0.003 C 
BRANCH  14  17
ATOM     15  C   UNL     1       5.444  -4.848   0.105  0.00  0.00    -0.096 C 
ATOM     16  C   UNL     1       5.341  -5.994   2.236  0.00  0.00    -0.096 C 
ATOM     17  N   UNL     1       5.105  -4.712   1.538  0.00  0.00    +0.382 N 
ATOM     18  H   UNL     1       4.113  -4.463   1.624  0.00  0.00    -0.082 HD
ENDBRANCH  14  17
ENDBRANCH   1  14
BRANCH   4  19
ATOM     19  S   UNL     1       4.488   1.450   1.647  0.00  0.00    -0.081 S 
BRANCH  19  20
ATOM     20  C   UNL     1       4.165   2.007  -0.045  0.00  0.00    +0.113 C 
BRANCH  20  21
ATOM     21  C   UNL     1       3.771   3.461  -0.028  0.00  0.00    -0.019 A 
ATOM     22  C   UNL     1       4.800   4.328  -0.297  0.00  0.00    +0.097 A 
ATOM     23  C   UNL     1       4.584   5.713  -0.319  0.00  0.00    +0.338 A 
ATOM     24  O   UNL     1       5.502   6.476  -0.558  0.00  0.00    -0.245 OA
ATOM     25  O   UNL     1       3.358   6.189  -0.073  0.00  0.00    -0.422 OA
ATOM     26  C   UNL     1       2.323   5.363   0.196  0.00  0.00    +0.140 A 
ATOM     27  C   UNL     1       2.479   3.961   0.234  0.00  0.00    +0.029 A 
ATOM     28  C   UNL     1       1.289   3.160   0.536  0.00  0.00    -0.007 A 
ATOM     29  C   UNL     1       1.251   1.768   0.617  0.00  0.00    +0.009 A 
ATOM     30  C   UNL     1       0.092   1.095   0.902  0.00  0.00    +0.001 A 
ATOM     31  C   UNL     1      -1.097   1.771   1.131  0.00  0.00    +0.001 A 
ATOM     32  C   UNL     1      -1.117   3.128   1.062  0.00  0.00    +0.008 A 
ATOM     33  C   UNL     1       0.059   3.838   0.769  0.00  0.00    -0.017 A 
ATOM     34  C   UNL     1      -0.013   5.244   0.714  0.00  0.00    +0.012 A 
ATOM     35  C   UNL     1       1.087   5.972   0.437  0.00  0.00    +0.047 A 
ENDBRANCH  20  21
ENDBRANCH  19  20
ENDBRANCH   4  19
TORSDOF 6
