REMARK  Name = ZINC01050881
REMARK  7 active torsions:
REMARK  status: ('A' for Active; 'I' for Inactive)
REMARK    1  A    between atoms: C_1  and  C_2
REMARK    2  A    between atoms: C_2  and  C_28
REMARK    3  A    between atoms: C_7  and  C_11
REMARK    4  A    between atoms: N_13  and  C_14
REMARK    5  A    between atoms: N_13  and  C_21
REMARK    6  A    between atoms: C_14  and  C_15
REMARK    7  A    between atoms: C_21  and  C_22
REMARK                            x       y       z     vdW  Elec       q    Type
REMARK                         _______ _______ _______ _____ _____    ______ ____
ROOT
ATOM      1  C   UNL     1      -0.116   0.413  -0.073  0.00  0.00    +0.226 C 
ATOM      2  O   UNL     1       0.931  -0.108  -0.396  0.00  0.00    -0.275 OA
ATOM      3  N   UNL     1      -1.274  -0.261  -0.210  0.00  0.00    -0.292 N 
ENDROOT
BRANCH   1   9
ATOM      4  C   UNL     1       0.775   3.127   3.619  0.00  0.00    +0.016 C 
ATOM      5  C   UNL     1      -0.113   3.322   2.388  0.00  0.00    -0.010 C 
ATOM      6  C   UNL     1       0.729   3.863   1.192  0.00  0.00    +0.000 C 
ATOM      7  C   UNL     1      -0.332   4.234   0.110  0.00  0.00    +0.006 C 
ATOM      8  C   UNL     1      -0.899   2.874  -0.357  0.00  0.00    +0.021 C 
ATOM      9  C   UNL     1      -0.120   1.815   0.481  0.00  0.00    +0.069 C 
ATOM     10  C   UNL     1       1.279   2.514   0.606  0.00  0.00    +0.025 C 
ATOM     11  C   UNL     1      -0.648   1.966   1.915  0.00  0.00    -0.056 C 
ATOM     12  C   UNL     1      -1.405   1.126   2.575  0.00  0.00    +0.009 C 
ATOM     13  C   UNL     1      -1.262   4.280   2.706  0.00  0.00    +0.016 C 
ENDBRANCH   1   9
BRANCH   3  14
ATOM     14  C   UNL     1      -1.260  -1.667  -0.621  0.00  0.00    +0.143 C 
BRANCH  14  15
ATOM     15  C   UNL     1      -1.184  -2.547   0.601  0.00  0.00    -0.030 A 
ATOM     16  C   UNL     1       0.046  -2.926   1.104  0.00  0.00    +0.005 A 
ATOM     17  C   UNL     1       0.115  -3.729   2.228  0.00  0.00    +0.000 A 
ATOM     18  C   UNL     1      -1.046  -4.161   2.841  0.00  0.00    +0.000 A 
ATOM     19  C   UNL     1      -2.276  -3.785   2.335  0.00  0.00    +0.000 A 
ATOM     20  C   UNL     1      -2.345  -2.978   1.214  0.00  0.00    +0.005 A 
ENDBRANCH  14  15
ENDBRANCH   3  14
BRANCH   3  21
ATOM     21  C   UNL     1      -2.549   0.412   0.052  0.00  0.00    +0.143 C 
BRANCH  21  22
ATOM     22  C   UNL     1      -3.275   0.637  -1.249  0.00  0.00    -0.030 A 
ATOM     23  C   UNL     1      -3.140   1.840  -1.917  0.00  0.00    +0.005 A 
ATOM     24  C   UNL     1      -3.802   2.044  -3.113  0.00  0.00    +0.000 A 
ATOM     25  C   UNL     1      -4.608   1.050  -3.636  0.00  0.00    +0.000 A 
ATOM     26  C   UNL     1      -4.747  -0.151  -2.966  0.00  0.00    +0.000 A 
ATOM     27  C   UNL     1      -4.081  -0.357  -1.772  0.00  0.00    +0.005 A 
ENDBRANCH  21  22
ENDBRANCH   3  21
TORSDOF 5
