REMARK  Name = ZINC13499976
REMARK  11 active torsions:
REMARK  status: ('A' for Active; 'I' for Inactive)
REMARK    1  A    between atoms: C_1  and  C_2
REMARK    2  A    between atoms: C_4  and  C_30
REMARK    3  A    between atoms: C_6  and  N_8
REMARK    4  A    between atoms: C_9  and  C_11
REMARK    5  A    between atoms: C_11  and  S_12
REMARK    6  A    between atoms: S_12  and  C_13
REMARK    7  A    between atoms: C_18  and  C_27
REMARK    8  A    between atoms: C_22  and  C_26
REMARK    9  A    between atoms: C_23  and  C_25
REMARK   10  A    between atoms: C_27  and  C_28
REMARK   11  A    between atoms: C_27  and  C_29
REMARK                            x       y       z     vdW  Elec       q    Type
REMARK                         _______ _______ _______ _____ _____    ______ ____
ROOT
ATOM      1  C   UNL     1      -5.245   0.766   0.263  0.00  0.00    +0.198 A 
ATOM      2  N   UNL     1      -5.212  -0.544   0.356  0.00  0.00    -0.122 NA
ATOM      3  N   UNL     1      -6.408  -1.016   0.441  0.00  0.00    -0.128 NA
ATOM      4  C   UNL     1      -7.273  -0.033   0.407  0.00  0.00    +0.173 A 
ATOM      5  N   UNL     1      -6.559   1.141   0.297  0.00  0.00    -0.257 N 
ATOM      6  C   UNL     1      -7.205   2.341   0.232  0.00  0.00    +0.121 A 
ATOM      7  N   UNL     1      -8.504   2.417   0.282  0.00  0.00    -0.226 NA
ATOM      8  C   UNL     1      -9.277   1.341   0.393  0.00  0.00    +0.114 A 
ATOM      9  C   UNL     1      -8.749   0.040   0.464  0.00  0.00    +0.055 A 
ATOM     10  C   UNL     1      -9.692  -0.995   0.579  0.00  0.00    -0.028 A 
ATOM     11  C   UNL     1     -11.007  -0.711   0.615  0.00  0.00    -0.008 A 
ATOM     12  S   UNL     1     -11.030   1.069   0.487  0.00  0.00    -0.073 S 
ATOM     13  C   UNL     1     -12.172  -1.660   0.733  0.00  0.00    +0.052 C 
ATOM     14  C   UNL     1      -9.229  -2.427   0.662  0.00  0.00    +0.045 C 
ENDROOT
BRANCH   6  15
ATOM     15  C   UNL     1      -6.397   3.607   0.106  0.00  0.00    +0.049 C 
ATOM     16  C   UNL     1      -6.874   4.397  -1.114  0.00  0.00    +0.015 C 
ATOM     17  C   UNL     1      -6.579   4.456   1.366  0.00  0.00    +0.015 C 
ENDBRANCH   6  15
BRANCH   1  18
ATOM     18  S   UNL     1      -3.854   1.839   0.127  0.00  0.00    -0.076 S 
BRANCH  18  19
ATOM     19  C   UNL     1      -2.430   0.717   0.147  0.00  0.00    +0.173 C 
BRANCH  19  21
ATOM     20  N   UNL     1       0.035   0.890   0.030  0.00  0.00    -0.285 N 
ATOM     21  C   UNL     1      -1.158   1.517   0.036  0.00  0.00    +0.227 C 
ATOM     22  O   UNL     1      -1.208   2.726  -0.049  0.00  0.00    -0.275 OA
ATOM     23  H   UNL     1       0.073  -0.080   0.031  0.00  0.00    +0.155 HD
BRANCH  20  29
ATOM     24  C   UNL     1       4.718   1.424   1.430  0.00  0.00    +0.044 C 
ATOM     25  C   UNL     1       3.503   1.919   0.688  0.00  0.00    -0.048 A 
ATOM     26  C   UNL     1       3.558   3.113  -0.008  0.00  0.00    +0.006 A 
ATOM     27  C   UNL     1       2.446   3.571  -0.690  0.00  0.00    -0.048 A 
ATOM     28  C   UNL     1       1.277   2.836  -0.680  0.00  0.00    +0.026 A 
ATOM     29  C   UNL     1       1.218   1.637   0.018  0.00  0.00    +0.034 A 
ATOM     30  C   UNL     1       2.335   1.183   0.707  0.00  0.00    +0.026 A 
ATOM     31  C   UNL     1       2.510   4.873  -1.447  0.00  0.00    +0.044 C 
ENDBRANCH  20  29
ENDBRANCH  19  21
ENDBRANCH  18  19
ENDBRANCH   1  18
TORSDOF 5
