REMARK  Name = ZINC67223623
REMARK  3 active torsions:
REMARK  status: ('A' for Active; 'I' for Inactive)
REMARK    1  A    between atoms: C_8  and  N_13
REMARK    2  A    between atoms: N_13  and  C_14
REMARK    3  A    between atoms: C_14  and  C_15
REMARK                            x       y       z     vdW  Elec       q    Type
REMARK                         _______ _______ _______ _____ _____    ______ ____
ROOT
ATOM      1  C   UNL     1      -0.244   0.950   0.406  0.00  0.00    +0.019 A 
ATOM      2  C   UNL     1       0.892   1.722   0.541  0.00  0.00    +0.047 A 
ATOM      3  C   UNL     1       2.151   1.137   0.454  0.00  0.00    +0.122 A 
ATOM      4  C   UNL     1       2.261  -0.226   0.235  0.00  0.00    -0.019 A 
ATOM      5  C   UNL     1       1.118  -0.996   0.099  0.00  0.00    +0.020 A 
ATOM      6  C   UNL     1      -0.132  -0.411   0.184  0.00  0.00    +0.018 A 
ATOM      7 BR   UNL     1      -1.687  -1.470  -0.002  0.00  0.00    -0.050 Br
ATOM      8  C   UNL     1       3.606  -0.901   0.146  0.00  0.00    -0.034 C 
ATOM      9  C   UNL     1       4.692   0.145  -0.117  0.00  0.00    +0.030 C 
ATOM     10  C   UNL     1       4.496   1.302   0.871  0.00  0.00    +0.228 C 
ATOM     11  O   UNL     1       3.246   1.931   0.586  0.00  0.00    -0.492 OA
ENDROOT
BRANCH   8  12
ATOM     12  N   UNL     1       3.591  -1.877  -0.952  0.00  0.00    +0.388 N 
ATOM     13  H   UNL     1       2.820  -2.515  -0.825  0.00  0.00    -0.084 HD
ATOM     14  H   UNL     1       3.485  -1.392  -1.831  0.00  0.00    -0.084 HD
BRANCH  12  15
ATOM     15  C   UNL     1       4.853  -2.628  -0.957  0.00  0.00    -0.006 C 
BRANCH  15  16
ATOM     16  C   UNL     1       4.788  -3.713  -2.001  0.00  0.00    +0.090 A 
ATOM     17  C   UNL     1       5.167  -3.591  -3.286  0.00  0.00    +0.044 A 
ATOM     18  C   UNL     1       4.935  -4.843  -3.901  0.00  0.00    +0.062 A 
ATOM     19  C   UNL     1       4.429  -5.656  -2.954  0.00  0.00    +0.194 A 
ATOM     20  O   UNL     1       4.348  -4.967  -1.804  0.00  0.00    -0.450 OA
ATOM     21 CL   UNL     1       3.967  -7.314  -3.179  0.00  0.00    -0.043 Cl
ENDBRANCH  15  16
ENDBRANCH  12  15
ENDBRANCH   8  12
TORSDOF 3
