REMARK  Name = ZINC43167492
REMARK  9 active torsions:
REMARK  status: ('A' for Active; 'I' for Inactive)
REMARK    1  A    between atoms: C_1  and  C_2
REMARK    2  A    between atoms: C_2  and  C_3
REMARK    3  A    between atoms: C_2  and  C_4
REMARK    4  A    between atoms: C_4  and  C_6
REMARK    5  A    between atoms: C_4  and  N_11
REMARK    6  A    between atoms: N_14  and  C_15
REMARK    7  A    between atoms: C_15  and  C_16
REMARK    8  A    between atoms: C_16  and  C_18
REMARK    9  A    between atoms: C_16  and  N_23
REMARK                            x       y       z     vdW  Elec       q    Type
REMARK                         _______ _______ _______ _____ _____    ______ ____
ROOT
ATOM      1  N   UNL     1       0.680  -1.959  -1.171  0.00  0.00    -0.292 N 
ATOM      2  C   UNL     1       1.576  -2.630  -0.419  0.00  0.00    +0.300 C 
ATOM      3  O   UNL     1       2.278  -2.030   0.371  0.00  0.00    -0.253 OA
ATOM      4  N   UNL     1       1.693  -3.967  -0.544  0.00  0.00    -0.301 N 
ATOM      5  H   UNL     1       0.120  -2.438  -1.801  0.00  0.00    +0.151 HD
ATOM      6  H   UNL     1       1.133  -4.446  -1.175  0.00  0.00    +0.150 HD
ENDROOT
BRANCH   1   7
ATOM      7  C   UNL     1       0.553  -0.506  -1.035  0.00  0.00    +0.114 C 
BRANCH   7   8
ATOM      8  C   UNL     1       0.002   0.071  -2.313  0.00  0.00    +0.010 A 
ATOM      9  C   UNL     1       0.352   1.212  -2.956  0.00  0.00    +0.013 A 
ATOM     10  C   UNL     1      -0.297   1.547  -4.129  0.00  0.00    +0.008 A 
ATOM     11  C   UNL     1      -1.265   0.725  -4.603  0.00  0.00    +0.045 A 
ATOM     12  S   UNL     1      -1.278  -0.574  -3.378  0.00  0.00    -0.100 S 
ENDBRANCH   7   8
BRANCH   7  14
ATOM     13  C   UNL     1      -0.528   1.335   0.263  0.00  0.00    +0.009 C 
ATOM     14  C   UNL     1      -0.395  -0.183   0.121  0.00  0.00    +0.008 C 
ATOM     15  C   UNL     1      -1.770  -0.791  -0.162  0.00  0.00    +0.009 C 
ENDBRANCH   7  14
ENDBRANCH   1   7
BRANCH   4  16
ATOM     16  C   UNL     1       2.666  -4.697   0.273  0.00  0.00    +0.098 C 
BRANCH  16  17
ATOM     17  C   UNL     1       2.505  -6.200   0.037  0.00  0.00    +0.016 C 
BRANCH  17  18
ATOM     18  N   UNL     1       3.564  -6.924   0.753  0.00  0.00    +0.387 N 
ATOM     19  C   UNL     1       3.425  -8.386   0.529  0.00  0.00    -0.078 C 
ATOM     20  C   UNL     1       4.846  -8.926   0.832  0.00  0.00    -0.020 C 
ATOM     21  C   UNL     1       5.765  -7.823   0.260  0.00  0.00    -0.020 C 
ATOM     22  C   UNL     1       4.889  -6.557   0.210  0.00  0.00    -0.078 C 
ATOM     23  H   UNL     1       3.522  -6.716   1.739  0.00  0.00    -0.081 HD
ENDBRANCH  17  18
BRANCH  17  24
ATOM     24  C   UNL     1       1.159  -6.646   0.546  0.00  0.00    +0.093 A 
ATOM     25  C   UNL     1       0.066  -6.865  -0.207  0.00  0.00    +0.043 A 
ATOM     26  C   UNL     1      -0.965  -7.267   0.673  0.00  0.00    +0.041 A 
ATOM     27  C   UNL     1      -0.440  -7.270   1.912  0.00  0.00    +0.195 A 
ATOM     28  O   UNL     1       0.848  -6.899   1.828  0.00  0.00    -0.469 OA
ENDBRANCH  17  24
ENDBRANCH  16  17
ENDBRANCH   4  16
TORSDOF 7
