REMARK  Name = ZINC39759032
REMARK  9 active torsions:
REMARK  status: ('A' for Active; 'I' for Inactive)
REMARK    1  A    between atoms: C_1  and  C_2
REMARK    2  A    between atoms: C_4  and  C_26
REMARK    3  A    between atoms: C_8  and  C_12
REMARK    4  A    between atoms: C_12  and  C_14
REMARK    5  A    between atoms: C_12  and  N_15
REMARK    6  A    between atoms: N_15  and  C_16
REMARK    7  A    between atoms: C_19  and  C_22
REMARK    8  A    between atoms: C_22  and  C_23
REMARK    9  A    between atoms: C_22  and  C_24
REMARK                            x       y       z     vdW  Elec       q    Type
REMARK                         _______ _______ _______ _____ _____    ______ ____
ROOT
ATOM      1  C   UNL     1       5.277  -3.531   0.228  0.00  0.00    +0.133 C 
ATOM      2  C   UNL     1       6.154  -2.688   1.155  0.00  0.00    +0.036 C 
ENDROOT
BRANCH   1   9
ATOM      3  C   UNL     1      -0.019   1.526   0.010  0.00  0.00    +0.024 C 
ATOM      4  C   UNL     1       0.002  -0.004   0.002  0.00  0.00    +0.076 C 
ATOM      5  C   UNL     1       0.769  -0.528  -1.190  0.00  0.00    -0.045 C 
ATOM      6  C   UNL     1       1.868  -1.261  -0.953  0.00  0.00    +0.071 C 
ATOM      7  C   UNL     1       2.243  -1.498   0.457  0.00  0.00    +0.112 C 
ATOM      8  N   UNL     1       3.306  -2.207   0.754  0.00  0.00    -0.226 NA
ATOM      9  C   UNL     1       4.072  -2.729  -0.191  0.00  0.00    +0.143 C 
ATOM     10  N   UNL     1       3.837  -2.585  -1.473  0.00  0.00    -0.159 NA
ATOM     11  C   UNL     1       2.796  -1.891  -1.945  0.00  0.00    +0.271 C 
ATOM     12  O   UNL     1       2.607  -1.777  -3.144  0.00  0.00    -0.268 OA
ATOM     13  S   UNL     1       0.997  -0.657   1.404  0.00  0.00    -0.098 S 
ATOM     14  C   UNL     1       0.315  -0.239  -2.598  0.00  0.00    +0.041 C 
ENDBRANCH   1   9
BRANCH   1  15
ATOM     15  N   UNL     1       6.046  -3.914  -0.959  0.00  0.00    -0.334 N 
ATOM     16  H   UNL     1       5.986  -3.382  -1.767  0.00  0.00    +0.147 HD
BRANCH  15  17
ATOM     17  C   UNL     1       6.865  -5.044  -0.925  0.00  0.00    +0.028 A 
ATOM     18  C   UNL     1       6.948  -5.811   0.231  0.00  0.00    +0.023 A 
ATOM     19  C   UNL     1       7.759  -6.928   0.260  0.00  0.00    +0.006 A 
ATOM     20  C   UNL     1       8.489  -7.284  -0.859  0.00  0.00    -0.045 A 
ATOM     21  C   UNL     1       8.409  -6.524  -2.011  0.00  0.00    +0.006 A 
ATOM     22  C   UNL     1       7.596  -5.408  -2.050  0.00  0.00    +0.023 A 
BRANCH  20  23
ATOM     23  C   UNL     1       9.373  -8.504  -0.823  0.00  0.00    +0.013 C 
ATOM     24  C   UNL     1       8.915  -9.498  -1.892  0.00  0.00    +0.012 C 
ATOM     25  C   UNL     1      10.821  -8.091  -1.097  0.00  0.00    +0.012 C 
ENDBRANCH  20  23
ENDBRANCH  15  17
ENDBRANCH   1  15
TORSDOF 4
