REMARK  Name = ZINC35865319
REMARK  6 active torsions:
REMARK  status: ('A' for Active; 'I' for Inactive)
REMARK    1  A    between atoms: C_1  and  C_2
REMARK    2  A    between atoms: C_11  and  N_21
REMARK    3  A    between atoms: C_13  and  C_15
REMARK    4  A    between atoms: C_27  and  C_29
REMARK    5  A    between atoms: C_29  and  C_30
REMARK    6  A    between atoms: C_29  and  C_31
REMARK                            x       y       z     vdW  Elec       q    Type
REMARK                         _______ _______ _______ _____ _____    ______ ____
ROOT
ATOM      1  C   UNL     1       0.316   2.159  -1.048  0.00  0.00    +0.008 C 
ATOM      2  C   UNL     1       0.509   0.649  -0.900  0.00  0.00    -0.009 C 
ATOM      3  C   UNL     1       1.122   0.081  -2.184  0.00  0.00    +0.008 C 
ATOM      4  C   UNL     1       1.089  -1.447  -2.142  0.00  0.00    +0.037 C 
ATOM      5  C   UNL     1       1.735  -1.921  -0.843  0.00  0.00    -0.025 A 
ATOM      6  C   UNL     1       1.879  -1.074   0.202  0.00  0.00    -0.004 A 
ATOM      7  S   UNL     1       2.664  -2.031   1.475  0.00  0.00    -0.073 S 
ATOM      8  C   UNL     1       2.801  -3.561   0.609  0.00  0.00    +0.114 A 
ATOM      9  C   UNL     1       2.225  -3.276  -0.656  0.00  0.00    +0.051 A 
ATOM     10  C   UNL     1       2.189  -4.342  -1.600  0.00  0.00    +0.133 A 
ATOM     11  N   UNL     1       2.705  -5.499  -1.190  0.00  0.00    -0.216 NA
ATOM     12  C   UNL     1       3.225  -5.690   0.006  0.00  0.00    +0.135 A 
ATOM     13  N   UNL     1       3.290  -4.741   0.932  0.00  0.00    -0.224 NA
ATOM     14  C   UNL     1       1.459   0.363   0.271  0.00  0.00    +0.046 C 
ENDROOT
BRANCH  10  15
ATOM     15  N   UNL     1       1.652  -4.185  -2.865  0.00  0.00    -0.312 N 
ATOM     16  C   UNL     1       2.519  -3.889  -4.015  0.00  0.00    +0.125 C 
ATOM     17  C   UNL     1       2.277  -4.949  -5.096  0.00  0.00    +0.126 C 
ATOM     18  N   UNL     1       0.829  -5.076  -5.315  0.00  0.00    -0.298 N 
ATOM     19  C   UNL     1      -0.037  -5.371  -4.166  0.00  0.00    +0.126 C 
ATOM     20  C   UNL     1       0.205  -4.317  -3.085  0.00  0.00    +0.125 C 
ATOM     21  C   UNL     1       0.306  -4.923  -6.548  0.00  0.00    +0.218 C 
ATOM     22  O   UNL     1       1.038  -4.779  -7.504  0.00  0.00    -0.275 OA
BRANCH  21  23
ATOM     23  C   UNL     1      -1.189  -4.930  -6.737  0.00  0.00    +0.069 C 
ATOM     24  C   UNL     1      -1.523  -4.510  -8.170  0.00  0.00    +0.017 C 
ATOM     25  C   UNL     1      -1.729  -6.339  -6.480  0.00  0.00    +0.017 C 
ENDBRANCH  21  23
ENDBRANCH  10  15
BRANCH  12  26
ATOM     26  C   UNL     1       3.774  -7.054   0.339  0.00  0.00    +0.057 C 
ATOM     27  C   UNL     1       3.021  -7.627   1.541  0.00  0.00    +0.011 C 
ATOM     28  C   UNL     1       3.578  -9.011   1.879  0.00  0.00    +0.001 C 
ATOM     29  C   UNL     1       5.066  -8.894   2.217  0.00  0.00    +0.000 C 
ATOM     30  C   UNL     1       5.818  -8.321   1.014  0.00  0.00    +0.001 C 
ATOM     31  C   UNL     1       5.261  -6.937   0.677  0.00  0.00    +0.011 C 
ENDBRANCH  12  26
TORSDOF 3
