REMARK  Name = ZINC04020585
REMARK  8 active torsions:
REMARK  status: ('A' for Active; 'I' for Inactive)
REMARK    1  A    between atoms: C_1  and  C_2
REMARK    2  A    between atoms: C_2  and  C_4
REMARK    3  A    between atoms: C_2  and  N_14
REMARK    4  A    between atoms: N_14  and  C_15
REMARK    5  A    between atoms: C_15  and  C_16
REMARK    6  A    between atoms: C_16  and  C_18
REMARK    7  A    between atoms: C_16  and  O_27
REMARK    8  A    between atoms: C_21  and  N_24
REMARK                            x       y       z     vdW  Elec       q    Type
REMARK                         _______ _______ _______ _____ _____    ______ ____
ROOT
ATOM      1  N   UNL     1       0.713  -0.491   1.192  0.00  0.00    +0.383 N 
ATOM      2  H   UNL     1       0.798  -1.495   1.145  0.00  0.00    -0.085 HD
ATOM      3  H   UNL     1       1.632  -0.076   1.228  0.00  0.00    -0.085 HD
ENDROOT
BRANCH   1   5
ATOM      4  C   UNL     1      -0.019   1.526   0.010  0.00  0.00    -0.013 C 
ATOM      5  C   UNL     1       0.002  -0.004   0.002  0.00  0.00    -0.069 C 
BRANCH   5   6
ATOM      6  C   UNL     1       0.718  -0.497  -1.257  0.00  0.00    -0.041 C 
ATOM      7  C   UNL     1       0.739  -2.027  -1.265  0.00  0.00    +0.009 C 
ATOM      8  C   UNL     1       1.455  -2.521  -2.524  0.00  0.00    -0.010 C 
ATOM      9  C   UNL     1       0.715  -2.014  -3.764  0.00  0.00    +0.007 C 
ATOM     10  C   UNL     1       0.694  -0.484  -3.755  0.00  0.00    -0.010 C 
ATOM     11  C   UNL     1      -0.022   0.009  -2.496  0.00  0.00    +0.009 C 
ATOM     12  C   UNL     1       2.130   0.045  -3.766  0.00  0.00    +0.007 C 
ATOM     13  C   UNL     1       2.870  -0.461  -2.526  0.00  0.00    -0.010 C 
ATOM     14  C   UNL     1       2.890  -1.991  -2.535  0.00  0.00    +0.007 C 
ATOM     15  C   UNL     1       2.154   0.032  -1.268  0.00  0.00    +0.009 C 
ENDBRANCH   5   6
ENDBRANCH   1   5
BRANCH   1  16
ATOM     16  C   UNL     1      -0.040  -0.119   2.398  0.00  0.00    -0.046 C 
BRANCH  16  17
ATOM     17  C   UNL     1       0.700  -0.626   3.637  0.00  0.00    +0.128 C 
BRANCH  17  18
ATOM     18  C   UNL     1      -0.072  -0.244   4.874  0.00  0.00    -0.021 A 
ATOM     19  C   UNL     1      -1.098  -1.053   5.325  0.00  0.00    +0.008 A 
ATOM     20  C   UNL     1      -1.806  -0.703   6.460  0.00  0.00    +0.033 A 
ATOM     21  C   UNL     1      -1.488   0.455   7.143  0.00  0.00    +0.126 A 
ATOM     22  C   UNL     1      -0.461   1.264   6.693  0.00  0.00    +0.033 A 
ATOM     23  C   UNL     1       0.250   0.912   5.561  0.00  0.00    +0.008 A 
BRANCH  21  24
ATOM     24  N   UNL     1      -2.246   0.831   8.358  0.00  0.00    +0.056 N 
ATOM     25  O   UNL     1      -3.144   0.123   8.752  0.00  0.00    -0.126 OA
ATOM     26  O   UNL     1      -1.968   1.844   8.956  0.00  0.00    -0.126 OA
ENDBRANCH  21  24
ENDBRANCH  17  18
BRANCH  17  27
ATOM     27  O   UNL     1       0.821  -2.048   3.571  0.00  0.00    -0.389 OA
ATOM     28  H   UNL     1      -0.025  -2.514   3.534  0.00  0.00    +0.210 HD
ENDBRANCH  17  27
ENDBRANCH  16  17
ENDBRANCH   1  16
TORSDOF 7
