REMARK  Name = ZINC49849557
REMARK  7 active torsions:
REMARK  status: ('A' for Active; 'I' for Inactive)
REMARK    1  A    between atoms: C_1  and  C_2
REMARK    2  A    between atoms: C_2  and  N_3
REMARK    3  A    between atoms: N_3  and  C_4
REMARK    4  A    between atoms: C_4  and  C_6
REMARK    5  A    between atoms: C_4  and  C_13
REMARK    6  A    between atoms: C_15  and  C_19
REMARK    7  A    between atoms: C_17  and  C_18
REMARK                            x       y       z     vdW  Elec       q    Type
REMARK                         _______ _______ _______ _____ _____    ______ ____
ROOT
ATOM      1  C   UNL     1      -1.356  -1.981   0.004  0.00  0.00    -0.007 C 
ENDROOT
BRANCH   1   2
ATOM      2  C   UNL     1      -0.737  -2.482   1.284  0.00  0.00    -0.056 A 
ATOM      3  C   UNL     1      -1.031  -1.862   2.483  0.00  0.00    +0.002 A 
ATOM      4  C   UNL     1      -0.463  -2.321   3.657  0.00  0.00    +0.001 A 
ATOM      5  C   UNL     1       0.400  -3.401   3.631  0.00  0.00    +0.014 A 
ATOM      6  C   UNL     1       0.694  -4.022   2.431  0.00  0.00    +0.014 A 
ATOM      7  C   UNL     1       0.121  -3.566   1.258  0.00  0.00    +0.016 A 
ATOM      8  I   UNL     1       2.002  -5.658   2.391  0.00  0.00    -0.044 I 
ENDBRANCH   1   2
BRANCH   1   9
ATOM      9  C   UNL     1      -2.766  -2.502  -0.109  0.00  0.00    -0.016 A 
ATOM     10  C   UNL     1      -3.952  -1.793   0.187  0.00  0.00    +0.047 A 
ATOM     11  C   UNL     1      -4.977  -2.631  -0.052  0.00  0.00    +0.102 A 
ATOM     12  O   UNL     1      -4.477  -3.803  -0.475  0.00  0.00    -0.465 OA
ATOM     13  C   UNL     1      -3.137  -3.729  -0.516  0.00  0.00    +0.104 A 
ATOM     14  C   UNL     1      -2.206  -4.835  -0.943  0.00  0.00    +0.086 C 
ATOM     15  C   UNL     1      -6.439  -2.308   0.124  0.00  0.00    +0.086 C 
ENDBRANCH   1   9
BRANCH   1  16
ATOM     16  N   UNL     1      -1.376  -0.512   0.012  0.00  0.00    +0.386 N 
ATOM     17  H   UNL     1      -1.848  -0.187   0.843  0.00  0.00    -0.085 HD
ATOM     18  H   UNL     1      -1.864  -0.178  -0.805  0.00  0.00    -0.085 HD
BRANCH  16  20
ATOM     19  C   UNL     1      -0.019   1.526   0.010  0.00  0.00    -0.017 C 
ATOM     20  C   UNL     1       0.002  -0.004   0.002  0.00  0.00    -0.085 C 
ENDBRANCH  16  20
ENDBRANCH   1  16
TORSDOF 4
