REMARK  Name = ZINC10060942
REMARK  4 active torsions:
REMARK  status: ('A' for Active; 'I' for Inactive)
REMARK    1  A    between atoms: C_4  and  N_17
REMARK    2  A    between atoms: C_5  and  C_7
REMARK    3  A    between atoms: C_18  and  C_20
REMARK    4  A    between atoms: C_20  and  C_21
REMARK                            x       y       z     vdW  Elec       q    Type
REMARK                         _______ _______ _______ _____ _____    ______ ____
ROOT
ATOM      1  C   UNL     1      -1.375   7.177   0.131  0.00  0.00    +0.001 A 
ATOM      2  C   UNL     1      -2.741   7.134  -0.092  0.00  0.00    +0.002 A 
ATOM      3  C   UNL     1      -3.396   5.922  -0.189  0.00  0.00    +0.024 A 
ATOM      4  C   UNL     1      -2.684   4.737  -0.067  0.00  0.00    +0.044 A 
ATOM      5  C   UNL     1      -1.302   4.777   0.164  0.00  0.00    +0.038 A 
ATOM      6  C   UNL     1      -0.654   6.009   0.260  0.00  0.00    +0.013 A 
ENDROOT
BRANCH   5   7
ATOM      7  C   UNL     1      -0.535   3.522   0.301  0.00  0.00    +0.141 A 
ATOM      8  N   UNL     1       0.828   3.439   0.403  0.00  0.00    -0.338 N 
ATOM      9  H   UNL     1       1.471   4.204   0.398  0.00  0.00    +0.167 HD
ATOM     10  C   UNL     1       1.148   2.099   0.513  0.00  0.00    +0.066 A 
ATOM     11  C   UNL     1       2.341   1.402   0.643  0.00  0.00    +0.028 A 
ATOM     12  C   UNL     1       2.322   0.025   0.732  0.00  0.00    +0.002 A 
ATOM     13  C   UNL     1       1.119  -0.666   0.691  0.00  0.00    +0.002 A 
ATOM     14  C   UNL     1      -0.065   0.003   0.564  0.00  0.00    +0.030 A 
ATOM     15  C   UNL     1      -0.071   1.399   0.472  0.00  0.00    +0.089 A 
ATOM     16  N   UNL     1      -1.057   2.319   0.337  0.00  0.00    -0.228 NA
ENDBRANCH   5   7
BRANCH   4  17
ATOM     17  N   UNL     1      -3.342   3.510  -0.170  0.00  0.00    -0.285 N 
ATOM     18  C   UNL     1      -4.622   3.396   0.236  0.00  0.00    +0.222 C 
ATOM     19  O   UNL     1      -5.229   4.377   0.613  0.00  0.00    -0.275 OA
ATOM     20  H   UNL     1      -2.878   2.740  -0.533  0.00  0.00    +0.155 HD
BRANCH  18  21
ATOM     21  C   UNL     1      -5.301   2.051   0.221  0.00  0.00    +0.138 C 
BRANCH  21  22
ATOM     22  C   UNL     1      -6.716   2.196   0.718  0.00  0.00    -0.000 A 
ATOM     23  C   UNL     1      -7.845   2.454   0.014  0.00  0.00    +0.013 A 
ATOM     24  C   UNL     1      -9.049   2.545   0.688  0.00  0.00    +0.028 A 
ATOM     25  C   UNL     1      -9.064   2.373   2.033  0.00  0.00    +0.078 A 
ATOM     26  S   UNL     1      -7.341   2.065   2.385  0.00  0.00    -0.081 S 
ATOM     27 CL   UNL     1     -10.410   2.429   3.128  0.00  0.00    -0.076 Cl
ENDBRANCH  21  22
ENDBRANCH  18  21
ENDBRANCH   4  17
TORSDOF 4
