REMARK  Name = ZINC05728207
REMARK  6 active torsions:
REMARK  status: ('A' for Active; 'I' for Inactive)
REMARK    1  A    between atoms: C_1  and  N_2
REMARK    2  A    between atoms: N_2  and  C_3
REMARK    3  A    between atoms: N_2  and  C_4
REMARK    4  A    between atoms: C_7  and  C_10
REMARK    5  A    between atoms: N_11  and  N_12
REMARK    6  A    between atoms: C_13  and  C_15
REMARK                            x       y       z     vdW  Elec       q    Type
REMARK                         _______ _______ _______ _____ _____    ______ ____
ROOT
ATOM      1  N   UNL     1       4.814   1.061  -0.009  0.00  0.00    -0.202 N 
ATOM      2  C   UNL     1       5.971   1.753  -0.017  0.00  0.00    +0.287 C 
ATOM      3  O   UNL     1       5.952   2.969  -0.002  0.00  0.00    -0.267 OA
ATOM      4  H   UNL     1       4.829   0.091  -0.021  0.00  0.00    +0.178 HD
ENDROOT
BRANCH   2   5
ATOM      5  C   UNL     1       7.263   1.034  -0.043  0.00  0.00    +0.192 A 
ATOM      6  C   UNL     1       8.473   1.764  -0.056  0.00  0.00    +0.280 A 
ATOM      7  N   UNL     1       9.631   1.135  -0.084  0.00  0.00    -0.319 N 
ATOM      8  C   UNL     1       9.660  -0.203  -0.100  0.00  0.00    +0.068 A 
ATOM      9  C   UNL     1      10.881  -0.898  -0.119  0.00  0.00    +0.028 A 
ATOM     10  C   UNL     1      10.884  -2.259  -0.126  0.00  0.00    +0.002 A 
ATOM     11  C   UNL     1       9.691  -2.980  -0.113  0.00  0.00    +0.002 A 
ATOM     12  C   UNL     1       8.489  -2.343  -0.094  0.00  0.00    +0.030 A 
ATOM     13  C   UNL     1       8.444  -0.936  -0.082  0.00  0.00    +0.088 A 
ATOM     14  N   UNL     1       7.279  -0.287  -0.053  0.00  0.00    -0.235 NA
ATOM     15  O   UNL     1       8.443   3.118  -0.040  0.00  0.00    -0.265 OA
ATOM     16  H   UNL     1      10.485   1.656  -0.092  0.00  0.00    +0.169 HD
ENDBRANCH   2   5
BRANCH   1  18
ATOM     17  C   UNL     1       2.476   1.075   0.022  0.00  0.00    +0.138 C 
ATOM     18  N   UNL     1       3.590   1.742   0.015  0.00  0.00    -0.187 NA
BRANCH  17  22
ATOM     19  C   UNL     1      -1.233   3.140   0.096  0.00  0.00    +0.029 A 
ATOM     20  C   UNL     1      -1.213   1.749   0.074  0.00  0.00    +0.024 A 
ATOM     21  C   UNL     1      -0.012   1.076   0.055  0.00  0.00    +0.011 A 
ATOM     22  C   UNL     1       1.189   1.792   0.048  0.00  0.00    -0.005 A 
ATOM     23  C   UNL     1       1.165   3.190   0.065  0.00  0.00    +0.011 A 
ATOM     24  C   UNL     1      -0.040   3.856   0.089  0.00  0.00    +0.024 A 
BRANCH  19  26
ATOM     25  C   UNL     1      -2.474   5.283   0.139  0.00  0.00    +0.129 C 
ATOM     26  N   UNL     1      -2.451   3.818   0.121  0.00  0.00    -0.336 N 
ATOM     27  C   UNL     1      -3.708   3.066   0.128  0.00  0.00    +0.129 C 
ENDBRANCH  19  26
ENDBRANCH  17  22
ENDBRANCH   1  18
TORSDOF 4
