REMARK  Name = ZINC00804175
REMARK  7 active torsions:
REMARK  status: ('A' for Active; 'I' for Inactive)
REMARK    1  A    between atoms: C_1  and  C_2
REMARK    2  A    between atoms: C_11  and  C_23
REMARK    3  A    between atoms: C_13  and  C_19
REMARK    4  A    between atoms: C_13  and  C_21
REMARK    5  A    between atoms: C_14  and  N_18
REMARK    6  A    between atoms: C_15  and  C_16
REMARK    7  A    between atoms: C_23  and  C_24
REMARK                            x       y       z     vdW  Elec       q    Type
REMARK                         _______ _______ _______ _____ _____    ______ ____
ROOT
ATOM      1  C   UNL     1       6.595   1.267   1.229  0.00  0.00    +0.109 C 
ATOM      2  C   UNL     1       7.064  -0.135   1.522  0.00  0.00    +0.213 C 
ATOM      3  O   UNL     1       7.454  -0.424   2.633  0.00  0.00    -0.276 OA
ATOM      4  N   UNL     1       7.050  -1.067   0.548  0.00  0.00    -0.297 N 
ATOM      5  C   UNL     1       7.403  -2.472   0.824  0.00  0.00    +0.135 C 
ATOM      6  C   UNL     1       6.233  -3.316   0.383  0.00  0.00    -0.003 C 
ATOM      7  C   UNL     1       5.430  -2.917  -0.583  0.00  0.00    -0.026 C 
ATOM      8  C   UNL     1       5.599  -1.641  -1.352  0.00  0.00    +0.044 C 
ATOM      9  C   UNL     1       6.684  -0.727  -0.831  0.00  0.00    +0.116 C 
ATOM     10  C   UNL     1       4.242  -0.940  -1.427  0.00  0.00    +0.042 C 
ATOM     11  C   UNL     1       3.273  -1.825  -2.212  0.00  0.00    +0.184 C 
ATOM     12  C   UNL     1       3.265  -3.232  -1.696  0.00  0.00    +0.054 C 
ATOM     13  C   UNL     1       4.263  -3.765  -0.947  0.00  0.00    +0.074 C 
ENDROOT
BRANCH  12  14
ATOM     14  N   UNL     1       2.192  -4.024  -1.998  0.00  0.00    -0.358 N 
ATOM     15  H   UNL     1       2.155  -5.061  -1.635  0.00  0.00    +0.142 HD
ATOM     16  H   UNL     1       1.366  -3.623  -2.603  0.00  0.00    +0.142 HD
ENDBRANCH  12  14
BRANCH  13  17
ATOM     17  C   UNL     1       4.194  -5.127  -0.512  0.00  0.00    +0.101 C 
ATOM     18  N   UNL     1       4.139  -6.208  -0.167  0.00  0.00    -0.191 NA
ENDBRANCH  13  17
BRANCH  11  19
ATOM     19  C   UNL     1       1.915  -1.266  -2.102  0.00  0.00    +0.091 C 
ATOM     20  N   UNL     1       0.868  -0.834  -2.017  0.00  0.00    -0.195 NA
ENDBRANCH  11  19
BRANCH  11  21
ATOM     21  C   UNL     1       3.672  -1.836  -3.629  0.00  0.00    +0.091 C 
ATOM     22  N   UNL     1       3.980  -1.844  -4.722  0.00  0.00    -0.195 NA
ENDBRANCH  11  21
BRANCH  10  23
ATOM     23  C   UNL     1       3.701  -0.716  -0.013  0.00  0.00    +0.042 C 
BRANCH  23  24
ATOM     24  C   UNL     1       3.329  -2.042   0.598  0.00  0.00    -0.047 A 
ATOM     25  C   UNL     1       4.191  -2.661   1.484  0.00  0.00    +0.003 A 
ATOM     26  C   UNL     1       3.850  -3.877   2.045  0.00  0.00    +0.000 A 
ATOM     27  C   UNL     1       2.646  -4.475   1.720  0.00  0.00    +0.000 A 
ATOM     28  C   UNL     1       1.784  -3.856   0.835  0.00  0.00    +0.000 A 
ATOM     29  C   UNL     1       2.126  -2.640   0.273  0.00  0.00    +0.003 A 
ENDBRANCH  23  24
ENDBRANCH  10  23
TORSDOF 6
