REMARK  Name = ZINC12541245
REMARK  8 active torsions:
REMARK  status: ('A' for Active; 'I' for Inactive)
REMARK    1  A    between atoms: C_1  and  C_2
REMARK    2  A    between atoms: C_2  and  C_3
REMARK    3  A    between atoms: C_6  and  N_9
REMARK    4  A    between atoms: C_11  and  C_16
REMARK    5  A    between atoms: C_16  and  O_18
REMARK    6  A    between atoms: O_18  and  C_19
REMARK    7  A    between atoms: C_19  and  C_20
REMARK    8  A    between atoms: C_25  and  C_28
REMARK                            x       y       z     vdW  Elec       q    Type
REMARK                         _______ _______ _______ _____ _____    ______ ____
ROOT
ATOM      1  C   UNL     1      -5.901   2.754  -9.682  0.00  0.00    +0.328 C 
ENDROOT
BRANCH   1   2
ATOM      2  C   UNL     1      -6.643   3.735 -10.553  0.00  0.00    +0.256 C 
ATOM      3  O   UNL     1      -6.871   4.855 -10.148  0.00  0.00    -0.272 OA
ATOM      4  N   UNL     1      -7.054   3.367 -11.783  0.00  0.00    -0.262 N 
ATOM      5  C   UNL     1      -7.738   4.271 -12.586  0.00  0.00    +0.165 A 
ATOM      6  N   UNL     1      -8.213   4.110 -13.807  0.00  0.00    -0.225 NA
ATOM      7  C   UNL     1      -8.852   5.088 -14.431  0.00  0.00    +0.080 A 
ATOM      8  C   UNL     1      -9.011   6.293 -13.803  0.00  0.00    +0.076 A 
ATOM      9  S   UNL     1      -8.200   5.963 -12.244  0.00  0.00    -0.060 S 
ATOM     10  H   UNL     1      -6.872   2.471 -12.107  0.00  0.00    +0.157 HD
BRANCH   7  11
ATOM     11  C   UNL     1      -9.383   4.882 -15.800  0.00  0.00    +0.002 A 
ATOM     12  C   UNL     1     -10.054   5.915 -16.453  0.00  0.00    +0.011 A 
ATOM     13  C   UNL     1     -10.542   5.720 -17.729  0.00  0.00    +0.022 A 
ATOM     14  C   UNL     1     -10.377   4.497 -18.357  0.00  0.00    +0.059 A 
ATOM     15  C   UNL     1      -9.716   3.466 -17.711  0.00  0.00    +0.060 A 
ATOM     16  C   UNL     1      -9.219   3.653 -16.436  0.00  0.00    +0.031 A 
ATOM     17 CL   UNL     1      -9.512   1.935 -18.505  0.00  0.00    -0.082 Cl
ATOM     18 CL   UNL     1     -10.999   4.256 -19.959  0.00  0.00    -0.082 Cl
ENDBRANCH   7  11
ENDBRANCH   1   2
BRANCH   1  19
ATOM     19  O   UNL     1      -5.571   3.385  -8.416  0.00  0.00    -0.455 OA
BRANCH  19  20
ATOM     20  C   UNL     1      -4.904   2.640  -7.520  0.00  0.00    +0.313 C 
ATOM     21  O   UNL     1      -4.606   1.500  -7.785  0.00  0.00    -0.250 OA
BRANCH  20  24
ATOM     22  N   UNL     1      -2.755   2.964  -4.589  0.00  0.00    -0.271 N 
ATOM     23  C   UNL     1      -3.768   2.195  -5.321  0.00  0.00    +0.128 C 
ATOM     24  C   UNL     1      -4.526   3.228  -6.185  0.00  0.00    +0.124 C 
ATOM     25  C   UNL     1      -3.464   4.340  -6.350  0.00  0.00    +0.112 C 
ATOM     26  C   UNL     1      -2.565   4.173  -5.145  0.00  0.00    +0.221 C 
ATOM     27  O   UNL     1      -1.783   5.008  -4.741  0.00  0.00    -0.275 OA
BRANCH  22  31
ATOM     28  C   UNL     1      -0.743   1.586  -1.212  0.00  0.00    -0.048 A 
ATOM     29  C   UNL     1      -0.391   2.797  -1.778  0.00  0.00    +0.005 A 
ATOM     30  C   UNL     1      -1.053   3.255  -2.901  0.00  0.00    +0.024 A 
ATOM     31  C   UNL     1      -2.079   2.501  -3.455  0.00  0.00    +0.036 A 
ATOM     32  C   UNL     1      -2.433   1.287  -2.881  0.00  0.00    +0.024 A 
ATOM     33  C   UNL     1      -1.764   0.833  -1.761  0.00  0.00    +0.005 A 
BRANCH  28  35
ATOM     34  C   UNL     1       1.184   0.241  -0.420  0.00  0.00    +0.009 C 
ATOM     35  C   UNL     1      -0.015   1.088   0.010  0.00  0.00    +0.032 C 
ENDBRANCH  28  35
ENDBRANCH  22  31
ENDBRANCH  20  24
ENDBRANCH  19  20
ENDBRANCH   1  19
TORSDOF 7
