REMARK  Name = ZINC39154732
REMARK  10 active torsions:
REMARK  status: ('A' for Active; 'I' for Inactive)
REMARK    1  A    between atoms: C_1  and  C_2
REMARK    2  A    between atoms: C_2  and  O_3
REMARK    3  A    between atoms: O_3  and  C_4
REMARK    4  A    between atoms: C_4  and  C_6
REMARK    5  A    between atoms: C_8  and  N_17
REMARK    6  A    between atoms: C_18  and  C_20
REMARK    7  A    between atoms: C_20  and  S_21
REMARK    8  A    between atoms: S_21  and  C_22
REMARK    9  A    between atoms: C_26  and  C_29
REMARK   10  A    between atoms: C_29  and  C_30
REMARK                            x       y       z     vdW  Elec       q    Type
REMARK                         _______ _______ _______ _____ _____    ______ ____
ROOT
ATOM      1  N   UNL     1       3.428  -1.565  -1.230  0.00  0.00    -0.301 N 
ATOM      2  C   UNL     1       4.656  -1.984  -0.865  0.00  0.00    +0.224 C 
ATOM      3  O   UNL     1       5.348  -2.592  -1.654  0.00  0.00    -0.275 OA
ATOM      4  H   UNL     1       2.874  -1.079  -0.599  0.00  0.00    +0.150 HD
ENDROOT
BRANCH   1   6
ATOM      5  C   UNL     1       1.468  -2.353  -2.550  0.00  0.00    +0.155 C 
ATOM      6  C   UNL     1       2.929  -1.844  -2.578  0.00  0.00    +0.153 C 
ATOM      7  S   UNL     1       3.731  -3.337  -3.302  0.00  0.00    -0.106 S 
ATOM      8  C   UNL     1       2.488  -4.532  -2.871  0.00  0.00    -0.013 C 
ATOM      9  C   UNL     1       1.407  -3.859  -2.501  0.00  0.00    -0.044 C 
ATOM     10  C   UNL     1       0.146  -4.590  -2.044  0.00  0.00    +0.032 C 
ATOM     11  C   UNL     1       0.199  -6.036  -2.536  0.00  0.00    +0.005 C 
ATOM     12  C   UNL     1       1.526  -6.673  -2.111  0.00  0.00    +0.005 C 
ATOM     13  C   UNL     1       2.652  -6.026  -2.920  0.00  0.00    +0.042 C 
BRANCH   5  14
ATOM     14  C   UNL     1       0.775  -1.794  -1.334  0.00  0.00    +0.317 C 
ATOM     15  O   UNL     1       0.314  -2.540  -0.504  0.00  0.00    -0.250 OA
BRANCH  14  16
ATOM     16  O   UNL     1       0.671  -0.465  -1.174  0.00  0.00    -0.464 OA
BRANCH  16  18
ATOM     17  C   UNL     1      -0.019   1.526   0.010  0.00  0.00    +0.048 C 
ATOM     18  C   UNL     1       0.002  -0.004   0.002  0.00  0.00    +0.229 C 
ENDBRANCH  16  18
ENDBRANCH  14  16
ENDBRANCH   5  14
ENDBRANCH   1   6
BRANCH   2  19
ATOM     19  C   UNL     1       5.169  -1.697   0.523  0.00  0.00    +0.173 C 
BRANCH  19  20
ATOM     20  S   UNL     1       6.838  -2.383   0.704  0.00  0.00    -0.075 S 
BRANCH  20  21
ATOM     21  C   UNL     1       7.292  -1.970   2.356  0.00  0.00    +0.213 A 
ATOM     22  N   UNL     1       8.481  -2.334   2.821  0.00  0.00    -0.180 NA
ATOM     23  C   UNL     1       8.817  -2.019   4.067  0.00  0.00    +0.296 A 
ATOM     24  O   UNL     1      10.024  -2.377   4.568  0.00  0.00    -0.264 OA
ATOM     25  C   UNL     1       7.903  -1.313   4.850  0.00  0.00    +0.134 A 
ATOM     26  N   UNL     1       6.735  -0.979   4.333  0.00  0.00    -0.146 NA
ATOM     27  N   UNL     1       6.442  -1.294   3.120  0.00  0.00    -0.122 NA
BRANCH  25  28
ATOM     28  C   UNL     1       8.244  -0.938   6.269  0.00  0.00    +0.099 C 
BRANCH  28  29
ATOM     29  C   UNL     1       8.912   0.413   6.284  0.00  0.00    -0.023 A 
ATOM     30  C   UNL     1      10.292   0.502   6.271  0.00  0.00    +0.005 A 
ATOM     31  C   UNL     1      10.905   1.741   6.285  0.00  0.00    +0.000 A 
ATOM     32  C   UNL     1      10.139   2.892   6.311  0.00  0.00    +0.001 A 
ATOM     33  C   UNL     1       8.760   2.804   6.323  0.00  0.00    +0.020 A 
ATOM     34  C   UNL     1       8.146   1.564   6.304  0.00  0.00    +0.045 A 
ATOM     35 CL   UNL     1       6.413   1.453   6.312  0.00  0.00    -0.083 Cl
ENDBRANCH  28  29
ENDBRANCH  25  28
ENDBRANCH  20  21
ENDBRANCH  19  20
ENDBRANCH   2  19
TORSDOF 9
