REMARK  Name = ZINC09010296
REMARK  10 active torsions:
REMARK  status: ('A' for Active; 'I' for Inactive)
REMARK    1  A    between atoms: C_5  and  C_7
REMARK    2  A    between atoms: C_7  and  N_8
REMARK    3  A    between atoms: C_10  and  C_17
REMARK    4  A    between atoms: C_18  and  C_19
REMARK    5  A    between atoms: C_18  and  C_21
REMARK    6  A    between atoms: C_22  and  C_30
REMARK    7  A    between atoms: C_23  and  N_29
REMARK    8  A    between atoms: N_24  and  C_26
REMARK    9  A    between atoms: C_26  and  C_27
REMARK   10  A    between atoms: C_27  and  O_28
REMARK                            x       y       z     vdW  Elec       q    Type
REMARK                         _______ _______ _______ _____ _____    ______ ____
ROOT
ATOM      1  C   UNL     1       2.078   3.804  -0.364  0.00  0.00    +0.031 C 
ATOM      2  C   UNL     1       1.765   5.134  -0.334  0.00  0.00    +0.081 C 
ENDROOT
BRANCH   1   5
ATOM      3  N   UNL     1      -0.988   1.840  -0.533  0.00  0.00    -0.342 N 
ATOM      4  C   UNL     1      -0.309   3.011  -0.638  0.00  0.00    +0.095 A 
ATOM      5  C   UNL     1       1.013   2.803  -0.358  0.00  0.00    +0.002 A 
ATOM      6  C   UNL     1       1.153   1.367  -0.047  0.00  0.00    +0.007 A 
ATOM      7  C   UNL     1      -0.134   0.819  -0.170  0.00  0.00    +0.050 A 
ATOM      8  C   UNL     1      -0.323  -0.539   0.067  0.00  0.00    +0.026 A 
ATOM      9  C   UNL     1       0.749  -1.331   0.418  0.00  0.00    +0.002 A 
ATOM     10  C   UNL     1       2.019  -0.787   0.539  0.00  0.00    +0.001 A 
ATOM     11  C   UNL     1       2.226   0.555   0.309  0.00  0.00    +0.010 A 
BRANCH   3  12
ATOM     12  C   UNL     1      -2.425   1.683  -0.771  0.00  0.00    +0.159 C 
BRANCH  12  17
ATOM     13  C   UNL     1      -2.961  -0.378  -3.889  0.00  0.00    +0.000 A 
ATOM     14  C   UNL     1      -3.087   0.606  -4.853  0.00  0.00    +0.003 A 
ATOM     15  C   UNL     1      -2.999   1.938  -4.497  0.00  0.00    +0.039 A 
ATOM     16  C   UNL     1      -2.789   2.289  -3.174  0.00  0.00    +0.128 A 
ATOM     17  C   UNL     1      -2.658   1.303  -2.210  0.00  0.00    +0.007 A 
ATOM     18  C   UNL     1      -2.747  -0.029  -2.568  0.00  0.00    +0.008 A 
ATOM     19  F   UNL     1      -2.708   3.591  -2.825  0.00  0.00    -0.205 F 
ENDBRANCH  12  17
ENDBRANCH   3  12
ENDBRANCH   1   5
BRANCH   2  20
ATOM     20  C   UNL     1       2.830   6.148  -0.493  0.00  0.00    +0.122 A 
ATOM     21  C   UNL     1       2.655   7.606  -0.483  0.00  0.00    +0.119 A 
ATOM     22  C   UNL     1       3.922   8.151  -0.665  0.00  0.00    +0.133 A 
ATOM     23  N   UNL     1       4.794   7.129  -0.777  0.00  0.00    -0.247 N 
ATOM     24  N   UNL     1       4.112   5.914  -0.664  0.00  0.00    -0.167 NA
BRANCH  22  25
ATOM     25  N   UNL     1       4.231   9.496  -0.722  0.00  0.00    -0.342 N 
ATOM     26  H   UNL     1       3.529  10.159  -0.631  0.00  0.00    +0.144 HD
ATOM     27  H   UNL     1       5.150   9.778  -0.854  0.00  0.00    +0.144 HD
ENDBRANCH  22  25
BRANCH  21  28
ATOM     28  C   UNL     1       1.426   8.323  -0.318  0.00  0.00    +0.105 C 
ATOM     29  N   UNL     1       0.452   8.891  -0.188  0.00  0.00    -0.191 NA
ENDBRANCH  21  28
BRANCH  23  30
ATOM     30  C   UNL     1       6.238   7.269  -0.980  0.00  0.00    +0.173 C 
BRANCH  30  31
ATOM     31  C   UNL     1       6.940   7.333   0.378  0.00  0.00    +0.179 C 
BRANCH  31  32
ATOM     32  O   UNL     1       8.349   7.470   0.179  0.00  0.00    -0.393 OA
ATOM     33  H   UNL     1       8.859   7.517   1.000  0.00  0.00    +0.209 HD
ENDBRANCH  31  32
ENDBRANCH  30  31
ENDBRANCH  23  30
ENDBRANCH   2  20
BRANCH   2  34
ATOM     34  C   UNL     1       0.406   5.545  -0.148  0.00  0.00    +0.101 C 
ATOM     35  N   UNL     1      -0.672   5.872  -0.000  0.00  0.00    -0.191 NA
ENDBRANCH   2  34
TORSDOF 10
