REMARK  Name = ZINC57083485
REMARK  4 active torsions:
REMARK  status: ('A' for Active; 'I' for Inactive)
REMARK    1  A    between atoms: C_1  and  C_2
REMARK    2  A    between atoms: C_15  and  C_17
REMARK    3  A    between atoms: C_20  and  N_26
REMARK    4  A    between atoms: C_21  and  N_23
REMARK                            x       y       z     vdW  Elec       q    Type
REMARK                         _______ _______ _______ _____ _____    ______ ____
ROOT
ATOM      1  C   UNL     1       0.169   0.669  -0.383  0.00  0.00    +0.008 C 
ATOM      2  C   UNL     1       0.125  -0.839  -0.127  0.00  0.00    -0.008 C 
ATOM      3  C   UNL     1      -1.333  -1.304  -0.054  0.00  0.00    +0.022 C 
ATOM      4  C   UNL     1      -2.056  -0.561   1.072  0.00  0.00    +0.108 C 
ATOM      5  N   UNL     1      -1.300  -0.728   2.323  0.00  0.00    -0.294 N 
ATOM      6  C   UNL     1       0.124  -0.377   2.323  0.00  0.00    +0.080 C 
ATOM      7  C   UNL     1       0.820  -1.152   1.198  0.00  0.00    +0.012 C 
ATOM      8  C   UNL     1       2.292  -0.747   1.145  0.00  0.00    +0.005 C 
ATOM      9  C   UNL     1       2.955  -1.100   2.479  0.00  0.00    +0.000 C 
ATOM     10  C   UNL     1       2.254  -0.362   3.620  0.00  0.00    +0.002 C 
ATOM     11  C   UNL     1       0.768  -0.746   3.659  0.00  0.00    +0.023 C 
ATOM     12  C   UNL     1      -1.899  -1.191   3.438  0.00  0.00    +0.247 C 
ATOM     13  O   UNL     1      -1.238  -1.420   4.433  0.00  0.00    -0.270 OA
ENDROOT
BRANCH  12  14
ATOM     14  C   UNL     1      -3.356  -1.420   3.451  0.00  0.00    +0.039 A 
ATOM     15  C   UNL     1      -3.896  -2.453   4.223  0.00  0.00    +0.015 A 
ATOM     16  C   UNL     1      -5.256  -2.663   4.234  0.00  0.00    +0.026 A 
ATOM     17  C   UNL     1      -6.094  -1.849   3.477  0.00  0.00    +0.055 A 
ATOM     18  C   UNL     1      -5.559  -0.820   2.707  0.00  0.00    +0.147 A 
ATOM     19  C   UNL     1      -4.201  -0.601   2.696  0.00  0.00    +0.047 A 
BRANCH  18  20
ATOM     20  N   UNL     1      -6.454   0.042   1.902  0.00  0.00    +0.058 N 
ATOM     21  O   UNL     1      -7.412  -0.436   1.342  0.00  0.00    -0.126 OA
ATOM     22  O   UNL     1      -6.226   1.226   1.805  0.00  0.00    -0.126 OA
ENDBRANCH  18  20
BRANCH  17  23
ATOM     23  N   UNL     1      -7.468  -2.065   3.489  0.00  0.00    -0.356 N 
ATOM     24  H   UNL     1      -7.847  -2.739   4.075  0.00  0.00    +0.142 HD
ATOM     25  H   UNL     1      -8.046  -1.542   2.913  0.00  0.00    +0.142 HD
ENDBRANCH  17  23
ENDBRANCH  12  14
TORSDOF 3
