REMARK  Name = ZINC63708118
REMARK  7 active torsions:
REMARK  status: ('A' for Active; 'I' for Inactive)
REMARK    1  A    between atoms: C_1  and  C_2
REMARK    2  A    between atoms: C_4  and  N_8
REMARK    3  A    between atoms: C_9  and  C_11
REMARK    4  A    between atoms: C_11  and  S_12
REMARK    5  A    between atoms: S_12  and  C_13
REMARK    6  A    between atoms: C_25  and  C_28
REMARK    7  A    between atoms: C_32  and  N_34
REMARK                            x       y       z     vdW  Elec       q    Type
REMARK                         _______ _______ _______ _____ _____    ______ ____
ROOT
ATOM      1  C   UNL     1      -2.893  -7.316  -3.492  0.00  0.00    +0.245 C 
ATOM      2  N   UNL     1      -3.973  -6.526  -4.083  0.00  0.00    -0.357 N 
ATOM      3  C   UNL     1      -3.786  -5.621  -5.025  0.00  0.00    +0.048 A 
ATOM      4  C   UNL     1      -4.840  -4.794  -5.471  0.00  0.00    +0.026 A 
ATOM      5  C   UNL     1      -4.586  -3.814  -6.379  0.00  0.00    +0.002 A 
ATOM      6  C   UNL     1      -3.311  -3.601  -6.898  0.00  0.00    +0.001 A 
ATOM      7  C   UNL     1      -2.256  -4.387  -6.538  0.00  0.00    +0.013 A 
ATOM      8  C   UNL     1      -2.459  -5.434  -5.636  0.00  0.00    +0.035 A 
ATOM      9  C   UNL     1      -1.461  -6.364  -5.293  0.00  0.00    +0.113 C 
ATOM     10  N   UNL     1      -1.732  -7.354  -4.384  0.00  0.00    -0.220 N 
ATOM     11  N   UNL     1      -0.776  -8.322  -4.479  0.00  0.00    -0.212 NA
ATOM     12  C   UNL     1       0.389  -7.659  -5.109  0.00  0.00    +0.188 C 
ATOM     13  N   UNL     1      -0.180  -6.442  -5.715  0.00  0.00    -0.311 N 
ATOM     14  H   UNL     1      -1.099  -9.095  -5.041  0.00  0.00    +0.147 HD
ATOM     15  H   UNL     1       0.276  -5.819  -6.302  0.00  0.00    +0.149 HD
ATOM     16  H   UNL     1      -4.877  -6.677  -3.765  0.00  0.00    +0.162 HD
ENDROOT
BRANCH  12  17
ATOM     17  C   UNL     1       1.420  -7.302  -4.070  0.00  0.00    -0.009 A 
ATOM     18  C   UNL     1       1.554  -8.079  -2.934  0.00  0.00    +0.007 A 
ATOM     19  C   UNL     1       2.499  -7.753  -1.980  0.00  0.00    +0.003 A 
ATOM     20  C   UNL     1       3.312  -6.649  -2.163  0.00  0.00    +0.033 A 
ATOM     21  C   UNL     1       3.180  -5.873  -3.299  0.00  0.00    +0.127 A 
ATOM     22  C   UNL     1       2.236  -6.203  -4.255  0.00  0.00    +0.039 A 
BRANCH  21  23
ATOM     23  N   UNL     1       4.050  -4.692  -3.494  0.00  0.00    +0.056 N 
ATOM     24  O   UNL     1       4.877  -4.406  -2.659  0.00  0.00    -0.126 OA
ATOM     25  O   UNL     1       3.934  -4.013  -4.488  0.00  0.00    -0.126 OA
ENDBRANCH  21  23
ENDBRANCH  12  17
BRANCH   1  26
ATOM     26  S   UNL     1      -2.407  -6.573  -1.910  0.00  0.00    -0.107 S 
BRANCH  26  27
ATOM     27  C   UNL     1      -1.851  -4.906  -2.361  0.00  0.00    +0.168 C 
BRANCH  27  29
ATOM     28  N   UNL     1      -0.957  -2.905  -1.213  0.00  0.00    -0.288 N 
ATOM     29  C   UNL     1      -1.413  -4.170  -1.120  0.00  0.00    +0.225 C 
ATOM     30  O   UNL     1      -1.470  -4.717  -0.039  0.00  0.00    -0.275 OA
ATOM     31  H   UNL     1      -0.911  -2.468  -2.078  0.00  0.00    +0.151 HD
BRANCH  28  35
ATOM     32  C   UNL     1      -0.018   1.503   0.010  0.00  0.00    +0.067 C 
ATOM     33  C   UNL     1       0.002  -0.004   0.002  0.00  0.00    +0.060 C 
ATOM     34  C   UNL     1      -1.086  -0.777   0.003  0.00  0.00    +0.045 C 
ATOM     35  C   UNL     1      -0.531  -2.190  -0.007  0.00  0.00    +0.239 C 
ATOM     36  N   UNL     1       0.926  -1.973  -0.013  0.00  0.00    -0.160 NA
ATOM     37  N   UNL     1       1.125  -0.756  -0.013  0.00  0.00    -0.157 NA
ENDBRANCH  28  35
ENDBRANCH  27  29
ENDBRANCH  26  27
ENDBRANCH   1  26
TORSDOF 6
