REMARK  Name = ZINC03275161
REMARK  11 active torsions:
REMARK  status: ('A' for Active; 'I' for Inactive)
REMARK    1  A    between atoms: C_1  and  C_2
REMARK    2  A    between atoms: C_2  and  O_3
REMARK    3  A    between atoms: O_3  and  C_4
REMARK    4  A    between atoms: C_4  and  C_6
REMARK    5  A    between atoms: C_10  and  N_11
REMARK    6  A    between atoms: C_12  and  C_14
REMARK    7  A    between atoms: C_14  and  O_15
REMARK    8  A    between atoms: O_15  and  C_16
REMARK    9  A    between atoms: C_16  and  C_18
REMARK   10  A    between atoms: C_23  and  O_24
REMARK   11  A    between atoms: C_27  and  C_31
REMARK                            x       y       z     vdW  Elec       q    Type
REMARK                         _______ _______ _______ _____ _____    ______ ____
ROOT
ATOM      1  N   UNL     1      -0.011   0.966   0.007  0.00  0.00    -0.277 N 
ATOM      2  C   UNL     1       1.147   1.655   0.000  0.00  0.00    +0.255 C 
ATOM      3  O   UNL     1       1.130   2.868   0.007  0.00  0.00    -0.272 OA
ATOM      4  H   UNL     1       0.002  -0.004   0.002  0.00  0.00    +0.155 HD
ENDROOT
BRANCH   1   9
ATOM      5  C   UNL     1      -2.505   1.114   0.020  0.00  0.00    +0.091 A 
ATOM      6  C   UNL     1      -3.616   2.051   0.030  0.00  0.00    -0.021 A 
ATOM      7  C   UNL     1      -3.268   3.356   0.035  0.00  0.00    -0.004 A 
ATOM      8  S   UNL     1      -1.498   3.353   0.035  0.00  0.00    -0.077 S 
ATOM      9  C   UNL     1      -1.221   1.643   0.017  0.00  0.00    +0.086 A 
ATOM     10  C   UNL     1      -4.189   4.537   0.045  0.00  0.00    +0.046 C 
ATOM     11  C   UNL     1      -5.598   4.054  -0.330  0.00  0.00    -0.009 C 
ATOM     12  C   UNL     1      -5.931   2.812   0.502  0.00  0.00    +0.008 C 
ATOM     13  C   UNL     1      -5.080   1.629   0.036  0.00  0.00    +0.037 C 
ATOM     14  C   UNL     1      -6.614   5.159  -0.036  0.00  0.00    +0.008 C 
BRANCH   5  15
ATOM     15  C   UNL     1      -2.731  -0.333   0.014  0.00  0.00    +0.342 C 
ATOM     16  O   UNL     1      -2.820  -0.939   1.065  0.00  0.00    -0.245 OA
BRANCH  15  17
ATOM     17  O   UNL     1      -2.841  -0.993  -1.157  0.00  0.00    -0.461 OA
BRANCH  17  19
ATOM     18  C   UNL     1      -3.163  -2.996  -2.504  0.00  0.00    +0.048 C 
ATOM     19  C   UNL     1      -3.065  -2.426  -1.087  0.00  0.00    +0.229 C 
ENDBRANCH  17  19
ENDBRANCH  15  17
ENDBRANCH   5  15
ENDBRANCH   1   9
BRANCH   2  20
ATOM     20  C   UNL     1       2.462   0.920  -0.017  0.00  0.00    +0.328 C 
BRANCH  20  21
ATOM     21  O   UNL     1       3.553   1.878  -0.022  0.00  0.00    -0.452 OA
BRANCH  21  22
ATOM     22  C   UNL     1       4.805   1.380  -0.036  0.00  0.00    +0.343 C 
ATOM     23  O   UNL     1       4.980   0.178  -0.044  0.00  0.00    -0.245 OA
BRANCH  22  24
ATOM     24  C   UNL     1       5.961   2.294  -0.043  0.00  0.00    +0.101 A 
ATOM     25  C   UNL     1       5.764   3.678  -0.039  0.00  0.00    +0.034 A 
ATOM     26  C   UNL     1       6.850   4.527  -0.041  0.00  0.00    +0.019 A 
ATOM     27  C   UNL     1       8.138   4.014  -0.056  0.00  0.00    +0.019 A 
ATOM     28  C   UNL     1       8.347   2.649  -0.064  0.00  0.00    +0.047 A 
ATOM     29  C   UNL     1       7.266   1.780  -0.058  0.00  0.00    +0.131 A 
ATOM     30 BR   UNL     1       6.582   6.398  -0.030  0.00  0.00    -0.050 Br
BRANCH  29  31
ATOM     31  O   UNL     1       7.469   0.439  -0.066  0.00  0.00    -0.506 OA
ATOM     32  H   UNL     1       7.520   0.054  -0.952  0.00  0.00    +0.292 HD
ENDBRANCH  29  31
ENDBRANCH  22  24
ENDBRANCH  21  22
ENDBRANCH  20  21
ENDBRANCH   2  20
TORSDOF 9
