REMARK  Name = ZINC39162272
REMARK  5 active torsions:
REMARK  status: ('A' for Active; 'I' for Inactive)
REMARK    1  A    between atoms: C_7  and  N_29
REMARK    2  A    between atoms: C_9  and  N_14
REMARK    3  A    between atoms: N_14  and  S_15
REMARK    4  A    between atoms: S_15  and  C_18
REMARK    5  A    between atoms: N_29  and  C_30
REMARK                            x       y       z     vdW  Elec       q    Type
REMARK                         _______ _______ _______ _____ _____    ______ ____
ROOT
ATOM      1  C   UNL     1       0.403   1.391   0.132  0.00  0.00    +0.001 A 
ATOM      2  C   UNL     1       1.646   1.989   0.227  0.00  0.00    +0.004 A 
ATOM      3  C   UNL     1       2.782   1.208   0.276  0.00  0.00    +0.047 A 
ATOM      4  C   UNL     1       2.681  -0.179   0.228  0.00  0.00    +0.136 A 
ATOM      5  C   UNL     1       1.437  -0.775   0.125  0.00  0.00    +0.014 A 
ATOM      6  C   UNL     1       0.299   0.015   0.082  0.00  0.00    +0.009 A 
ATOM      7  C   UNL     1       1.276  -2.272   0.047  0.00  0.00    +0.117 C 
ATOM      8  C   UNL     1       2.531  -2.960   0.593  0.00  0.00    +0.206 C 
ATOM      9  C   UNL     1       3.734  -2.232   0.029  0.00  0.00    +0.333 C 
ATOM     10  O   UNL     1       4.572  -2.807  -0.625  0.00  0.00    -0.249 OA
ATOM     11  O   UNL     1       3.826  -0.913   0.290  0.00  0.00    -0.424 OA
ENDROOT
BRANCH   8  12
ATOM     12  N   UNL     1       2.543  -2.883   2.056  0.00  0.00    -0.174 NA
ATOM     13  H   UNL     1       2.189  -2.099   2.503  0.00  0.00    +0.149 HD
BRANCH  12  14
ATOM     14  S   UNL     1       3.161  -4.136   2.945  0.00  0.00    +0.059 S 
ATOM     15  O   UNL     1       3.057  -3.755   4.310  0.00  0.00    -0.153 OA
ATOM     16  O   UNL     1       2.569  -5.325   2.439  0.00  0.00    -0.153 OA
BRANCH  14  17
ATOM     17  C   UNL     1       4.882  -4.235   2.580  0.00  0.00    +0.109 A 
ATOM     18  C   UNL     1       5.319  -5.026   1.532  0.00  0.00    +0.031 A 
ATOM     19  C   UNL     1       6.667  -5.108   1.239  0.00  0.00    +0.031 A 
ATOM     20  C   UNL     1       7.582  -4.396   1.998  0.00  0.00    +0.087 A 
ATOM     21  C   UNL     1       7.142  -3.599   3.055  0.00  0.00    +0.159 A 
ATOM     22  C   UNL     1       5.788  -3.518   3.338  0.00  0.00    +0.077 A 
ATOM     23  O   UNL     1       8.239  -3.029   3.612  0.00  0.00    -0.408 OA
ATOM     24  C   UNL     1       9.333  -3.437   2.950  0.00  0.00    +0.419 A 
ATOM     25  O   UNL     1      10.474  -3.104   3.206  0.00  0.00    -0.223 OA
ATOM     26  N   UNL     1       8.970  -4.273   1.957  0.00  0.00    -0.288 N 
ATOM     27  H   UNL     1       9.567  -4.710   1.329  0.00  0.00    +0.172 HD
ENDBRANCH  14  17
ENDBRANCH  12  14
ENDBRANCH   8  12
BRANCH   7  28
ATOM     28  N   UNL     1       0.111  -2.680   0.845  0.00  0.00    -0.305 NA
ATOM     29  H   UNL     1       0.345  -2.733   1.825  0.00  0.00    +0.123 HD
BRANCH  28  30
ATOM     30  C   UNL     1      -0.436  -3.955   0.364  0.00  0.00    +0.054 C 
ATOM     31  C   UNL     1      -1.430  -3.689  -0.769  0.00  0.00    +0.019 C 
ATOM     32  C   UNL     1      -2.000  -5.018  -1.270  0.00  0.00    +0.002 C 
ATOM     33  C   UNL     1      -2.715  -5.732  -0.121  0.00  0.00    +0.000 C 
ATOM     34  C   UNL     1      -1.721  -5.998   1.012  0.00  0.00    +0.002 C 
ATOM     35  C   UNL     1      -1.151  -4.669   1.513  0.00  0.00    +0.019 C 
ENDBRANCH  28  30
ENDBRANCH   7  28
TORSDOF 5
