REMARK  Name = ZINC19663752
REMARK  6 active torsions:
REMARK  status: ('A' for Active; 'I' for Inactive)
REMARK    1  A    between atoms: C_6  and  O_7
REMARK    2  A    between atoms: O_7  and  C_8
REMARK    3  A    between atoms: C_8  and  C_9
REMARK    4  A    between atoms: C_15  and  C_17
REMARK    5  A    between atoms: N_22  and  C_24
REMARK    6  A    between atoms: C_24  and  C_25
REMARK                            x       y       z     vdW  Elec       q    Type
REMARK                         _______ _______ _______ _____ _____    ______ ____
ROOT
ATOM      1  C   UNL     1       0.020   2.727  -0.275  0.00  0.00    +0.030 C 
ATOM      2  C   UNL     1      -0.796   3.166   0.943  0.00  0.00    +0.026 C 
ATOM      3  C   UNL     1      -1.873   2.116   1.236  0.00  0.00    +0.108 C 
ATOM      4  N   UNL     1      -2.670   1.905   0.021  0.00  0.00    -0.301 N 
ATOM      5  C   UNL     1      -1.976   1.567  -1.230  0.00  0.00    +0.108 C 
ATOM      6  C   UNL     1      -0.898   2.623  -1.495  0.00  0.00    +0.026 C 
ATOM      7  C   UNL     1      -4.013   2.018   0.052  0.00  0.00    +0.217 C 
ATOM      8  O   UNL     1      -4.654   1.919  -0.973  0.00  0.00    -0.275 OA
ENDROOT
BRANCH   7   9
ATOM      9  C   UNL     1      -4.718   2.267   1.360  0.00  0.00    +0.059 C 
ATOM     10  C   UNL     1      -4.897   0.941   2.105  0.00  0.00    +0.009 C 
ATOM     11  C   UNL     1      -5.667   1.194   3.404  0.00  0.00    -0.018 C 
ATOM     12  C   UNL     1      -7.013   1.843   3.075  0.00  0.00    -0.078 C 
ATOM     13  N   UNL     1      -6.788   3.108   2.364  0.00  0.00    +0.386 N 
ATOM     14  C   UNL     1      -6.092   2.885   1.090  0.00  0.00    -0.065 C 
ATOM     15  H   UNL     1      -6.141   3.736   2.994  0.00  0.00    -0.081 HD
BRANCH  13  16
ATOM     16  C   UNL     1      -8.052   3.827   2.154  0.00  0.00    +0.018 C 
BRANCH  16  17
ATOM     17  C   UNL     1      -8.928   3.038   1.215  0.00  0.00    +0.194 C 
ATOM     18  O   UNL     1      -8.537   1.982   0.764  0.00  0.00    -0.278 OA
ATOM     19  N   UNL     1     -10.145   3.507   0.875  0.00  0.00    -0.331 N 
ATOM     20  H   UNL     1     -10.784   2.932   0.189  0.00  0.00    +0.145 HD
ATOM     21  H   UNL     1     -10.499   4.465   1.283  0.00  0.00    +0.145 HD
ENDBRANCH  16  17
ENDBRANCH  13  16
ENDBRANCH   7   9
BRANCH   1  22
ATOM     22  C   UNL     1       1.118   3.756  -0.550  0.00  0.00    +0.232 C 
BRANCH  22  23
ATOM     23  O   UNL     1       2.042   3.769   0.540  0.00  0.00    -0.492 OA
BRANCH  23  29
ATOM     24  C   UNL     1       3.222   5.450  -0.661  0.00  0.00    +0.047 A 
ATOM     25  C   UNL     1       4.282   6.332  -0.746  0.00  0.00    +0.023 A 
ATOM     26  C   UNL     1       5.213   6.396   0.276  0.00  0.00    +0.041 A 
ATOM     27  C   UNL     1       5.082   5.580   1.385  0.00  0.00    +0.023 A 
ATOM     28  C   UNL     1       4.021   4.700   1.476  0.00  0.00    +0.047 A 
ATOM     29  C   UNL     1       3.087   4.635   0.453  0.00  0.00    +0.121 A 
ATOM     30 CL   UNL     1       6.547   7.501   0.165  0.00  0.00    -0.084 Cl
ENDBRANCH  23  29
ENDBRANCH  22  23
ENDBRANCH   1  22
TORSDOF 6
