REMARK  Name = ZINC12242611
REMARK  4 active torsions:
REMARK  status: ('A' for Active; 'I' for Inactive)
REMARK    1  A    between atoms: C_9  and  C_12
REMARK    2  A    between atoms: C_19  and  C_20
REMARK    3  A    between atoms: C_19  and  N_62
REMARK    4  A    between atoms: C_26  and  C_28
REMARK                            x       y       z     vdW  Elec       q    Type
REMARK                         _______ _______ _______ _____ _____    ______ ____
ROOT
ATOM      1  C   UNL     1       5.449   5.675  -2.330  0.00  0.00    +0.019 C 
ENDROOT
BRANCH   1  12
ATOM      2  C   UNL     1       3.331   3.239  -7.078  0.00  0.00    +0.000 A 
ATOM      3  C   UNL     1       3.157   4.243  -8.014  0.00  0.00    +0.004 A 
ATOM      4  C   UNL     1       3.769   5.469  -7.839  0.00  0.00    +0.046 A 
ATOM      5  C   UNL     1       4.561   5.689  -6.721  0.00  0.00    +0.123 A 
ATOM      6  C   UNL     1       4.747   4.677  -5.800  0.00  0.00    -0.022 A 
ATOM      7  C   UNL     1       4.128   3.455  -5.968  0.00  0.00    +0.005 A 
ATOM      8  C   UNL     1       5.664   4.909  -4.615  0.00  0.00    -0.038 C 
ATOM      9  C   UNL     1       5.317   7.271  -4.136  0.00  0.00    -0.027 C 
ATOM     10  C   UNL     1       4.634   7.664  -5.429  0.00  0.00    +0.190 C 
ATOM     11  O   UNL     1       5.149   6.901  -6.527  0.00  0.00    -0.486 OA
ATOM     12  N   UNL     1       5.006   5.888  -3.717  0.00  0.00    +0.391 N 
ATOM     13  H   UNL     1       3.990   5.750  -3.766  0.00  0.00    -0.080 HD
BRANCH  10  14
ATOM     14  C   UNL     1       4.869   9.129  -5.689  0.00  0.00    +0.026 A 
ATOM     15  C   UNL     1       5.917   9.529  -6.497  0.00  0.00    +0.010 A 
ATOM     16  C   UNL     1       6.130  10.873  -6.740  0.00  0.00    +0.001 A 
ATOM     17  C   UNL     1       5.301  11.820  -6.166  0.00  0.00    +0.003 A 
ATOM     18  C   UNL     1       4.256  11.423  -5.354  0.00  0.00    +0.039 A 
ATOM     19  C   UNL     1       4.039  10.076  -5.114  0.00  0.00    +0.130 A 
ATOM     20  F   UNL     1       3.018   9.687  -4.319  0.00  0.00    -0.205 F 
ENDBRANCH  10  14
ENDBRANCH   1  12
BRANCH   1  21
ATOM     21  C   UNL     1       4.935   4.337  -1.864  0.00  0.00    +0.200 C 
ATOM     22  O   UNL     1       4.295   3.637  -2.620  0.00  0.00    -0.278 OA
ATOM     23  N   UNL     1       5.187   3.918  -0.608  0.00  0.00    -0.293 N 
ATOM     24  C   UNL     1       5.947   4.665   0.410  0.00  0.00    +0.108 C 
ATOM     25  C   UNL     1       6.477   3.582   1.383  0.00  0.00    +0.021 C 
ATOM     26  C   UNL     1       5.287   2.587   1.419  0.00  0.00    +0.032 C 
ATOM     27  C   UNL     1       4.747   2.642  -0.026  0.00  0.00    +0.142 C 
BRANCH  27  28
ATOM     28  C   UNL     1       3.242   2.575  -0.014  0.00  0.00    +0.129 A 
ATOM     29  N   UNL     1       2.513   1.427  -0.013  0.00  0.00    -0.340 N 
ATOM     30  H   UNL     1       2.875   0.495  -0.021  0.00  0.00    +0.167 HD
ATOM     31  C   UNL     1       1.179   1.788   0.000  0.00  0.00    +0.066 A 
ATOM     32  C   UNL     1      -0.013   1.076   0.008  0.00  0.00    +0.030 A 
ATOM     33  C   UNL     1      -1.214   1.750   0.017  0.00  0.00    +0.040 A 
ATOM     34  C   UNL     1      -1.242   3.140   0.030  0.00  0.00    +0.126 A 
ATOM     35  C   UNL     1      -0.069   3.862   0.022  0.00  0.00    +0.068 A 
ATOM     36  C   UNL     1       1.158   3.192   0.008  0.00  0.00    +0.092 A 
ATOM     37  N   UNL     1       2.450   3.608  -0.002  0.00  0.00    -0.230 NA
ATOM     38  F   UNL     1      -2.428   3.787   0.045  0.00  0.00    -0.205 F 
ENDBRANCH  27  28
ENDBRANCH   1  21
TORSDOF 4
