REMARK  Name = ZINC44516438
REMARK  9 active torsions:
REMARK  status: ('A' for Active; 'I' for Inactive)
REMARK    1  A    between atoms: C_1  and  C_2
REMARK    2  A    between atoms: C_2  and  C_3
REMARK    3  A    between atoms: C_3  and  O_4
REMARK    4  A    between atoms: O_4  and  C_5
REMARK    5  A    between atoms: C_10  and  C_11
REMARK    6  A    between atoms: C_11  and  N_12
REMARK    7  A    between atoms: N_12  and  C_13
REMARK    8  A    between atoms: C_13  and  C_14
REMARK    9  A    between atoms: N_17  and  C_20
REMARK                            x       y       z     vdW  Elec       q    Type
REMARK                         _______ _______ _______ _____ _____    ______ ____
ROOT
ATOM      1  C   UNL     1      -1.397  -4.787  -0.011  0.00  0.00    -0.043 C 
ENDROOT
BRANCH   1   7
ATOM      2  C   UNL     1      -2.616  -2.596   0.013  0.00  0.00    +0.122 A 
ATOM      3  C   UNL     1      -3.791  -1.857   0.022  0.00  0.00    +0.047 A 
ATOM      4  C   UNL     1      -5.012  -2.503   0.031  0.00  0.00    +0.019 A 
ATOM      5  C   UNL     1      -5.064  -3.885   0.030  0.00  0.00    +0.018 A 
ATOM      6  C   UNL     1      -3.895  -4.624   0.021  0.00  0.00    +0.020 A 
ATOM      7  C   UNL     1      -2.671  -3.982   0.006  0.00  0.00    -0.022 A 
ATOM      8 BR   UNL     1      -6.737  -4.767   0.041  0.00  0.00    -0.050 Br
BRANCH   2   9
ATOM      9  O   UNL     1      -1.414  -1.962   0.005  0.00  0.00    -0.492 OA
BRANCH   9  10
ATOM     10  C   UNL     1      -1.433  -0.534   0.013  0.00  0.00    +0.229 C 
BRANCH  10  12
ATOM     11  C   UNL     1      -0.019   1.526   0.010  0.00  0.00    +0.007 C 
ATOM     12  C   UNL     1       0.002  -0.004   0.002  0.00  0.00    +0.038 C 
ENDBRANCH  10  12
ENDBRANCH   9  10
ENDBRANCH   2   9
ENDBRANCH   1   7
BRANCH   1  13
ATOM     13  N   UNL     1      -0.841  -4.853   1.347  0.00  0.00    +0.382 N 
ATOM     14  H   UNL     1      -0.645  -3.919   1.676  0.00  0.00    -0.085 HD
ATOM     15  H   UNL     1      -1.509  -5.292   1.963  0.00  0.00    -0.085 HD
BRANCH  13  16
ATOM     16  C   UNL     1       0.400  -5.637   1.331  0.00  0.00    -0.079 C 
BRANCH  16  17
ATOM     17  C   UNL     1       0.979  -5.706   2.745  0.00  0.00    -0.032 C 
ATOM     18  C   UNL     1       1.403  -4.304   3.193  0.00  0.00    -0.017 C 
ATOM     19  C   UNL     1       2.054  -4.391   4.576  0.00  0.00    -0.079 C 
ATOM     20  N   UNL     1       3.233  -5.263   4.511  0.00  0.00    +0.378 N 
ATOM     21  C   UNL     1       2.825  -6.626   4.152  0.00  0.00    -0.079 C 
ATOM     22  C   UNL     1       2.204  -6.625   2.753  0.00  0.00    -0.017 C 
ATOM     23  C   UNL     1       3.898  -5.282   5.821  0.00  0.00    -0.096 C 
ATOM     24  H   UNL     1       3.873  -4.910   3.816  0.00  0.00    -0.082 HD
ENDBRANCH  16  17
ENDBRANCH  13  16
ENDBRANCH   1  13
TORSDOF 7
