REMARK  Name = ZINC46747794
REMARK  6 active torsions:
REMARK  status: ('A' for Active; 'I' for Inactive)
REMARK    1  A    between atoms: C_1  and  C_2
REMARK    2  A    between atoms: C_3  and  C_10
REMARK    3  A    between atoms: C_5  and  C_7
REMARK    4  A    between atoms: C_7  and  C_8
REMARK    5  A    between atoms: C_7  and  C_9
REMARK    6  A    between atoms: C_16  and  C_19
REMARK                            x       y       z     vdW  Elec       q    Type
REMARK                         _______ _______ _______ _____ _____    ______ ____
ROOT
ATOM      1  C   UNL     1      -0.008  -0.248  -2.562  0.00  0.00    +0.255 C 
ATOM      2  O   UNL     1      -0.131   0.940  -2.798  0.00  0.00    -0.269 OA
ATOM      3  N   UNL     1       0.101  -1.129  -3.576  0.00  0.00    -0.296 N 
ATOM      4  C   UNL     1       0.118  -2.574  -3.313  0.00  0.00    +0.108 C 
ATOM      5  C   UNL     1      -0.965  -3.243  -4.166  0.00  0.00    +0.020 C 
ATOM      6  C   UNL     1      -0.755  -2.869  -5.635  0.00  0.00    +0.016 C 
ATOM      7  C   UNL     1      -0.879  -1.352  -5.800  0.00  0.00    +0.092 C 
ATOM      8  C   UNL     1       0.199  -0.662  -4.966  0.00  0.00    +0.121 C 
ENDROOT
BRANCH   7   9
ATOM      9  C   UNL     1      -0.705  -0.988  -7.252  0.00  0.00    +0.201 A 
ATOM     10  N   UNL     1       0.356  -1.239  -7.958  0.00  0.00    -0.213 NA
ATOM     11  C   UNL     1       0.162  -0.771  -9.221  0.00  0.00    +0.110 A 
ATOM     12  C   UNL     1       0.943  -0.763 -10.379  0.00  0.00    +0.031 A 
ATOM     13  C   UNL     1       0.448  -0.197 -11.532  0.00  0.00    +0.002 A 
ATOM     14  C   UNL     1      -0.820   0.366 -11.550  0.00  0.00    +0.004 A 
ATOM     15  C   UNL     1      -1.602   0.365 -10.413  0.00  0.00    +0.048 A 
ATOM     16  C   UNL     1      -1.120  -0.202  -9.244  0.00  0.00    +0.155 A 
ATOM     17  O   UNL     1      -1.626  -0.362  -8.001  0.00  0.00    -0.439 OA
ENDBRANCH   7   9
BRANCH   1  20
ATOM     18  C   UNL     1      -1.552   0.957  -0.144  0.00  0.00    +0.067 C 
ATOM     19  C   UNL     1      -0.633  -0.235  -0.064  0.00  0.00    +0.058 A 
ATOM     20  C   UNL     1       0.023  -0.720  -1.173  0.00  0.00    +0.097 A 
ATOM     21  S   UNL     1       0.920  -2.085  -0.451  0.00  0.00    -0.067 S 
ATOM     22  C   UNL     1       0.385  -1.901   1.134  0.00  0.00    +0.082 A 
ATOM     23  N   UNL     1      -0.412  -0.859   1.067  0.00  0.00    -0.248 NA
BRANCH  22  24
ATOM     24  C   UNL     1       0.740  -2.729   2.341  0.00  0.00    +0.039 C 
ATOM     25  C   UNL     1       1.397  -1.837   3.397  0.00  0.00    +0.014 C 
ATOM     26  C   UNL     1      -0.530  -3.355   2.922  0.00  0.00    +0.014 C 
ENDBRANCH  22  24
ENDBRANCH   1  20
TORSDOF 3
