REMARK  Name = ZINC09283157
REMARK  9 active torsions:
REMARK  status: ('A' for Active; 'I' for Inactive)
REMARK    1  A    between atoms: C_1  and  O_2
REMARK    2  A    between atoms: O_2  and  C_3
REMARK    3  A    between atoms: C_6  and  C_9
REMARK    4  A    between atoms: C_12  and  S_21
REMARK    5  A    between atoms: N_13  and  C_14
REMARK    6  A    between atoms: S_21  and  C_22
REMARK    7  A    between atoms: C_22  and  C_23
REMARK    8  A    between atoms: N_25  and  C_26
REMARK    9  A    between atoms: C_27  and  C_31
REMARK                            x       y       z     vdW  Elec       q    Type
REMARK                         _______ _______ _______ _____ _____    ______ ____
ROOT
ATOM      1  C   UNL     1      -6.086   2.686   0.045  0.00  0.00    +0.169 A 
ATOM      2  N   UNL     1      -5.199   3.655   0.046  0.00  0.00    -0.128 NA
ATOM      3  N   UNL     1      -4.012   3.164   0.038  0.00  0.00    -0.122 NA
ATOM      4  C   UNL     1      -4.064   1.851   0.031  0.00  0.00    +0.197 A 
ATOM      5  N   UNL     1      -5.387   1.499   0.030  0.00  0.00    -0.267 N 
ENDROOT
BRANCH   5   6
ATOM      6  C   UNL     1      -5.919   0.201   0.019  0.00  0.00    +0.086 A 
ATOM      7  C   UNL     1      -6.182  -0.453   1.215  0.00  0.00    +0.029 A 
ATOM      8  C   UNL     1      -6.706  -1.731   1.202  0.00  0.00    +0.002 A 
ATOM      9  C   UNL     1      -6.970  -2.360  -0.001  0.00  0.00    +0.003 A 
ATOM     10  C   UNL     1      -6.710  -1.712  -1.195  0.00  0.00    +0.040 A 
ATOM     11  C   UNL     1      -6.190  -0.431  -1.189  0.00  0.00    +0.147 A 
ATOM     12  F   UNL     1      -5.941   0.204  -2.355  0.00  0.00    -0.203 F 
ENDBRANCH   5   6
BRANCH   1  16
ATOM     13  C   UNL     1     -10.311   3.129   0.065  0.00  0.00    +0.120 A 
ATOM     14  C   UNL     1      -9.503   4.215  -0.244  0.00  0.00    +0.046 A 
ATOM     15  C   UNL     1      -8.131   4.075  -0.252  0.00  0.00    +0.015 A 
ATOM     16  C   UNL     1      -7.556   2.840   0.052  0.00  0.00    +0.020 A 
ATOM     17  C   UNL     1      -8.372   1.749   0.357  0.00  0.00    +0.015 A 
ATOM     18  C   UNL     1      -9.743   1.899   0.367  0.00  0.00    +0.046 A 
BRANCH  13  20
ATOM     19  C   UNL     1     -12.435   2.113   0.398  0.00  0.00    +0.277 C 
ATOM     20  O   UNL     1     -11.663   3.271   0.071  0.00  0.00    -0.495 OA
ENDBRANCH  13  20
ENDBRANCH   1  16
BRANCH   4  21
ATOM     21  S   UNL     1      -2.689   0.750   0.019  0.00  0.00    -0.076 S 
BRANCH  21  22
ATOM     22  C   UNL     1      -1.330   1.944   0.019  0.00  0.00    +0.173 C 
BRANCH  22  23
ATOM     23  C   UNL     1      -0.014   1.209   0.009  0.00  0.00    +0.228 C 
ATOM     24  O   UNL     1       0.002  -0.004   0.002  0.00  0.00    -0.275 OA
ATOM     25  N   UNL     1       1.143   1.898   0.001  0.00  0.00    -0.279 N 
ATOM     26  H   UNL     1       1.130   2.868   0.007  0.00  0.00    +0.155 HD
BRANCH  25  27
ATOM     27  C   UNL     1       2.354   1.221  -0.014  0.00  0.00    +0.084 A 
ATOM     28  C   UNL     1       3.639   1.750  -0.029  0.00  0.00    +0.065 A 
ATOM     29  C   UNL     1       4.730   0.805  -0.039  0.00  0.00    +0.022 A 
ATOM     30  C   UNL     1       4.410  -0.501  -0.044  0.00  0.00    +0.048 A 
ATOM     31  S   UNL     1       2.630  -0.488  -0.026  0.00  0.00    -0.081 S 
BRANCH  28  32
ATOM     32  C   UNL     1       3.875   3.198  -0.031  0.00  0.00    +0.244 C 
ATOM     33  O   UNL     1       2.932   3.968  -0.019  0.00  0.00    -0.270 OA
ATOM     34  N   UNL     1       5.135   3.675  -0.045  0.00  0.00    -0.325 N 
ATOM     35  H   UNL     1       5.886   3.061  -0.055  0.00  0.00    +0.145 HD
ATOM     36  H   UNL     1       5.291   4.632  -0.047  0.00  0.00    +0.145 HD
ENDBRANCH  28  32
ENDBRANCH  25  27
ENDBRANCH  22  23
ENDBRANCH  21  22
ENDBRANCH   4  21
TORSDOF 8
