REMARK  Name = ZINC38976623
REMARK  6 active torsions:
REMARK  status: ('A' for Active; 'I' for Inactive)
REMARK    1  A    between atoms: C_1  and  O_2
REMARK    2  A    between atoms: O_2  and  C_3
REMARK    3  A    between atoms: C_6  and  S_9
REMARK    4  A    between atoms: S_9  and  N_12
REMARK    5  A    between atoms: C_14  and  N_24
REMARK    6  A    between atoms: N_24  and  C_25
REMARK                            x       y       z     vdW  Elec       q    Type
REMARK                         _______ _______ _______ _____ _____    ______ ____
ROOT
ATOM      1  N   UNL     1       1.307  -3.091   5.298  0.00  0.00    -0.110 NA
ATOM      2  C   UNL     1       1.768  -3.458   6.457  0.00  0.00    +0.192 C 
ATOM      3  C   UNL     1       0.841  -3.585   7.645  0.00  0.00    +0.237 C 
ATOM      4  N   UNL     1       1.423  -4.005   8.929  0.00  0.00    -0.359 N 
ATOM      5  C   UNL     1       2.704  -4.246   8.982  0.00  0.00    +0.063 A 
ATOM      6  C   UNL     1       3.335  -4.669  10.241  0.00  0.00    +0.027 A 
ATOM      7  C   UNL     1       4.664  -4.910  10.257  0.00  0.00    +0.002 A 
ATOM      8  C   UNL     1       5.454  -4.768   9.104  0.00  0.00    +0.002 A 
ATOM      9  C   UNL     1       4.946  -4.384   7.913  0.00  0.00    +0.030 A 
ATOM     10  C   UNL     1       3.562  -4.104   7.780  0.00  0.00    +0.089 A 
ATOM     11  N   UNL     1       3.072  -3.735   6.616  0.00  0.00    -0.226 NA
ATOM     12  H   UNL     1       0.868  -4.100   9.718  0.00  0.00    +0.162 HD
ENDROOT
BRANCH   1  13
ATOM     13  S   UNL     1       2.332  -2.962   4.003  0.00  0.00    +0.100 S 
ATOM     14  O   UNL     1       2.788  -4.277   3.713  0.00  0.00    -0.146 OA
ATOM     15  O   UNL     1       3.223  -1.894   4.295  0.00  0.00    -0.146 OA
BRANCH  13  19
ATOM     16  C   UNL     1      -0.152  -1.643   0.454  0.00  0.00    +0.120 A 
ATOM     17  C   UNL     1       0.439  -0.697   1.279  0.00  0.00    +0.047 A 
ATOM     18  C   UNL     1       1.196  -1.102   2.361  0.00  0.00    +0.032 A 
ATOM     19  C   UNL     1       1.365  -2.449   2.622  0.00  0.00    +0.113 A 
ATOM     20  C   UNL     1       0.778  -3.394   1.802  0.00  0.00    +0.032 A 
ATOM     21  C   UNL     1       0.015  -2.994   0.722  0.00  0.00    +0.047 A 
BRANCH  16  23
ATOM     22  C   UNL     1      -1.026   0.160  -0.826  0.00  0.00    +0.277 C 
ATOM     23  O   UNL     1      -0.898  -1.247  -0.611  0.00  0.00    -0.495 OA
ENDBRANCH  16  23
ENDBRANCH  13  19
ENDBRANCH   1  13
BRANCH   3  24
ATOM     24  N   UNL     1      -0.207  -4.547   7.294  0.00  0.00    -0.318 N 
ATOM     25  H   UNL     1       0.025  -5.372   6.839  0.00  0.00    +0.148 HD
BRANCH  24  26
ATOM     26  C   UNL     1      -1.540  -4.277   7.615  0.00  0.00    +0.030 A 
ATOM     27  C   UNL     1      -2.550  -5.112   7.153  0.00  0.00    +0.026 A 
ATOM     28  C   UNL     1      -3.867  -4.844   7.471  0.00  0.00    +0.041 A 
ATOM     29  C   UNL     1      -4.182  -3.743   8.249  0.00  0.00    +0.142 A 
ATOM     30  C   UNL     1      -3.177  -2.908   8.711  0.00  0.00    +0.078 A 
ATOM     31  C   UNL     1      -1.857  -3.177   8.400  0.00  0.00    +0.045 A 
ATOM     32 CL   UNL     1      -3.576  -1.528   9.686  0.00  0.00    -0.081 Cl
ATOM     33  F   UNL     1      -5.471  -3.482   8.558  0.00  0.00    -0.204 F 
ENDBRANCH  24  26
ENDBRANCH   3  24
TORSDOF 5
