REMARK  Name = ZINC39330086
REMARK  6 active torsions:
REMARK  status: ('A' for Active; 'I' for Inactive)
REMARK    1  A    between atoms: C_4  and  C_7
REMARK    2  A    between atoms: C_17  and  S_19
REMARK    3  A    between atoms: S_19  and  C_20
REMARK    4  A    between atoms: C_22  and  C_27
REMARK    5  A    between atoms: C_27  and  S_28
REMARK    6  A    between atoms: S_28  and  C_29
REMARK                            x       y       z     vdW  Elec       q    Type
REMARK                         _______ _______ _______ _____ _____    ______ ____
ROOT
ATOM      1  C   UNL     1       3.531  -0.661   0.056  0.00  0.00    -0.009 C 
ATOM      2  C   UNL     1       4.674   0.134  -0.069  0.00  0.00    +0.001 A 
ATOM      3  C   UNL     1       4.577   1.541  -0.074  0.00  0.00    +0.010 A 
ATOM      4  C   UNL     1       5.706   2.290  -0.196  0.00  0.00    +0.001 A 
ATOM      5  C   UNL     1       6.960   1.696  -0.319  0.00  0.00    +0.002 A 
ATOM      6  C   UNL     1       7.117   0.343  -0.321  0.00  0.00    +0.024 A 
ATOM      7  C   UNL     1       5.994  -0.494  -0.198  0.00  0.00    +0.041 A 
ATOM      8  N   UNL     1       6.150  -1.822  -0.201  0.00  0.00    -0.284 N 
ATOM      9  C   UNL     1       5.149  -2.673  -0.090  0.00  0.00    +0.235 C 
ATOM     10  O   UNL     1       5.366  -3.871  -0.101  0.00  0.00    -0.274 OA
ATOM     11  C   UNL     1       3.733  -2.164   0.057  0.00  0.00    +0.171 C 
ATOM     12  H   UNL     1       7.048  -2.178  -0.289  0.00  0.00    +0.155 HD
ENDROOT
BRANCH   1  16
ATOM     13  C   UNL     1      -0.283   1.033   0.429  0.00  0.00    +0.000 A 
ATOM     14  C   UNL     1       0.442   1.220  -0.737  0.00  0.00    +0.001 A 
ATOM     15  C   UNL     1       1.696   0.667  -0.870  0.00  0.00    +0.008 A 
ATOM     16  C   UNL     1       2.241  -0.087   0.182  0.00  0.00    -0.020 A 
ATOM     17  C   UNL     1       1.498  -0.269   1.361  0.00  0.00    +0.008 A 
ATOM     18  C   UNL     1       0.246   0.291   1.473  0.00  0.00    +0.001 A 
ENDBRANCH   1  16
BRANCH  11  19
ATOM     19  S   UNL     1       2.755  -2.858  -1.304  0.00  0.00    -0.070 S 
BRANCH  19  20
ATOM     20  C   UNL     1       2.655  -4.576  -0.924  0.00  0.00    +0.170 A 
ATOM     21  N   UNL     1       3.144  -5.016   0.219  0.00  0.00    -0.227 NA
ATOM     22  C   UNL     1       3.089  -6.305   0.545  0.00  0.00    +0.059 A 
ATOM     23  C   UNL     1       2.518  -7.204  -0.310  0.00  0.00    +0.094 A 
ATOM     24  C   UNL     1       1.995  -6.743  -1.531  0.00  0.00    +0.252 A 
ATOM     25  N   UNL     1       2.070  -5.425  -1.813  0.00  0.00    -0.302 N 
ATOM     26  O   UNL     1       1.478  -7.519  -2.318  0.00  0.00    -0.268 OA
ATOM     27  H   UNL     1       1.712  -5.085  -2.648  0.00  0.00    +0.171 HD
BRANCH  22  28
ATOM     28  C   UNL     1       3.658  -6.774   1.859  0.00  0.00    +0.130 C 
BRANCH  28  29
ATOM     29  S   UNL     1       5.469  -6.792   1.762  0.00  0.00    -0.119 S 
BRANCH  29  30
ATOM     30  C   UNL     1       5.976  -7.354   3.353  0.00  0.00    +0.008 A 
ATOM     31  C   UNL     1       5.024  -7.665   4.317  0.00  0.00    +0.016 A 
ATOM     32  C   UNL     1       5.424  -8.106   5.563  0.00  0.00    +0.021 A 
ATOM     33  C   UNL     1       6.771  -8.238   5.853  0.00  0.00    +0.041 A 
ATOM     34  C   UNL     1       7.721  -7.928   4.895  0.00  0.00    +0.021 A 
ATOM     35  C   UNL     1       7.327  -7.493   3.645  0.00  0.00    +0.016 A 
ATOM     36 CL   UNL     1       7.271  -8.791   7.420  0.00  0.00    -0.084 Cl
ENDBRANCH  29  30
ENDBRANCH  28  29
ENDBRANCH  22  28
ENDBRANCH  19  20
ENDBRANCH  11  19
TORSDOF 6
