REMARK  Name = ZINC43225880
REMARK  9 active torsions:
REMARK  status: ('A' for Active; 'I' for Inactive)
REMARK    1  A    between atoms: C_1  and  C_2
REMARK    2  A    between atoms: C_3  and  C_37
REMARK    3  A    between atoms: C_5  and  C_26
REMARK    4  A    between atoms: N_6  and  C_7
REMARK    5  A    between atoms: C_7  and  C_9
REMARK    6  A    between atoms: C_7  and  C_17
REMARK    7  A    between atoms: C_9  and  C_10
REMARK    8  A    between atoms: C_13  and  O_16
REMARK    9  A    between atoms: N_22  and  C_25
REMARK                            x       y       z     vdW  Elec       q    Type
REMARK                         _______ _______ _______ _____ _____    ______ ____
ROOT
ATOM      1  C   UNL     1       0.333   1.597   0.395  0.00  0.00    +0.064 C 
ATOM      2  C   UNL     1       0.727   0.193   0.012  0.00  0.00    +0.029 A 
ATOM      3  C   UNL     1       1.030  -0.242  -1.260  0.00  0.00    +0.058 A 
ATOM      4  C   UNL     1       1.343  -1.623  -1.162  0.00  0.00    +0.041 A 
ATOM      5  C   UNL     1       1.218  -1.967   0.146  0.00  0.00    +0.051 A 
ATOM      6  N   UNL     1       0.848  -0.852   0.856  0.00  0.00    -0.331 N 
ENDROOT
BRANCH   5   7
ATOM      7  C   UNL     1       1.449  -3.314   0.711  0.00  0.00    +0.002 A 
ATOM      8  C   UNL     1       0.707  -3.747   1.810  0.00  0.00    +0.014 A 
ATOM      9  C   UNL     1       0.922  -5.005   2.338  0.00  0.00    +0.050 A 
ATOM     10  C   UNL     1       1.876  -5.837   1.774  0.00  0.00    +0.162 A 
ATOM     11  C   UNL     1       2.617  -5.413   0.678  0.00  0.00    +0.163 A 
ATOM     12  C   UNL     1       2.405  -4.157   0.140  0.00  0.00    +0.059 A 
ATOM     13  O   UNL     1       3.551  -6.245   0.133  0.00  0.00    -0.488 OA
ATOM     14  C   UNL     1       4.700  -6.510   0.940  0.00  0.00    +0.232 C 
ATOM     15  C   UNL     1       4.425  -7.643   1.916  0.00  0.00    +0.082 C 
ATOM     16  C   UNL     1       3.353  -7.282   2.933  0.00  0.00    +0.232 C 
ATOM     17  O   UNL     1       2.092  -7.082   2.291  0.00  0.00    -0.488 OA
ENDBRANCH   5   7
BRANCH   3  18
ATOM     18  C   UNL     1       1.031   0.572  -2.488  0.00  0.00    +0.243 C 
ATOM     19  O   UNL     1       0.743   1.752  -2.435  0.00  0.00    -0.270 OA
ATOM     20  N   UNL     1       1.351   0.008  -3.670  0.00  0.00    -0.325 N 
ATOM     21  H   UNL     1       1.581  -0.933  -3.712  0.00  0.00    +0.145 HD
ATOM     22  H   UNL     1       1.351   0.544  -4.478  0.00  0.00    +0.145 HD
ENDBRANCH   3  18
BRANCH   6  23
ATOM     23  C   UNL     1       0.617  -0.805   2.302  0.00  0.00    +0.177 C 
BRANCH  23  24
ATOM     24  C   UNL     1      -0.761  -0.260   2.573  0.00  0.00    +0.239 C 
ATOM     25  O   UNL     1      -0.922   0.586   3.427  0.00  0.00    -0.273 OA
ATOM     26  N   UNL     1      -1.816  -0.713   1.867  0.00  0.00    -0.297 N 
ATOM     27  C   UNL     1      -1.653  -1.778   0.865  0.00  0.00    +0.123 C 
ATOM     28  C   UNL     1      -2.688  -2.872   1.145  0.00  0.00    +0.103 C 
ATOM     29  N   UNL     1      -4.028  -2.272   1.200  0.00  0.00    -0.302 NA
ATOM     30  C   UNL     1      -4.137  -1.314   2.309  0.00  0.00    +0.103 C 
ATOM     31  C   UNL     1      -3.162  -0.160   2.081  0.00  0.00    +0.123 C 
ATOM     32  C   UNL     1      -5.066  -3.307   1.295  0.00  0.00    +0.105 C 
ENDBRANCH  23  24
BRANCH  23  33
ATOM     33  C   UNL     1       1.662   0.101   2.956  0.00  0.00    +0.069 C 
BRANCH  33  34
ATOM     34  C   UNL     1       1.538   0.010   4.455  0.00  0.00    -0.045 A 
ATOM     35  C   UNL     1       0.845   0.983   5.151  0.00  0.00    +0.007 A 
ATOM     36  C   UNL     1       0.730   0.902   6.525  0.00  0.00    +0.045 A 
ATOM     37  C   UNL     1       1.311  -0.158   7.207  0.00  0.00    +0.117 A 
ATOM     38  C   UNL     1       2.006  -1.133   6.506  0.00  0.00    +0.045 A 
ATOM     39  C   UNL     1       2.113  -1.050   5.132  0.00  0.00    +0.007 A 
BRANCH  37  40
ATOM     40  O   UNL     1       1.200  -0.240   8.559  0.00  0.00    -0.507 OA
ATOM     41  H   UNL     1       0.423  -0.730   8.861  0.00  0.00    +0.292 HD
ENDBRANCH  37  40
ENDBRANCH  33  34
ENDBRANCH  23  33
ENDBRANCH   6  23
TORSDOF 7
