REMARK  Name = ZINC16683014
REMARK  10 active torsions:
REMARK  status: ('A' for Active; 'I' for Inactive)
REMARK    1  A    between atoms: C_1  and  C_2
REMARK    2  A    between atoms: C_2  and  O_3
REMARK    3  A    between atoms: O_3  and  C_4
REMARK    4  A    between atoms: C_4  and  C_6
REMARK    5  A    between atoms: C_7  and  N_40
REMARK    6  A    between atoms: C_11  and  C_15
REMARK    7  A    between atoms: C_16  and  C_39
REMARK    8  A    between atoms: C_25  and  C_27
REMARK    9  A    between atoms: C_31  and  C_38
REMARK   10  A    between atoms: C_34  and  O_37
REMARK                            x       y       z     vdW  Elec       q    Type
REMARK                         _______ _______ _______ _____ _____    ______ ____
ROOT
ATOM      1  C   UNL     1      -3.346   3.292  -0.029  0.00  0.00    +0.119 A 
ATOM      2  C   UNL     1      -2.489   2.226  -0.258  0.00  0.00    +0.056 A 
ATOM      3  C   UNL     1      -1.083   2.423  -0.025  0.00  0.00    +0.033 A 
ATOM      4  C   UNL     1      -0.018   1.503   0.010  0.00  0.00    -0.027 A 
ATOM      5  C   UNL     1       1.297   2.008   0.001  0.00  0.00    -0.016 A 
ATOM      6  C   UNL     1       1.555   3.366   0.101  0.00  0.00    +0.043 A 
ATOM      7  N   UNL     1       0.539   4.225   0.202  0.00  0.00    -0.244 NA
ATOM      8  C   UNL     1      -0.698   3.791   0.156  0.00  0.00    +0.111 A 
ATOM      9  S   UNL     1      -2.236   4.643   0.323  0.00  0.00    -0.060 S 
ATOM     10  C   UNL     1       2.959   3.913   0.090  0.00  0.00    +0.066 C 
ATOM     11  C   UNL     1       2.212   0.835  -0.121  0.00  0.00    -0.001 C 
ATOM     12  C   UNL     1       3.593   0.896   0.459  0.00  0.00    +0.012 C 
ATOM     13  C   UNL     1       4.282  -0.464   0.499  0.00  0.00    +0.005 C 
ATOM     14  C   UNL     1       3.425  -1.654   0.902  0.00  0.00    +0.003 C 
ATOM     15  C   UNL     1       2.057  -1.619   0.203  0.00  0.00    +0.001 C 
ATOM     16  C   UNL     1       1.408  -0.309   0.541  0.00  0.00    +0.010 C 
ATOM     17  C   UNL     1       0.002  -0.004   0.002  0.00  0.00    +0.021 C 
ATOM     18  C   UNL     1      -1.041  -0.545   0.993  0.00  0.00    +0.013 C 
ATOM     19  C   UNL     1       1.235  -2.836   0.614  0.00  0.00    +0.031 C 
ATOM     20  C   UNL     1       1.142  -2.923   2.106  0.00  0.00    -0.027 C 
ATOM     21  C   UNL     1       2.112  -2.540   2.880  0.00  0.00    -0.065 C 
ATOM     22  C   UNL     1       3.358  -1.855   2.398  0.00  0.00    -0.008 C 
ATOM     23  C   UNL     1       4.558  -2.708   2.847  0.00  0.00    +0.014 C 
ATOM     24  C   UNL     1       4.512  -2.962   4.349  0.00  0.00    +0.032 C 
ATOM     25  C   UNL     1       3.227  -3.679   4.758  0.00  0.00    +0.119 C 
ATOM     26  C   UNL     1       2.007  -2.840   4.366  0.00  0.00    +0.062 C 
ATOM     27  C   UNL     1       3.464  -0.520   3.133  0.00  0.00    +0.016 C 
ATOM     28  C   UNL     1       2.343   0.579  -1.627  0.00  0.00    +0.016 C 
ENDROOT
BRANCH   2  29
ATOM     29  N   UNL     1      -3.005   1.026  -0.723  0.00  0.00    -0.356 N 
ATOM     30  H   UNL     1      -2.411   0.281  -0.903  0.00  0.00    +0.142 HD
ATOM     31  H   UNL     1      -3.959   0.932  -0.867  0.00  0.00    +0.142 HD
ENDBRANCH   2  29
BRANCH   1  32
ATOM     32  C   UNL     1      -4.759   3.309  -0.091  0.00  0.00    +0.348 C 
ATOM     33  O   UNL     1      -5.368   2.294  -0.375  0.00  0.00    -0.244 OA
BRANCH  32  34
ATOM     34  O   UNL     1      -5.432   4.450   0.166  0.00  0.00    -0.461 OA
BRANCH  34  36
ATOM     35  C   UNL     1      -7.441   5.773   0.405  0.00  0.00    +0.048 C 
ATOM     36  C   UNL     1      -6.858   4.395   0.085  0.00  0.00    +0.229 C 
ENDBRANCH  34  36
ENDBRANCH  32  34
ENDBRANCH   1  32
BRANCH  25  37
ATOM     37  O   UNL     1       3.158  -4.951   4.108  0.00  0.00    -0.391 OA
ATOM     38  H   UNL     1       2.372  -5.466   4.335  0.00  0.00    +0.210 HD
ENDBRANCH  25  37
TORSDOF 5
