REMARK  Name = ZINC02313374
REMARK  9 active torsions:
REMARK  status: ('A' for Active; 'I' for Inactive)
REMARK    1  A    between atoms: C_1  and  C_2
REMARK    2  A    between atoms: C_5  and  C_8
REMARK    3  A    between atoms: C_8  and  C_10
REMARK    4  A    between atoms: C_10  and  S_11
REMARK    5  A    between atoms: S_11  and  C_12
REMARK    6  A    between atoms: C_12  and  N_18
REMARK    7  A    between atoms: C_13  and  C_14
REMARK    8  A    between atoms: C_13  and  C_16
REMARK    9  A    between atoms: N_18  and  C_19
REMARK                            x       y       z     vdW  Elec       q    Type
REMARK                         _______ _______ _______ _____ _____    ______ ____
ROOT
ATOM      1  C   UNL     1      -2.349   1.283  -0.027  0.00  0.00    +0.094 C 
ATOM      2  C   UNL     1      -3.613   1.874  -0.098  0.00  0.00    +0.156 C 
ENDROOT
BRANCH   2   3
ATOM      3  C   UNL     1      -4.788   1.055  -0.086  0.00  0.00    +0.113 C 
ATOM      4  N   UNL     1      -5.720   0.406  -0.077  0.00  0.00    -0.190 NA
ENDBRANCH   2   3
BRANCH   2   5
ATOM      5  C   UNL     1      -3.733   3.298  -0.183  0.00  0.00    +0.113 C 
ATOM      6  N   UNL     1      -3.829   4.428  -0.250  0.00  0.00    -0.190 NA
ENDBRANCH   2   5
BRANCH   1   7
ATOM      7  N   UNL     1      -1.227   2.064  -0.038  0.00  0.00    -0.307 N 
ATOM      8  H   UNL     1      -0.766   2.240  -0.874  0.00  0.00    +0.153 HD
BRANCH   7   9
ATOM      9  C   UNL     1      -0.743   2.611   1.155  0.00  0.00    +0.050 A 
ATOM     10  C   UNL     1      -1.457   2.447   2.335  0.00  0.00    +0.026 A 
ATOM     11  C   UNL     1      -0.974   2.983   3.513  0.00  0.00    +0.022 A 
ATOM     12  C   UNL     1       0.220   3.683   3.519  0.00  0.00    +0.042 A 
ATOM     13  C   UNL     1       0.934   3.848   2.346  0.00  0.00    +0.041 A 
ATOM     14  C   UNL     1       0.456   3.314   1.164  0.00  0.00    +0.063 A 
ATOM     15 CL   UNL     1       1.352   3.521  -0.308  0.00  0.00    -0.082 Cl
ATOM     16 CL   UNL     1       0.823   4.354   5.002  0.00  0.00    -0.083 Cl
ENDBRANCH   7   9
ENDBRANCH   1   7
BRANCH   1  17
ATOM     17  S   UNL     1      -2.200  -0.470   0.078  0.00  0.00    -0.100 S 
BRANCH  17  18
ATOM     18  C   UNL     1      -0.407  -0.623   0.264  0.00  0.00    +0.155 C 
BRANCH  18  19
ATOM     19  C   UNL     1      -0.045  -2.071   0.475  0.00  0.00    +0.173 C 
ATOM     20  O   UNL     1      -0.902  -2.926   0.408  0.00  0.00    -0.291 OA
BRANCH  19  25
ATOM     21  C   UNL     1       5.397  -3.540   1.603  0.00  0.00    +0.044 C 
ATOM     22  C   UNL     1       3.970  -3.155   1.307  0.00  0.00    -0.050 A 
ATOM     23  C   UNL     1       3.017  -4.139   1.117  0.00  0.00    +0.004 A 
ATOM     24  C   UNL     1       1.710  -3.795   0.846  0.00  0.00    +0.011 A 
ATOM     25  C   UNL     1       1.348  -2.447   0.764  0.00  0.00    +0.018 A 
ATOM     26  C   UNL     1       2.318  -1.458   0.953  0.00  0.00    +0.011 A 
ATOM     27  C   UNL     1       3.621  -1.818   1.228  0.00  0.00    +0.004 A 
ENDBRANCH  19  25
ENDBRANCH  18  19
ENDBRANCH  17  18
ENDBRANCH   1  17
TORSDOF 8
