REMARK  Name = ZINC19314522
REMARK  9 active torsions:
REMARK  status: ('A' for Active; 'I' for Inactive)
REMARK    1  A    between atoms: C_1  and  C_2
REMARK    2  A    between atoms: C_2  and  O_3
REMARK    3  A    between atoms: O_3  and  C_4
REMARK    4  A    between atoms: C_4  and  C_6
REMARK    5  A    between atoms: C_7  and  C_30
REMARK    6  A    between atoms: C_11  and  C_13
REMARK    7  A    between atoms: C_18  and  C_19
REMARK    8  A    between atoms: C_26  and  C_28
REMARK    9  A    between atoms: C_26  and  C_29
REMARK                            x       y       z     vdW  Elec       q    Type
REMARK                         _______ _______ _______ _____ _____    ______ ____
ROOT
ATOM      1  C   UNL     1      -1.226  -2.295   0.502  0.00  0.00    +0.065 C 
ATOM      2  C   UNL     1      -0.037  -2.923   0.503  0.00  0.00    +0.016 C 
ATOM      3  N   UNL     1       1.100  -2.254   0.145  0.00  0.00    -0.321 N 
ATOM      4  C   UNL     1       1.139  -0.885   0.163  0.00  0.00    +0.016 C 
ATOM      5  C   UNL     1      -0.003  -0.167   0.154  0.00  0.00    +0.024 C 
ATOM      6  C   UNL     1      -1.345  -0.853   0.105  0.00  0.00    +0.093 C 
ATOM      7  C   UNL     1       0.023   1.239   0.187  0.00  0.00    +0.162 C 
ATOM      8  O   UNL     1      -1.023   1.856   0.165  0.00  0.00    -0.292 OA
ATOM      9  C   UNL     1       1.324   1.993   0.244  0.00  0.00    +0.086 C 
ATOM     10  C   UNL     1       2.375   1.123   0.942  0.00  0.00    -0.023 C 
ATOM     11  C   UNL     1       2.485  -0.204   0.189  0.00  0.00    +0.058 C 
ATOM     12  C   UNL     1       1.947   0.860   2.387  0.00  0.00    +0.011 C 
ATOM     13  C   UNL     1       3.729   1.836   0.928  0.00  0.00    +0.011 C 
ATOM     14  C   UNL     1       0.043  -4.374   0.901  0.00  0.00    +0.061 C 
ATOM     15  H   UNL     1       1.995  -2.815  -0.162  0.00  0.00    +0.152 HD
ENDROOT
BRANCH   6  16
ATOM     16  C   UNL     1      -1.892  -0.769  -1.296  0.00  0.00    -0.024 A 
ATOM     17  C   UNL     1      -1.208  -1.360  -2.342  0.00  0.00    +0.005 A 
ATOM     18  C   UNL     1      -1.712  -1.287  -3.627  0.00  0.00    +0.000 A 
ATOM     19  C   UNL     1      -2.897  -0.615  -3.868  0.00  0.00    +0.001 A 
ATOM     20  C   UNL     1      -3.578  -0.020  -2.823  0.00  0.00    +0.012 A 
ATOM     21  C   UNL     1      -3.076  -0.097  -1.537  0.00  0.00    +0.059 A 
BRANCH  21  22
ATOM     22  C   UNL     1      -3.819   0.552  -0.398  0.00  0.00    +0.418 C 
ATOM     23  F   UNL     1      -5.050   1.031  -0.857  0.00  0.00    -0.166 F 
ATOM     24  F   UNL     1      -4.033  -0.389   0.615  0.00  0.00    -0.166 F 
ATOM     25  F   UNL     1      -3.063   1.615   0.106  0.00  0.00    -0.166 F 
ENDBRANCH  21  22
ENDBRANCH   6  16
BRANCH   1  26
ATOM     26  C   UNL     1      -2.387  -3.008   0.884  0.00  0.00    +0.338 C 
ATOM     27  O   UNL     1      -2.321  -4.201   1.113  0.00  0.00    -0.245 OA
BRANCH  26  28
ATOM     28  O   UNL     1      -3.568  -2.364   0.993  0.00  0.00    -0.462 OA
BRANCH  28  30
ATOM     29  C   UNL     1      -5.938  -2.251   1.453  0.00  0.00    +0.048 C 
ATOM     30  C   UNL     1      -4.699  -3.146   1.383  0.00  0.00    +0.229 C 
ENDBRANCH  28  30
ENDBRANCH  26  28
ENDBRANCH   1  26
TORSDOF 5
