REMARK  Name = ZINC25758885
REMARK  17 active torsions:
REMARK  status: ('A' for Active; 'I' for Inactive)
REMARK    1  A    between atoms: C_1  and  C_2
REMARK    2  A    between atoms: C_2  and  O_3
REMARK    3  A    between atoms: O_3  and  C_4
REMARK    4  A    between atoms: C_4  and  C_6
REMARK    5  A    between atoms: C_6  and  C_7
REMARK    6  A    between atoms: C_7  and  C_8
REMARK    7  A    between atoms: C_9  and  C_35
REMARK    8  A    between atoms: C_10  and  C_34
REMARK    9  A    between atoms: C_11  and  C_14
REMARK   10  A    between atoms: C_18  and  C_30
REMARK   11  A    between atoms: C_19  and  C_29
REMARK   12  A    between atoms: C_20  and  C_22
REMARK   13  A    between atoms: C_22  and  C_23
REMARK   14  A    between atoms: C_23  and  C_24
REMARK   15  A    between atoms: C_24  and  O_26
REMARK   16  A    between atoms: O_26  and  C_27
REMARK   17  A    between atoms: C_27  and  C_28
REMARK                            x       y       z     vdW  Elec       q    Type
REMARK                         _______ _______ _______ _____ _____    ______ ____
ROOT
ATOM      1  C   UNL     1       5.491  -5.498   4.754  0.00  0.00    -0.023 C 
ATOM      2  C   UNL     1       6.140  -4.802   5.753  0.00  0.00    +0.011 C 
ATOM      3  C   UNL     1       7.276  -5.303   6.362  0.00  0.00    -0.021 C 
ATOM      4  C   UNL     1       7.904  -4.560   7.377  0.00  0.00    +0.071 C 
ATOM      5  C   UNL     1       9.019  -4.970   8.137  0.00  0.00    -0.020 C 
ATOM      6  C   UNL     1       9.294  -3.946   9.002  0.00  0.00    -0.024 C 
ATOM      7  C   UNL     1       8.355  -2.942   8.759  0.00  0.00    +0.046 C 
ATOM      8  N   UNL     1       7.552  -3.329   7.793  0.00  0.00    -0.251 NA
ATOM      9  C   UNL     1      10.400  -3.909  10.024  0.00  0.00    +0.046 C 
ATOM     10  C   UNL     1       9.761  -6.276   8.020  0.00  0.00    +0.046 C 
ATOM     11  C   UNL     1       7.847  -6.635   5.952  0.00  0.00    +0.037 C 
ATOM     12  C   UNL     1       6.716  -7.537   5.449  0.00  0.00    +0.009 C 
ATOM     13  C   UNL     1       5.999  -6.839   4.293  0.00  0.00    +0.037 C 
ENDROOT
BRANCH   1  17
ATOM     14  C   UNL     1       2.978  -3.972   2.707  0.00  0.00    +0.020 A 
ATOM     15  C   UNL     1       2.236  -4.270   3.805  0.00  0.00    -0.026 A 
ATOM     16  C   UNL     1       3.072  -4.887   4.734  0.00  0.00    -0.022 A 
ATOM     17  C   UNL     1       4.338  -4.952   4.163  0.00  0.00    +0.046 A 
ATOM     18  N   UNL     1       4.253  -4.385   2.909  0.00  0.00    -0.358 N 
ATOM     19  H   UNL     1       4.984  -4.295   2.277  0.00  0.00    +0.166 HD
ATOM     20  C   UNL     1       2.677  -5.390   6.099  0.00  0.00    +0.046 C 
ATOM     21  C   UNL     1       0.768  -3.984   3.987  0.00  0.00    +0.046 C 
BRANCH  14  22
ATOM     22  C   UNL     1       2.465  -3.296   1.462  0.00  0.00    +0.064 C 
BRANCH  22  23
ATOM     23  C   UNL     1       2.502  -1.778   1.653  0.00  0.00    +0.126 C 
BRANCH  23  24
ATOM     24  C   UNL     1       1.988  -1.102   0.408  0.00  0.00    +0.307 C 
ATOM     25  O   UNL     1       1.629  -1.766  -0.536  0.00  0.00    -0.251 OA
BRANCH  24  26
ATOM     26  O   UNL     1       1.930   0.238   0.347  0.00  0.00    -0.465 OA
BRANCH  26  28
ATOM     27  C   UNL     1       1.440   2.337  -0.747  0.00  0.00    +0.048 C 
ATOM     28  C   UNL     1       1.433   0.811  -0.864  0.00  0.00    +0.229 C 
ENDBRANCH  26  28
ENDBRANCH  24  26
ENDBRANCH  23  24
ENDBRANCH  22  23
ENDBRANCH  14  22
ENDBRANCH   1  17
BRANCH   7  29
ATOM     29  C   UNL     1       8.279  -1.624   9.485  0.00  0.00    +0.067 C 
BRANCH  29  30
ATOM     30  C   UNL     1       7.114  -0.803   8.928  0.00  0.00    +0.127 C 
BRANCH  30  31
ATOM     31  C   UNL     1       7.037   0.516   9.654  0.00  0.00    +0.307 C 
ATOM     32  O   UNL     1       7.832   0.773  10.526  0.00  0.00    -0.251 OA
BRANCH  31  33
ATOM     33  O   UNL     1       6.085   1.405   9.330  0.00  0.00    -0.465 OA
BRANCH  33  34
ATOM     34  C   UNL     1       6.072   2.635  10.059  0.00  0.00    +0.229 C 
ATOM     35  C   UNL     1       4.926   3.514   9.554  0.00  0.00    +0.048 C 
ENDBRANCH  33  34
ENDBRANCH  31  33
ENDBRANCH  30  31
ENDBRANCH  29  30
ENDBRANCH   7  29
TORSDOF 11
