REMARK  Name = ZINC32671803
REMARK  12 active torsions:
REMARK  status: ('A' for Active; 'I' for Inactive)
REMARK    1  A    between atoms: C_1  and  C_2
REMARK    2  A    between atoms: C_2  and  N_3
REMARK    3  A    between atoms: N_3  and  C_4
REMARK    4  A    between atoms: N_3  and  C_6
REMARK    5  A    between atoms: C_4  and  C_5
REMARK    6  A    between atoms: C_9  and  C_12
REMARK    7  A    between atoms: N_14  and  N_15
REMARK    8  A    between atoms: C_16  and  C_18
REMARK    9  A    between atoms: C_18  and  O_19
REMARK   10  A    between atoms: O_19  and  C_20
REMARK   11  A    between atoms: C_20  and  C_22
REMARK   12  A    between atoms: C_31  and  O_32
REMARK                            x       y       z     vdW  Elec       q    Type
REMARK                         _______ _______ _______ _____ _____    ______ ____
ROOT
ATOM      1  N   UNL     1       3.736  11.473   0.021  0.00  0.00    -0.231 N 
ATOM      2  C   UNL     1       3.564  10.136   0.016  0.00  0.00    +0.267 C 
ATOM      3  O   UNL     1       4.528   9.400   0.004  0.00  0.00    -0.271 OA
ATOM      4  H   UNL     1       2.861  12.139   0.032  0.00  0.00    +0.173 HD
ENDROOT
BRANCH   1   7
ATOM      5  C   UNL     1       5.200  13.350   0.015  0.00  0.00    +0.260 C 
ATOM      6  O   UNL     1       4.233  14.087   0.027  0.00  0.00    -0.269 OA
ATOM      7  N   UNL     1       5.028  12.013   0.011  0.00  0.00    -0.230 N 
ATOM      8  H   UNL     1       5.903  11.346  -0.000  0.00  0.00    +0.173 HD
BRANCH   5  12
ATOM      9  C   UNL     1       9.118  14.987  -0.015  0.00  0.00    +0.030 A 
ATOM     10  C   UNL     1       8.011  15.832  -0.001  0.00  0.00    +0.024 A 
ATOM     11  C   UNL     1       6.741  15.305   0.009  0.00  0.00    +0.015 A 
ATOM     12  C   UNL     1       6.561  13.918   0.005  0.00  0.00    +0.038 A 
ATOM     13  C   UNL     1       7.674  13.072  -0.004  0.00  0.00    +0.015 A 
ATOM     14  C   UNL     1       8.942  13.606  -0.019  0.00  0.00    +0.024 A 
BRANCH   9  15
ATOM     15  N   UNL     1      10.400  15.523  -0.024  0.00  0.00    -0.330 N 
BRANCH  15  17
ATOM     16  C   UNL     1      11.957  14.332  -1.487  0.00  0.00    +0.024 C 
ATOM     17  C   UNL     1      11.566  14.635  -0.039  0.00  0.00    +0.102 C 
ENDBRANCH  15  17
BRANCH  15  18
ATOM     18  C   UNL     1      10.587  16.976  -0.020  0.00  0.00    +0.102 C 
ATOM     19  C   UNL     1      10.666  17.476   1.424  0.00  0.00    +0.024 C 
ENDBRANCH  15  18
ENDBRANCH   9  15
ENDBRANCH   5  12
ENDBRANCH   1   7
BRANCH   2  20
ATOM     20  C   UNL     1       2.173   9.555   0.027  0.00  0.00    +0.329 C 
BRANCH  20  21
ATOM     21  O   UNL     1       2.255   8.105   0.020  0.00  0.00    -0.452 OA
BRANCH  21  22
ATOM     22  C   UNL     1       1.090   7.427   0.028  0.00  0.00    +0.343 C 
ATOM     23  O   UNL     1       0.035   8.030   0.040  0.00  0.00    -0.245 OA
BRANCH  22  24
ATOM     24  C   UNL     1       1.095   5.955   0.021  0.00  0.00    +0.101 A 
ATOM     25  C   UNL     1       2.319   5.259   0.006  0.00  0.00    +0.019 A 
ATOM     26  C   UNL     1       2.350   3.904  -0.000  0.00  0.00    +0.009 A 
ATOM     27  C   UNL     1       1.149   3.167   0.008  0.00  0.00    -0.014 A 
ATOM     28  C   UNL     1       1.163   1.763   0.000  0.00  0.00    +0.008 A 
ATOM     29  C   UNL     1      -0.013   1.076   0.008  0.00  0.00    +0.001 A 
ATOM     30  C   UNL     1      -1.234   1.745   0.017  0.00  0.00    +0.001 A 
ATOM     31  C   UNL     1      -1.285   3.106   0.030  0.00  0.00    +0.012 A 
ATOM     32  C   UNL     1      -0.093   3.848   0.023  0.00  0.00    +0.024 A 
ATOM     33  C   UNL     1      -0.111   5.258   0.029  0.00  0.00    +0.138 A 
BRANCH  33  34
ATOM     34  O   UNL     1      -1.288   5.926   0.043  0.00  0.00    -0.505 OA
ATOM     35  H   UNL     1      -2.237   5.370   0.050  0.00  0.00    +0.292 HD
ENDBRANCH  33  34
ENDBRANCH  22  24
ENDBRANCH  21  22
ENDBRANCH  20  21
ENDBRANCH   2  20
TORSDOF 10
