REMARK  Name = ZINC09613196
REMARK  12 active torsions:
REMARK  status: ('A' for Active; 'I' for Inactive)
REMARK    1  A    between atoms: C_1  and  C_2
REMARK    2  A    between atoms: C_5  and  N_9
REMARK    3  A    between atoms: C_6  and  C_8
REMARK    4  A    between atoms: N_9  and  S_10
REMARK    5  A    between atoms: S_10  and  C_13
REMARK    6  A    between atoms: C_16  and  N_22
REMARK    7  A    between atoms: C_17  and  N_19
REMARK    8  A    between atoms: N_22  and  N_23
REMARK    9  A    between atoms: C_24  and  C_25
REMARK   10  A    between atoms: C_28  and  O_33
REMARK   11  A    between atoms: C_29  and  O_31
REMARK   12  A    between atoms: O_31  and  C_32
REMARK                            x       y       z     vdW  Elec       q    Type
REMARK                         _______ _______ _______ _____ _____    ______ ____
ROOT
ATOM      1  C   UNL     1       1.415   2.987   1.219  0.00  0.00    +0.111 A 
ATOM      2  C   UNL     1       0.937   4.284   1.267  0.00  0.00    +0.031 A 
ATOM      3  C   UNL     1       1.081   5.032   2.418  0.00  0.00    +0.029 A 
ATOM      4  C   UNL     1       1.717   4.485   3.526  0.00  0.00    +0.079 A 
ATOM      5  C   UNL     1       2.201   3.183   3.472  0.00  0.00    +0.150 A 
ATOM      6  C   UNL     1       2.048   2.438   2.319  0.00  0.00    +0.063 A 
ENDROOT
BRANCH   1   7
ATOM      7  S   UNL     1       1.223   2.033  -0.250  0.00  0.00    +0.072 S 
ATOM      8  O   UNL     1       2.242   1.043  -0.228  0.00  0.00    -0.150 OA
ATOM      9  O   UNL     1       1.082   2.958  -1.319  0.00  0.00    -0.150 OA
BRANCH   7  10
ATOM     10  N   UNL     1      -0.220   1.230  -0.127  0.00  0.00    -0.216 N 
ATOM     11  H   UNL     1      -0.239   0.260  -0.144  0.00  0.00    +0.174 HD
BRANCH  10  16
ATOM     12  C   UNL     1      -5.057   4.147   0.373  0.00  0.00    +0.044 C 
ATOM     13  C   UNL     1      -3.772   3.372   0.241  0.00  0.00    -0.050 A 
ATOM     14  C   UNL     1      -2.747   3.864  -0.547  0.00  0.00    +0.005 A 
ATOM     15  C   UNL     1      -1.568   3.156  -0.671  0.00  0.00    +0.025 A 
ATOM     16  C   UNL     1      -1.411   1.948  -0.003  0.00  0.00    +0.051 A 
ATOM     17  C   UNL     1      -2.444   1.455   0.784  0.00  0.00    -0.028 A 
ATOM     18  C   UNL     1      -3.619   2.170   0.908  0.00  0.00    +0.008 A 
ATOM     19  C   UNL     1      -2.280   0.142   1.506  0.00  0.00    +0.046 C 
ENDBRANCH  10  16
ENDBRANCH   7  10
ENDBRANCH   1   7
BRANCH   5  20
ATOM     20  N   UNL     1       2.879   2.595   4.650  0.00  0.00    +0.058 N 
ATOM     21  O   UNL     1       3.395   1.495   4.569  0.00  0.00    -0.126 OA
ATOM     22  O   UNL     1       2.920   3.211   5.700  0.00  0.00    -0.126 OA
ENDBRANCH   5  20
BRANCH   4  23
ATOM     23  N   UNL     1       1.870   5.240   4.689  0.00  0.00    -0.236 N 
ATOM     24  H   UNL     1       2.241   4.832   5.487  0.00  0.00    +0.174 HD
BRANCH  23  25
ATOM     25  N   UNL     1       1.487   6.588   4.704  0.00  0.00    -0.190 NA
ATOM     26  C   UNL     1       1.630   7.291   5.786  0.00  0.00    +0.138 C 
BRANCH  26  27
ATOM     27  C   UNL     1       1.227   8.709   5.802  0.00  0.00    -0.002 A 
ATOM     28  C   UNL     1       0.697   9.300   4.652  0.00  0.00    +0.013 A 
ATOM     29  C   UNL     1       0.316  10.625   4.671  0.00  0.00    +0.050 A 
ATOM     30  C   UNL     1       0.467  11.377   5.827  0.00  0.00    +0.158 A 
ATOM     31  C   UNL     1       1.000  10.797   6.975  0.00  0.00    +0.162 A 
ATOM     32  C   UNL     1       1.379   9.467   6.966  0.00  0.00    +0.058 A 
BRANCH  31  33
ATOM     33  O   UNL     1       1.146  11.537   8.106  0.00  0.00    -0.491 OA
ATOM     34  C   UNL     1       1.699  10.878   9.247  0.00  0.00    +0.277 C 
ENDBRANCH  31  33
BRANCH  30  35
ATOM     35  O   UNL     1       0.094  12.685   5.838  0.00  0.00    -0.503 OA
ATOM     36  H   UNL     1       0.797  13.297   5.583  0.00  0.00    +0.292 HD
ENDBRANCH  30  35
ENDBRANCH  26  27
ENDBRANCH  23  25
ENDBRANCH   4  23
TORSDOF 9
