REMARK  Name = ZINC01812256
REMARK  4 active torsions:
REMARK  status: ('A' for Active; 'I' for Inactive)
REMARK    1  A    between atoms: C_7  and  C_11
REMARK    2  A    between atoms: N_15  and  N_19
REMARK    3  A    between atoms: C_20  and  C_22
REMARK    4  A    between atoms: C_27  and  N_28
REMARK                            x       y       z     vdW  Elec       q    Type
REMARK                         _______ _______ _______ _____ _____    ______ ____
ROOT
ATOM      1  C   UNL     1      -0.841   6.671   0.324  0.00  0.00    +0.030 C 
ATOM      2  C   UNL     1      -0.302   7.979   0.358  0.00  0.00    +0.079 C 
ATOM      3  C   UNL     1       1.125   8.412   0.346  0.00  0.00    +0.275 C 
ATOM      4  O   UNL     1       2.039   7.612   0.301  0.00  0.00    -0.267 OA
ATOM      5  N   UNL     1       1.339   9.717   0.386  0.00  0.00    -0.169 N 
ATOM      6  C   UNL     1       0.300  10.575   0.434  0.00  0.00    +0.138 C 
ATOM      7  S   UNL     1       0.341  12.285   0.490  0.00  0.00    -0.026 S 
ATOM      8  S   UNL     1      -1.127   9.505   0.418  0.00  0.00    -0.059 S 
ENDROOT
BRANCH   1  15
ATOM      9  C   UNL     1      -1.000   2.420  -1.533  0.00  0.00    +0.001 A 
ATOM     10  C   UNL     1       0.083   1.655  -1.139  0.00  0.00    +0.002 A 
ATOM     11  C   UNL     1       1.050   2.181  -0.297  0.00  0.00    +0.026 A 
ATOM     12  C   UNL     1       0.937   3.485   0.166  0.00  0.00    +0.047 A 
ATOM     13  C   UNL     1      -0.166   4.256  -0.231  0.00  0.00    +0.007 A 
ATOM     14  C   UNL     1      -1.134   3.719  -1.078  0.00  0.00    +0.010 A 
ATOM     15  C   UNL     1      -0.001   5.572   0.417  0.00  0.00    +0.001 A 
ATOM     16  C   UNL     1       1.251   5.464   1.183  0.00  0.00    +0.091 A 
ATOM     17  N   UNL     1       1.744   4.246   1.002  0.00  0.00    -0.360 N 
ATOM     18  H   UNL     1       2.665   3.813   1.421  0.00  0.00    +0.165 HD
ENDBRANCH   1  15
BRANCH   5  19
ATOM     19  N   UNL     1       2.651  10.210   0.378  0.00  0.00    -0.222 N 
ATOM     20  C   UNL     1       3.155  10.768  -0.741  0.00  0.00    +0.263 C 
ATOM     21  O   UNL     1       2.471  10.843  -1.743  0.00  0.00    -0.269 OA
ATOM     22  H   UNL     1       3.269  10.142   1.285  0.00  0.00    +0.174 HD
BRANCH  20  23
ATOM     23  C   UNL     1       4.539  11.288  -0.749  0.00  0.00    +0.068 A 
ATOM     24  C   UNL     1       5.370  11.085   0.354  0.00  0.00    +0.015 A 
ATOM     25  C   UNL     1       6.662  11.569   0.338  0.00  0.00    +0.001 A 
ATOM     26  C   UNL     1       7.130  12.263  -0.764  0.00  0.00    +0.002 A 
ATOM     27  C   UNL     1       6.310  12.471  -1.858  0.00  0.00    +0.033 A 
ATOM     28  C   UNL     1       5.017  11.988  -1.857  0.00  0.00    +0.138 A 
BRANCH  28  29
ATOM     29  N   UNL     1       4.141  12.213  -3.028  0.00  0.00    +0.057 N 
ATOM     30  O   UNL     1       4.557  11.888  -4.235  0.00  0.00    -0.126 OA
ATOM     31  O   UNL     1       2.944  12.738  -2.864  0.00  0.00    -0.126 OA
ENDBRANCH  28  29
ENDBRANCH  20  23
ENDBRANCH   5  19
TORSDOF 4
