REMARK  Name = ZINC01157284
REMARK  9 active torsions:
REMARK  status: ('A' for Active; 'I' for Inactive)
REMARK    1  A    between atoms: C_1  and  C_2
REMARK    2  A    between atoms: C_2  and  N_3
REMARK    3  A    between atoms: N_3  and  C_4
REMARK    4  A    between atoms: N_3  and  C_6
REMARK    5  A    between atoms: C_4  and  C_5
REMARK    6  A    between atoms: C_9  and  N_12
REMARK    7  A    between atoms: C_15  and  C_18
REMARK    8  A    between atoms: C_21  and  O_25
REMARK    9  A    between atoms: C_22  and  O_24
REMARK                            x       y       z     vdW  Elec       q    Type
REMARK                         _______ _______ _______ _____ _____    ______ ____
ROOT
ATOM      1  N   UNL     1       4.977   5.547   0.178  0.00  0.00    -0.294 N 
ATOM      2  C   UNL     1       4.665   4.472  -0.638  0.00  0.00    +0.163 A 
ATOM      3  N   UNL     1       3.526   3.813  -0.754  0.00  0.00    -0.225 NA
ATOM      4  C   UNL     1       3.403   2.793  -1.592  0.00  0.00    +0.080 A 
ATOM      5  C   UNL     1       4.471   2.424  -2.360  0.00  0.00    +0.076 A 
ATOM      6  S   UNL     1       5.694   3.613  -1.821  0.00  0.00    -0.060 S 
ATOM      7  H   UNL     1       4.284   5.971   0.708  0.00  0.00    +0.154 HD
ENDROOT
BRANCH   1  11
ATOM      8  C   UNL     1       8.895   6.962   0.356  0.00  0.00    +0.030 A 
ATOM      9  C   UNL     1       7.831   7.845   0.492  0.00  0.00    +0.025 A 
ATOM     10  C   UNL     1       6.534   7.376   0.433  0.00  0.00    +0.025 A 
ATOM     11  C   UNL     1       6.293   6.023   0.237  0.00  0.00    +0.033 A 
ATOM     12  C   UNL     1       7.356   5.139   0.106  0.00  0.00    +0.025 A 
ATOM     13  C   UNL     1       8.654   5.609   0.161  0.00  0.00    +0.025 A 
BRANCH   8  14
ATOM     14  N   UNL     1      10.210   7.437   0.416  0.00  0.00    -0.330 N 
BRANCH  14  16
ATOM     15  C   UNL     1      11.713   6.391  -1.206  0.00  0.00    +0.024 C 
ATOM     16  C   UNL     1      11.332   6.506   0.272  0.00  0.00    +0.102 C 
ENDBRANCH  14  16
BRANCH  14  17
ATOM     17  C   UNL     1      10.465   8.865   0.623  0.00  0.00    +0.102 C 
ATOM     18  C   UNL     1      10.564   9.154   2.122  0.00  0.00    +0.024 C 
ENDBRANCH  14  17
ENDBRANCH   8  14
ENDBRANCH   1  11
BRANCH   4  19
ATOM     19  C   UNL     1       2.116   2.064  -1.700  0.00  0.00    +0.005 A 
ATOM     20  C   UNL     1       2.021   0.933  -2.509  0.00  0.00    +0.014 A 
ATOM     21  C   UNL     1       0.823   0.255  -2.610  0.00  0.00    +0.050 A 
ATOM     22  C   UNL     1      -0.288   0.696  -1.908  0.00  0.00    +0.158 A 
ATOM     23  C   UNL     1      -0.199   1.826  -1.098  0.00  0.00    +0.159 A 
ATOM     24  C   UNL     1       1.000   2.509  -0.994  0.00  0.00    +0.059 A 
BRANCH  23  25
ATOM     25  O   UNL     1      -1.291   2.260  -0.415  0.00  0.00    -0.503 OA
ATOM     26  H   UNL     1      -1.381   1.877   0.468  0.00  0.00    +0.292 HD
ENDBRANCH  23  25
BRANCH  22  27
ATOM     27  O   UNL     1      -1.466   0.026  -2.010  0.00  0.00    -0.503 OA
ATOM     28  H   UNL     1      -2.037   0.341  -2.724  0.00  0.00    +0.292 HD
ENDBRANCH  22  27
ENDBRANCH   4  19
TORSDOF 7
