REMARK  Name = ZINC40742691
REMARK  8 active torsions:
REMARK  status: ('A' for Active; 'I' for Inactive)
REMARK    1  A    between atoms: C_1  and  O_2
REMARK    2  A    between atoms: O_2  and  C_3
REMARK    3  A    between atoms: C_5  and  C_20
REMARK    4  A    between atoms: C_8  and  O_9
REMARK    5  A    between atoms: O_9  and  C_10
REMARK    6  A    between atoms: C_10  and  C_11
REMARK    7  A    between atoms: C_20  and  N_21
REMARK    8  A    between atoms: N_21  and  C_22
REMARK                            x       y       z     vdW  Elec       q    Type
REMARK                         _______ _______ _______ _____ _____    ______ ____
ROOT
ATOM      1  C   UNL     1       0.606  -0.608  -1.056  0.00  0.00    +0.163 A 
ATOM      2  C   UNL     1       1.173   0.159  -2.062  0.00  0.00    +0.051 A 
ATOM      3  C   UNL     1       1.787  -0.455  -3.138  0.00  0.00    -0.059 A 
ATOM      4  C   UNL     1       1.837  -1.835  -3.214  0.00  0.00    +0.025 A 
ATOM      5  C   UNL     1       1.273  -2.606  -2.213  0.00  0.00    +0.086 A 
ATOM      6  C   UNL     1       0.662  -1.996  -1.129  0.00  0.00    +0.181 A 
ATOM      7 CL   UNL     1       1.337  -4.338  -2.312  0.00  0.00    -0.080 Cl
ENDROOT
BRANCH   1   9
ATOM      8  C   UNL     1      -0.017   1.425   0.010  0.00  0.00    +0.277 C 
ATOM      9  O   UNL     1       0.002  -0.004   0.002  0.00  0.00    -0.491 OA
ENDBRANCH   1   9
BRANCH   6  10
ATOM     10  O   UNL     1       0.112  -2.752  -0.141  0.00  0.00    -0.482 OA
BRANCH  10  11
ATOM     11  C   UNL     1      -1.259  -3.125  -0.296  0.00  0.00    +0.264 C 
BRANCH  11  12
ATOM     12  C   UNL     1      -1.690  -3.954   0.886  0.00  0.00    -0.009 A 
ATOM     13  C   UNL     1      -1.548  -5.329   0.855  0.00  0.00    +0.008 A 
ATOM     14  C   UNL     1      -1.944  -6.091   1.938  0.00  0.00    +0.022 A 
ATOM     15  C   UNL     1      -2.482  -5.477   3.055  0.00  0.00    +0.059 A 
ATOM     16  C   UNL     1      -2.625  -4.101   3.087  0.00  0.00    +0.060 A 
ATOM     17  C   UNL     1      -2.223  -3.339   2.003  0.00  0.00    +0.028 A 
ATOM     18 CL   UNL     1      -3.302  -3.330   4.487  0.00  0.00    -0.082 Cl
ATOM     19 CL   UNL     1      -2.980  -6.434   4.415  0.00  0.00    -0.082 Cl
ENDBRANCH  11  12
ENDBRANCH  10  11
ENDBRANCH   6  10
BRANCH   3  20
ATOM     20  C   UNL     1       2.402   0.381  -4.230  0.00  0.00    -0.046 C 
BRANCH  20  21
ATOM     21  N   UNL     1       3.807   0.659  -3.902  0.00  0.00    +0.385 N 
ATOM     22  H   UNL     1       3.854   1.160  -3.027  0.00  0.00    -0.085 HD
ATOM     23  H   UNL     1       4.311  -0.211  -3.819  0.00  0.00    -0.085 HD
BRANCH  21  24
ATOM     24  C   UNL     1       4.407   1.474  -4.967  0.00  0.00    -0.067 C 
ATOM     25  C   UNL     1       3.641   2.793  -5.092  0.00  0.00    -0.009 C 
ATOM     26  C   UNL     1       4.266   3.641  -6.201  0.00  0.00    -0.012 C 
ATOM     27  C   UNL     1       5.729   3.931  -5.859  0.00  0.00    +0.007 C 
ATOM     28  C   UNL     1       6.494   2.612  -5.733  0.00  0.00    -0.012 C 
ATOM     29  C   UNL     1       5.869   1.764  -4.624  0.00  0.00    -0.009 C 
ATOM     30  C   UNL     1       6.422   1.852  -7.059  0.00  0.00    +0.007 C 
ATOM     31  C   UNL     1       4.959   1.562  -7.402  0.00  0.00    -0.012 C 
ATOM     32  C   UNL     1       4.194   2.881  -7.527  0.00  0.00    +0.007 C 
ATOM     33  C   UNL     1       4.334   0.714  -6.293  0.00  0.00    -0.009 C 
ENDBRANCH  21  24
ENDBRANCH  20  21
ENDBRANCH   3  20
TORSDOF 7
