REMARK  Name = ZINC63349875
REMARK  10 active torsions:
REMARK  status: ('A' for Active; 'I' for Inactive)
REMARK    1  A    between atoms: C_1  and  C_2
REMARK    2  A    between atoms: C_4  and  O_11
REMARK    3  A    between atoms: C_7  and  N_8
REMARK    4  A    between atoms: O_11  and  C_12
REMARK    5  A    between atoms: C_12  and  C_13
REMARK    6  A    between atoms: C_15  and  C_21
REMARK    7  A    between atoms: C_18  and  O_19
REMARK    8  A    between atoms: O_19  and  C_20
REMARK    9  A    between atoms: C_28  and  O_33
REMARK   10  A    between atoms: O_33  and  C_34
REMARK                            x       y       z     vdW  Elec       q    Type
REMARK                         _______ _______ _______ _____ _____    ______ ____
ROOT
ATOM      1  C   UNL     1      -0.051  -4.724  -3.731  0.00  0.00    +0.032 A 
ATOM      2  C   UNL     1      -0.423  -3.906  -4.781  0.00  0.00    +0.015 A 
ATOM      3  C   UNL     1      -0.572  -4.434  -6.050  0.00  0.00    -0.028 A 
ATOM      4  C   UNL     1      -0.349  -5.780  -6.272  0.00  0.00    +0.009 A 
ATOM      5  C   UNL     1       0.024  -6.602  -5.227  0.00  0.00    +0.046 A 
ATOM      6  C   UNL     1       0.179  -6.074  -3.953  0.00  0.00    +0.126 A 
ENDROOT
BRANCH   3   7
ATOM      7  C   UNL     1      -0.979  -3.540  -7.193  0.00  0.00    +0.111 C 
ATOM      8  C   UNL     1      -2.473  -3.712  -7.475  0.00  0.00    +0.128 C 
ATOM      9  C   UNL     1      -2.762  -2.911  -8.740  0.00  0.00    -0.035 C 
ATOM     10  C   UNL     1      -3.755  -2.085  -8.443  0.00  0.00    +0.003 A 
ATOM     11  C   UNL     1      -4.522  -1.133  -9.261  0.00  0.00    +0.055 A 
ATOM     12  C   UNL     1      -5.486  -0.416  -8.621  0.00  0.00    +0.121 A 
ATOM     13  C   UNL     1      -5.776  -0.537  -7.254  0.00  0.00    +0.047 A 
ATOM     14  C   UNL     1      -5.135  -1.385  -6.410  0.00  0.00    +0.029 A 
ATOM     15  C   UNL     1      -4.074  -2.221  -6.987  0.00  0.00    +0.043 A 
ATOM     16  N   UNL     1      -3.314  -3.138  -6.425  0.00  0.00    -0.376 N 
ATOM     17  C   UNL     1      -1.924  -3.070  -9.986  0.00  0.00    +0.048 C 
ATOM     18  C   UNL     1      -0.456  -2.998  -9.527  0.00  0.00    +0.086 C 
ATOM     19  N   UNL     1      -0.232  -3.913  -8.405  0.00  0.00    -0.307 NA
ATOM     20  H   UNL     1       0.753  -4.010  -8.207  0.00  0.00    +0.123 HD
ATOM     21  H   UNL     1      -3.303  -3.390  -5.488  0.00  0.00    +0.160 HD
BRANCH  12  22
ATOM     22  O   UNL     1      -6.211   0.472  -9.350  0.00  0.00    -0.495 OA
ATOM     23  C   UNL     1      -7.217   1.214  -8.657  0.00  0.00    +0.277 C 
ENDBRANCH  12  22
ENDBRANCH   3   7
BRANCH   6  24
ATOM     24  O   UNL     1       0.551  -6.879  -2.923  0.00  0.00    -0.495 OA
ATOM     25  C   UNL     1       0.771  -8.259  -3.225  0.00  0.00    +0.277 C 
ENDBRANCH   6  24
BRANCH   1  26
ATOM     26  C   UNL     1       0.111  -4.149  -2.348  0.00  0.00    +0.268 C 
BRANCH  26  27
ATOM     27  O   UNL     1      -0.179  -2.750  -2.376  0.00  0.00    -0.487 OA
BRANCH  27  31
ATOM     28  C   UNL     1      -0.537   1.447   0.089  0.00  0.00    +0.046 C 
ATOM     29  C   UNL     1      -0.246  -0.031   0.040  0.00  0.00    -0.017 A 
ATOM     30  C   UNL     1      -0.348  -0.715  -1.157  0.00  0.00    +0.051 A 
ATOM     31  C   UNL     1      -0.080  -2.075  -1.201  0.00  0.00    +0.121 A 
ATOM     32  C   UNL     1       0.289  -2.745  -0.044  0.00  0.00    +0.048 A 
ATOM     33  C   UNL     1       0.389  -2.057   1.149  0.00  0.00    +0.036 A 
ATOM     34  C   UNL     1       0.127  -0.700   1.190  0.00  0.00    +0.129 A 
BRANCH  34  35
ATOM     35  N   UNL     1       0.241   0.037   2.469  0.00  0.00    +0.057 N 
ATOM     36  O   UNL     1       0.676   1.165   2.480  0.00  0.00    -0.126 OA
ATOM     37  O   UNL     1      -0.100  -0.490   3.502  0.00  0.00    -0.126 OA
ENDBRANCH  34  35
ENDBRANCH  27  31
ENDBRANCH  26  27
ENDBRANCH   1  26
TORSDOF 7
