REMARK  Name = ZINC21927235
REMARK  9 active torsions:
REMARK  status: ('A' for Active; 'I' for Inactive)
REMARK    1  A    between atoms: C_4  and  C_7
REMARK    2  A    between atoms: C_7  and  O_8
REMARK    3  A    between atoms: O_8  and  C_9
REMARK    4  A    between atoms: N_11  and  C_12
REMARK    5  A    between atoms: C_12  and  C_14
REMARK    6  A    between atoms: C_12  and  C_25
REMARK    7  A    between atoms: C_14  and  C_15
REMARK    8  A    between atoms: N_27  and  C_28
REMARK    9  A    between atoms: C_28  and  C_29
REMARK                            x       y       z     vdW  Elec       q    Type
REMARK                         _______ _______ _______ _____ _____    ______ ____
ROOT
ATOM      1  C   UNL     1       4.175   0.620   1.402  0.00  0.00    +0.166 C 
ENDROOT
BRANCH   1   4
ATOM      2  C   UNL     1       2.648   2.152   2.523  0.00  0.00    +0.401 C 
ATOM      3  O   UNL     1       1.832   1.253   2.576  0.00  0.00    -0.226 OA
ATOM      4  N   UNL     1       3.851   1.937   1.955  0.00  0.00    -0.269 N 
ATOM      5  H   UNL     1       4.590   2.751   1.907  0.00  0.00    +0.153 HD
BRANCH   2   6
ATOM      6  O   UNL     1       2.350   3.362   3.032  0.00  0.00    -0.446 OA
BRANCH   6   7
ATOM      7  C   UNL     1       1.036   3.521   3.628  0.00  0.00    +0.269 C 
BRANCH   7  11
ATOM      8  C   UNL     1       0.605   7.516   5.079  0.00  0.00    +0.000 A 
ATOM      9  C   UNL     1       0.234   7.207   3.784  0.00  0.00    +0.000 A 
ATOM     10  C   UNL     1       0.374   5.915   3.314  0.00  0.00    +0.007 A 
ATOM     11  C   UNL     1       0.884   4.931   4.140  0.00  0.00    -0.010 A 
ATOM     12  C   UNL     1       1.249   5.238   5.437  0.00  0.00    +0.007 A 
ATOM     13  C   UNL     1       1.114   6.532   5.905  0.00  0.00    +0.000 A 
ENDBRANCH   7  11
ENDBRANCH   6   7
ENDBRANCH   2   6
ENDBRANCH   1   4
BRANCH   1  14
ATOM     14  C   UNL     1       5.670   0.430   1.398  0.00  0.00    +0.234 C 
ATOM     15  O   UNL     1       6.394   1.309   1.817  0.00  0.00    -0.274 OA
ATOM     16  N   UNL     1       6.203  -0.716   0.930  0.00  0.00    -0.307 N 
ATOM     17  H   UNL     1       5.547  -1.512   0.550  0.00  0.00    +0.149 HD
BRANCH  16  18
ATOM     18  C   UNL     1       7.657  -0.900   0.926  0.00  0.00    +0.181 C 
BRANCH  18  19
ATOM     19  C   UNL     1       7.990  -2.255   0.357  0.00  0.00    +0.155 A 
ATOM     20  N   UNL     1       8.212  -2.531  -0.902  0.00  0.00    -0.132 NA
ATOM     21  N   UNL     1       8.469  -3.784  -1.046  0.00  0.00    -0.129 NA
ATOM     22  C   UNL     1       8.423  -4.381   0.134  0.00  0.00    +0.161 A 
ATOM     23  N   UNL     1       8.120  -3.413   1.059  0.00  0.00    -0.285 N 
ATOM     24  C   UNL     1       7.997  -3.732   2.379  0.00  0.00    +0.094 A 
ATOM     25  C   UNL     1       8.182  -5.002   2.797  0.00  0.00    +0.018 A 
ATOM     26  C   UNL     1       8.499  -6.014   1.875  0.00  0.00    +0.005 A 
ATOM     27  C   UNL     1       8.619  -5.711   0.555  0.00  0.00    +0.048 A 
ENDBRANCH  18  19
ENDBRANCH  16  18
ENDBRANCH   1  14
BRANCH   1  28
ATOM     28  C   UNL     1       3.646   0.524  -0.031  0.00  0.00    +0.069 C 
BRANCH  28  29
ATOM     29  C   UNL     1       2.140   0.591  -0.015  0.00  0.00    -0.020 A 
ATOM     30  C   UNL     1       1.295  -0.452  -0.013  0.00  0.00    +0.087 A 
ATOM     31  N   UNL     1       0.002  -0.004   0.002  0.00  0.00    -0.360 N 
ATOM     32  H   UNL     1      -0.829  -0.724   0.006  0.00  0.00    +0.165 HD
ATOM     33  C   UNL     1      -0.017   1.373   0.010  0.00  0.00    +0.047 A 
ATOM     34  C   UNL     1       1.322   1.806  -0.001  0.00  0.00    +0.003 A 
ATOM     35  C   UNL     1       1.612   3.171   0.004  0.00  0.00    +0.010 A 
ATOM     36  C   UNL     1       0.593   4.082   0.019  0.00  0.00    +0.001 A 
ATOM     37  C   UNL     1      -0.729   3.659   0.029  0.00  0.00    +0.002 A 
ATOM     38  C   UNL     1      -1.038   2.317   0.029  0.00  0.00    +0.026 A 
ENDBRANCH  28  29
ENDBRANCH   1  28
TORSDOF 9
