REMARK  Name = ZINC64152421
REMARK  6 active torsions:
REMARK  status: ('A' for Active; 'I' for Inactive)
REMARK    1  A    between atoms: C_1  and  C_2
REMARK    2  A    between atoms: C_7  and  C_8
REMARK    3  A    between atoms: C_11  and  C_15
REMARK    4  A    between atoms: C_12  and  C_14
REMARK    5  A    between atoms: C_15  and  N_16
REMARK    6  A    between atoms: C_21  and  C_23
REMARK                            x       y       z     vdW  Elec       q    Type
REMARK                         _______ _______ _______ _____ _____    ______ ____
ROOT
ATOM      1  N   UNL     1       0.738  -2.631   5.768  0.00  0.00    -0.290 NA
ATOM      2  C   UNL     1       2.054  -2.014   5.560  0.00  0.00    +0.085 C 
ATOM      3  C   UNL     1       3.144  -3.081   5.681  0.00  0.00    +0.015 C 
ATOM      4  C   UNL     1       3.073  -3.720   7.071  0.00  0.00    +0.003 C 
ATOM      5  C   UNL     1       1.677  -4.313   7.281  0.00  0.00    +0.023 C 
ATOM      6  C   UNL     1       0.629  -3.210   7.113  0.00  0.00    +0.100 C 
ENDROOT
BRANCH   6   7
ATOM      7  C   UNL     1      -0.769  -3.801   7.303  0.00  0.00    +0.192 C 
ATOM      8  N   UNL     1      -0.857  -4.480   8.602  0.00  0.00    -0.362 N 
ATOM      9  C   UNL     1      -1.129  -5.732   8.371  0.00  0.00    +0.060 A 
ATOM     10  C   UNL     1      -1.334  -6.889   9.253  0.00  0.00    +0.027 A 
ATOM     11  C   UNL     1      -1.608  -8.094   8.716  0.00  0.00    +0.002 A 
ATOM     12  C   UNL     1      -1.708  -8.301   7.329  0.00  0.00    +0.002 A 
ATOM     13  C   UNL     1      -1.537  -7.309   6.432  0.00  0.00    +0.027 A 
ATOM     14  C   UNL     1      -1.235  -5.951   6.902  0.00  0.00    +0.060 A 
ATOM     15  N   UNL     1      -1.025  -4.826   6.282  0.00  0.00    -0.362 N 
ATOM     16  H   UNL     1      -0.735  -4.070   9.473  0.00  0.00    +0.162 HD
ATOM     17  H   UNL     1      -1.036  -4.689   5.322  0.00  0.00    +0.162 HD
ENDBRANCH   6   7
BRANCH   1  18
ATOM     18  C   UNL     1      -0.341  -1.664   5.523  0.00  0.00    +0.138 C 
BRANCH  18  21
ATOM     19  C   UNL     1      -0.088  -1.373   1.823  0.00  0.00    +0.267 C 
ATOM     20  N   UNL     1       0.305  -1.895   3.137  0.00  0.00    -0.253 NA
ATOM     21  C   UNL     1      -0.435  -1.380   4.046  0.00  0.00    +0.059 C 
ATOM     22  C   UNL     1      -1.420  -0.439   3.388  0.00  0.00    +0.163 C 
ATOM     23  O   UNL     1      -1.399  -0.800   1.991  0.00  0.00    -0.342 OA
ATOM     24  C   UNL     1      -2.820  -0.641   3.970  0.00  0.00    +0.044 C 
BRANCH  19  31
ATOM     25  C   UNL     1      -0.270  -0.767  -0.996  0.00  0.00    +0.044 C 
ATOM     26  C   UNL     1      -0.223  -2.201  -0.534  0.00  0.00    -0.043 A 
ATOM     27  C   UNL     1      -0.261  -3.227  -1.461  0.00  0.00    +0.004 A 
ATOM     28  C   UNL     1      -0.218  -4.542  -1.038  0.00  0.00    +0.000 A 
ATOM     29  C   UNL     1      -0.136  -4.832   0.312  0.00  0.00    +0.000 A 
ATOM     30  C   UNL     1      -0.097  -3.806   1.238  0.00  0.00    +0.008 A 
ATOM     31  C   UNL     1      -0.136  -2.491   0.814  0.00  0.00    +0.006 A 
ENDBRANCH  19  31
ENDBRANCH  18  21
ENDBRANCH   1  18
TORSDOF 4
