REMARK  Name = ZINC45549360
REMARK  8 active torsions:
REMARK  status: ('A' for Active; 'I' for Inactive)
REMARK    1  A    between atoms: C_1  and  C_2
REMARK    2  A    between atoms: C_2  and  O_3
REMARK    3  A    between atoms: O_3  and  C_4
REMARK    4  A    between atoms: C_4  and  C_6
REMARK    5  A    between atoms: C_7  and  C_19
REMARK    6  A    between atoms: C_12  and  C_14
REMARK    7  A    between atoms: C_19  and  N_20
REMARK    8  A    between atoms: C_28  and  C_31
REMARK                            x       y       z     vdW  Elec       q    Type
REMARK                         _______ _______ _______ _____ _____    ______ ____
ROOT
ATOM      1  C   UNL     1       1.349  -2.336  -2.519  0.00  0.00    +0.082 C 
ATOM      2  C   UNL     1       1.628  -3.654  -2.615  0.00  0.00    +0.038 C 
ATOM      3  N   UNL     1       2.333  -4.150  -3.674  0.00  0.00    -0.271 N 
ATOM      4  C   UNL     1       2.795  -3.394  -4.678  0.00  0.00    +0.304 C 
ATOM      5  O   UNL     1       3.414  -3.926  -5.578  0.00  0.00    -0.252 OA
ATOM      6  N   UNL     1       2.596  -2.062  -4.722  0.00  0.00    -0.285 N 
ATOM      7  C   UNL     1       1.840  -1.429  -3.629  0.00  0.00    +0.179 C 
ATOM      8  H   UNL     1       2.510  -5.104  -3.700  0.00  0.00    +0.156 HD
ATOM      9  H   UNL     1       2.940  -1.533  -5.459  0.00  0.00    +0.151 HD
ENDROOT
BRANCH   7  10
ATOM     10  C   UNL     1       0.643  -0.735  -4.226  0.00  0.00    +0.130 A 
ATOM     11  C   UNL     1       0.247   0.522  -3.957  0.00  0.00    +0.047 A 
ATOM     12  C   UNL     1      -0.912   0.761  -4.731  0.00  0.00    +0.041 A 
ATOM     13  C   UNL     1      -1.155  -0.365  -5.427  0.00  0.00    +0.195 A 
ATOM     14  O   UNL     1      -0.206  -1.265  -5.121  0.00  0.00    -0.466 OA
ENDBRANCH   7  10
BRANCH   1  15
ATOM     15  C   UNL     1       0.618  -1.822  -1.423  0.00  0.00    +0.339 C 
ATOM     16  O   UNL     1      -0.570  -1.583  -1.542  0.00  0.00    -0.245 OA
BRANCH  15  17
ATOM     17  O   UNL     1       1.237  -1.595  -0.245  0.00  0.00    -0.462 OA
BRANCH  17  19
ATOM     18  C   UNL     1       1.306  -0.885   2.063  0.00  0.00    +0.048 C 
ATOM     19  C   UNL     1       0.437  -1.075   0.818  0.00  0.00    +0.229 C 
ENDBRANCH  17  19
ENDBRANCH  15  17
ENDBRANCH   1  15
BRANCH   2  20
ATOM     20  C   UNL     1       1.153  -4.593  -1.536  0.00  0.00    +0.136 C 
BRANCH  20  21
ATOM     21  N   UNL     1       0.182  -5.539  -2.102  0.00  0.00    -0.292 NA
ATOM     22  C   UNL     1      -1.049  -4.851  -2.504  0.00  0.00    +0.120 C 
ATOM     23  C   UNL     1      -2.072  -5.843  -2.991  0.00  0.00    -0.030 A 
ATOM     24  C   UNL     1      -3.136  -5.376  -3.749  0.00  0.00    +0.005 A 
ATOM     25  C   UNL     1      -4.099  -6.250  -4.213  0.00  0.00    +0.000 A 
ATOM     26  C   UNL     1      -4.003  -7.598  -3.921  0.00  0.00    +0.000 A 
ATOM     27  C   UNL     1      -2.945  -8.064  -3.169  0.00  0.00    +0.004 A 
ATOM     28  C   UNL     1      -1.975  -7.188  -2.704  0.00  0.00    -0.034 A 
ATOM     29  C   UNL     1      -0.831  -7.744  -1.896  0.00  0.00    +0.063 C 
ATOM     30  C   UNL     1      -0.125  -6.615  -1.146  0.00  0.00    +0.098 C 
BRANCH  29  31
ATOM     31  C   UNL     1      -1.361  -8.747  -0.904  0.00  0.00    -0.039 A 
ATOM     32  C   UNL     1      -2.289  -8.357   0.044  0.00  0.00    +0.004 A 
ATOM     33  C   UNL     1      -2.775  -9.277   0.955  0.00  0.00    +0.000 A 
ATOM     34  C   UNL     1      -2.333 -10.586   0.917  0.00  0.00    +0.000 A 
ATOM     35  C   UNL     1      -1.406 -10.976  -0.031  0.00  0.00    +0.000 A 
ATOM     36  C   UNL     1      -0.923 -10.057  -0.944  0.00  0.00    +0.004 A 
ENDBRANCH  29  31
ENDBRANCH  20  21
ENDBRANCH   2  20
TORSDOF 7
