REMARK  Name = ZINC21248496
REMARK  12 active torsions:
REMARK  status: ('A' for Active; 'I' for Inactive)
REMARK    1  A    between atoms: C_1  and  C_2
REMARK    2  A    between atoms: C_2  and  O_3
REMARK    3  A    between atoms: O_3  and  C_4
REMARK    4  A    between atoms: C_7  and  C_10
REMARK    5  A    between atoms: C_15  and  C_25
REMARK    6  A    between atoms: C_28  and  O_34
REMARK    7  A    between atoms: C_29  and  O_31
REMARK    8  A    between atoms: O_31  and  C_32
REMARK    9  A    between atoms: C_32  and  C_33
REMARK   10  A    between atoms: O_34  and  C_35
REMARK   11  A    between atoms: C_35  and  C_36
REMARK   12  A    between atoms: C_35  and  C_37
REMARK                            x       y       z     vdW  Elec       q    Type
REMARK                         _______ _______ _______ _____ _____    ______ ____
ROOT
ATOM      1  C   UNL     1      -2.709   1.253  -4.951  0.00  0.00    +0.032 C 
ATOM      2  C   UNL     1      -3.284   0.024  -4.249  0.00  0.00    +0.059 C 
ATOM      3  C   UNL     1      -3.030   0.114  -2.754  0.00  0.00    +0.017 C 
ATOM      4  C   UNL     1      -2.995   1.308  -2.137  0.00  0.00    +0.036 C 
ATOM      5  C   UNL     1      -2.766   1.537  -0.663  0.00  0.00    +0.136 C 
ATOM      6  N   UNL     1      -2.834   0.342   0.150  0.00  0.00    -0.331 N 
ATOM      7  C   UNL     1      -1.902  -0.683  -0.003  0.00  0.00    +0.049 A 
ATOM      8  C   UNL     1      -1.018  -1.016   1.011  0.00  0.00    +0.025 A 
ATOM      9  C   UNL     1      -0.079  -2.010   0.794  0.00  0.00    +0.002 A 
ATOM     10  C   UNL     1      -0.020  -2.665  -0.423  0.00  0.00    +0.002 A 
ATOM     11  C   UNL     1      -0.915  -2.347  -1.431  0.00  0.00    +0.025 A 
ATOM     12  C   UNL     1      -1.868  -1.369  -1.208  0.00  0.00    +0.052 A 
ATOM     13  N   UNL     1      -2.867  -1.081  -2.131  0.00  0.00    -0.316 N 
ATOM     14  C   UNL     1      -3.180   2.498  -2.881  0.00  0.00    +0.163 C 
ATOM     15  O   UNL     1      -3.162   3.563  -2.296  0.00  0.00    -0.292 OA
ATOM     16  C   UNL     1      -3.398   2.491  -4.364  0.00  0.00    +0.088 C 
ATOM     17  H   UNL     1      -3.629   0.233   0.903  0.00  0.00    +0.147 HD
ATOM     18  H   UNL     1      -3.556  -1.911  -2.344  0.00  0.00    +0.152 HD
ENDROOT
BRANCH   1  22
ATOM     19  C   UNL     1      -3.486   1.019  -9.147  0.00  0.00    +0.121 A 
ATOM     20  C   UNL     1      -2.179   1.082  -8.685  0.00  0.00    +0.046 A 
ATOM     21  C   UNL     1      -1.931   1.157  -7.328  0.00  0.00    +0.007 A 
ATOM     22  C   UNL     1      -2.983   1.170  -6.431  0.00  0.00    -0.043 A 
ATOM     23  C   UNL     1      -4.286   1.102  -6.889  0.00  0.00    +0.007 A 
ATOM     24  C   UNL     1      -4.540   1.032  -8.245  0.00  0.00    +0.046 A 
BRANCH  19  25
ATOM     25  O   UNL     1      -3.733   0.944 -10.481  0.00  0.00    -0.492 OA
BRANCH  25  27
ATOM     26  C   UNL     1      -5.181   0.803 -12.411  0.00  0.00    +0.048 C 
ATOM     27  C   UNL     1      -5.103   0.882 -10.885  0.00  0.00    +0.225 C 
ENDBRANCH  25  27
ENDBRANCH  19  25
ENDBRANCH   1  22
BRANCH   5  28
ATOM     28  C   UNL     1      -1.406   2.160  -0.483  0.00  0.00    -0.019 A 
ATOM     29  C   UNL     1      -0.270   1.443  -0.809  0.00  0.00    +0.009 A 
ATOM     30  C   UNL     1       0.980   2.013  -0.651  0.00  0.00    +0.050 A 
ATOM     31  C   UNL     1       1.096   3.303  -0.160  0.00  0.00    +0.162 A 
ATOM     32  C   UNL     1      -0.047   4.023   0.174  0.00  0.00    +0.162 A 
ATOM     33  C   UNL     1      -1.297   3.446   0.014  0.00  0.00    +0.055 A 
BRANCH  32  34
ATOM     34  O   UNL     1       0.062   5.290   0.656  0.00  0.00    -0.489 OA
BRANCH  34  35
ATOM     35  C   UNL     1      -1.154   5.968   0.978  0.00  0.00    +0.226 C 
ATOM     36  C   UNL     1      -0.833   7.370   1.502  0.00  0.00    +0.048 C 
ENDBRANCH  34  35
ENDBRANCH  32  34
BRANCH  31  37
ATOM     37  O   UNL     1       2.325   3.865  -0.004  0.00  0.00    -0.486 OA
BRANCH  37  38
ATOM     38  C   UNL     1       3.457   3.030  -0.256  0.00  0.00    +0.167 C 
ATOM     39  C   UNL     1       3.781   3.046  -1.751  0.00  0.00    +0.051 C 
ATOM     40  C   UNL     1       4.660   3.550   0.532  0.00  0.00    +0.051 C 
ENDBRANCH  37  38
ENDBRANCH  31  37
ENDBRANCH   5  28
TORSDOF 8
