REMARK  Name = ZINC09916371
REMARK  7 active torsions:
REMARK  status: ('A' for Active; 'I' for Inactive)
REMARK    1  A    between atoms: C_1  and  C_2
REMARK    2  A    between atoms: C_9  and  C_14
REMARK    3  A    between atoms: N_16  and  C_17
REMARK    4  A    between atoms: C_17  and  C_18
REMARK    5  A    between atoms: C_18  and  N_19
REMARK    6  A    between atoms: N_19  and  C_20
REMARK    7  A    between atoms: C_25  and  N_26
REMARK                            x       y       z     vdW  Elec       q    Type
REMARK                         _______ _______ _______ _____ _____    ______ ____
ROOT
ATOM      1  C   UNL     1      -0.273  -6.803   0.311  0.00  0.00    +0.244 C 
ATOM      2  O   UNL     1      -1.346  -7.158  -0.138  0.00  0.00    -0.270 OA
ATOM      3  N   UNL     1       0.460  -7.654   1.057  0.00  0.00    -0.310 N 
ATOM      4  H   UNL     1       1.316  -7.370   1.415  0.00  0.00    +0.149 HD
ENDROOT
BRANCH   1  12
ATOM      5  C   UNL     1       1.104   0.594  -2.717  0.00  0.00    +0.029 C 
ATOM      6  C   UNL     1       1.034  -0.910  -2.441  0.00  0.00    +0.134 C 
ATOM      7  C   UNL     1      -0.403  -1.354  -2.431  0.00  0.00    +0.230 C 
ATOM      8  O   UNL     1      -1.208  -0.706  -3.067  0.00  0.00    -0.274 OA
ATOM      9  N   UNL     1      -0.841  -2.419  -1.765  0.00  0.00    -0.284 N 
ATOM     10  C   UNL     1      -0.068  -3.284  -0.995  0.00  0.00    +0.048 A 
ATOM     11  C   UNL     1      -0.533  -4.563  -0.736  0.00  0.00    +0.037 A 
ATOM     12  C   UNL     1       0.227  -5.443   0.038  0.00  0.00    +0.039 A 
ATOM     13  C   UNL     1       1.461  -5.036   0.555  0.00  0.00    +0.014 A 
ATOM     14  C   UNL     1       1.926  -3.766   0.297  0.00  0.00    +0.017 A 
ATOM     15  C   UNL     1       1.171  -2.892  -0.475  0.00  0.00    +0.030 A 
ATOM     16  S   UNL     1       1.772  -1.267  -0.818  0.00  0.00    -0.111 S 
ATOM     17  H   UNL     1      -1.790  -2.611  -1.820  0.00  0.00    +0.155 HD
ENDBRANCH   1  12
BRANCH   3  18
ATOM     18  C   UNL     1      -0.036  -9.005   1.328  0.00  0.00    +0.123 C 
BRANCH  18  19
ATOM     19  C   UNL     1       0.978  -9.758   2.191  0.00  0.00    +0.120 C 
BRANCH  19  20
ATOM     20  N   UNL     1       0.482 -11.109   2.462  0.00  0.00    -0.341 N 
ATOM     21  H   UNL     1      -0.374 -11.392   2.104  0.00  0.00    +0.146 HD
BRANCH  20  22
ATOM     22  C   UNL     1       1.241 -11.990   3.236  0.00  0.00    +0.058 A 
ATOM     23  C   UNL     1       2.519 -11.631   3.647  0.00  0.00    +0.025 A 
ATOM     24  C   UNL     1       3.267 -12.505   4.412  0.00  0.00    +0.002 A 
ATOM     25  C   UNL     1       2.745 -13.735   4.769  0.00  0.00    +0.002 A 
ATOM     26  C   UNL     1       1.474 -14.095   4.361  0.00  0.00    +0.034 A 
ATOM     27  C   UNL     1       0.718 -13.224   3.600  0.00  0.00    +0.147 A 
BRANCH  27  28
ATOM     28  N   UNL     1      -0.645 -13.608   3.169  0.00  0.00    +0.058 N 
ATOM     29  O   UNL     1      -1.524 -12.778   3.135  0.00  0.00    -0.126 OA
ATOM     30  O   UNL     1      -0.879 -14.750   2.852  0.00  0.00    -0.126 OA
ENDBRANCH  27  28
ENDBRANCH  20  22
ENDBRANCH  19  20
ENDBRANCH  18  19
ENDBRANCH   3  18
TORSDOF 6
