REMARK  Name = ZINC67172431
REMARK  7 active torsions:
REMARK  status: ('A' for Active; 'I' for Inactive)
REMARK    1  A    between atoms: C_1  and  C_2
REMARK    2  A    between atoms: C_7  and  C_8
REMARK    3  A    between atoms: C_11  and  O_14
REMARK    4  A    between atoms: O_14  and  C_15
REMARK    5  A    between atoms: C_19  and  C_25
REMARK    6  A    between atoms: C_28  and  O_31
REMARK    7  A    between atoms: O_31  and  C_32
REMARK                            x       y       z     vdW  Elec       q    Type
REMARK                         _______ _______ _______ _____ _____    ______ ____
ROOT
ATOM      1  C   UNL     1       0.202   1.650  -0.668  0.00  0.00    +0.109 C 
ATOM      2  C   UNL     1       0.253   0.145  -0.611  0.00  0.00    +0.213 C 
ATOM      3  O   UNL     1       1.309  -0.432  -0.758  0.00  0.00    -0.276 OA
ATOM      4  N   UNL     1      -0.876  -0.560  -0.397  0.00  0.00    -0.293 N 
ATOM      5  C   UNL     1      -2.176   0.116  -0.221  0.00  0.00    +0.145 C 
ATOM      6  C   UNL     1      -3.091  -0.452  -1.285  0.00  0.00    -0.008 C 
ATOM      7  C   UNL     1      -3.981   0.332  -1.919  0.00  0.00    +0.015 C 
ATOM      8  C   UNL     1      -2.982  -1.888  -1.610  0.00  0.00    +0.040 C 
ATOM      9  C   UNL     1      -1.951  -2.619  -1.182  0.00  0.00    -0.006 C 
ATOM     10  C   UNL     1      -0.855  -2.022  -0.337  0.00  0.00    +0.143 C 
ATOM     11  C   UNL     1      -1.839  -4.081  -1.532  0.00  0.00    +0.132 C 
ATOM     12  N   UNL     1      -2.952  -4.548  -2.338  0.00  0.00    -0.316 N 
ATOM     13  C   UNL     1      -3.961  -3.757  -2.723  0.00  0.00    +0.135 C 
ATOM     14  S   UNL     1      -5.229  -4.414  -3.668  0.00  0.00    -0.019 S 
ATOM     15  N   UNL     1      -3.998  -2.461  -2.384  0.00  0.00    -0.297 N 
ATOM     16  H   UNL     1      -2.966  -5.479  -2.610  0.00  0.00    +0.149 HD
ATOM     17  H   UNL     1      -4.741  -1.911  -2.679  0.00  0.00    +0.154 HD
ENDROOT
BRANCH   7  18
ATOM     18  C   UNL     1      -4.192   1.718  -1.470  0.00  0.00    -0.024 A 
ATOM     19  C   UNL     1      -4.524   2.713  -2.395  0.00  0.00    +0.011 A 
ATOM     20  C   UNL     1      -4.721   4.008  -1.970  0.00  0.00    +0.046 A 
ATOM     21  C   UNL     1      -4.590   4.328  -0.624  0.00  0.00    +0.120 A 
ATOM     22  C   UNL     1      -4.259   3.343   0.299  0.00  0.00    +0.046 A 
ATOM     23  C   UNL     1      -4.067   2.044  -0.116  0.00  0.00    +0.011 A 
BRANCH  21  24
ATOM     24  O   UNL     1      -4.784   5.607  -0.210  0.00  0.00    -0.495 OA
ATOM     25  C   UNL     1      -4.632   5.866   1.187  0.00  0.00    +0.277 C 
ENDBRANCH  21  24
ENDBRANCH   7  18
BRANCH  11  26
ATOM     26  C   UNL     1      -0.560  -4.302  -2.298  0.00  0.00    -0.023 A 
ATOM     27  C   UNL     1      -0.501  -3.996  -3.646  0.00  0.00    +0.009 A 
ATOM     28  C   UNL     1       0.670  -4.198  -4.350  0.00  0.00    +0.046 A 
ATOM     29  C   UNL     1       1.788  -4.707  -3.704  0.00  0.00    +0.120 A 
ATOM     30  C   UNL     1       1.726  -5.013  -2.353  0.00  0.00    +0.046 A 
ATOM     31  C   UNL     1       0.554  -4.804  -1.651  0.00  0.00    +0.009 A 
BRANCH  29  32
ATOM     32  O   UNL     1       2.941  -4.907  -4.395  0.00  0.00    -0.495 OA
ATOM     33  C   UNL     1       4.051  -5.435  -3.666  0.00  0.00    +0.277 C 
ENDBRANCH  29  32
ENDBRANCH  11  26
TORSDOF 4
