REMARK  Name = ZINC05235048
REMARK  10 active torsions:
REMARK  status: ('A' for Active; 'I' for Inactive)
REMARK    1  A    between atoms: C_1  and  C_2
REMARK    2  A    between atoms: C_2  and  O_3
REMARK    3  A    between atoms: O_3  and  C_4
REMARK    4  A    between atoms: C_9  and  S_10
REMARK    5  A    between atoms: S_10  and  N_13
REMARK    6  A    between atoms: N_13  and  C_14
REMARK    7  A    between atoms: C_16  and  C_21
REMARK    8  A    between atoms: C_16  and  C_22
REMARK    9  A    between atoms: C_17  and  C_19
REMARK   10  A    between atoms: C_17  and  C_20
REMARK                            x       y       z     vdW  Elec       q    Type
REMARK                         _______ _______ _______ _____ _____    ______ ____
ROOT
ATOM      1  N   UNL     1      -4.779   0.982  -0.390  0.00  0.00    -0.187 NA
ATOM      2  H   UNL     1      -5.636   1.353  -0.654  0.00  0.00    +0.148 HD
ENDROOT
BRANCH   1   3
ATOM      3  C   UNL     1      -3.546   1.448  -1.037  0.00  0.00    +0.074 C 
ATOM      4  C   UNL     1      -3.090   2.747  -0.373  0.00  0.00    +0.007 C 
ATOM      5  C   UNL     1      -1.819   3.266  -1.041  0.00  0.00    -0.072 C 
ATOM      6  C   UNL     1      -2.567   2.239  -3.207  0.00  0.00    -0.072 C 
ATOM      7  C   UNL     1      -3.828   1.730  -2.513  0.00  0.00    +0.007 C 
ATOM      8  C   UNL     1      -1.604   1.069  -3.443  0.00  0.00    -0.010 C 
ATOM      9  C   UNL     1      -2.985   2.774  -4.595  0.00  0.00    -0.010 C 
ATOM     10  C   UNL     1      -0.622   2.417  -0.595  0.00  0.00    -0.010 C 
ATOM     11  C   UNL     1      -1.577   4.703  -0.527  0.00  0.00    -0.010 C 
ATOM     12  N   UNL     1      -1.889   3.373  -2.523  0.00  0.00    +0.386 N 
ATOM     13  H   UNL     1      -0.929   3.433  -2.883  0.00  0.00    -0.084 HD
ATOM     14  H   UNL     1      -2.397   4.234  -2.756  0.00  0.00    -0.084 HD
ENDBRANCH   1   3
BRANCH   1  15
ATOM     15  S   UNL     1      -4.708  -0.178   0.789  0.00  0.00    +0.062 S 
ATOM     16  O   UNL     1      -6.048  -0.441   1.182  0.00  0.00    -0.153 OA
ATOM     17  O   UNL     1      -3.712   0.241   1.712  0.00  0.00    -0.153 OA
BRANCH  15  23
ATOM     18  C   UNL     1      -4.864  -2.297  -0.931  0.00  0.00    +0.148 A 
ATOM     19  C   UNL     1      -4.386  -3.455  -1.528  0.00  0.00    +0.063 A 
ATOM     20  C   UNL     1      -3.157  -3.965  -1.155  0.00  0.00    +0.021 A 
ATOM     21  C   UNL     1      -2.405  -3.323  -0.187  0.00  0.00    +0.017 A 
ATOM     22  C   UNL     1      -2.880  -2.169   0.408  0.00  0.00    +0.033 A 
ATOM     23  C   UNL     1      -4.106  -1.652   0.034  0.00  0.00    +0.147 A 
ATOM     24 BR   UNL     1      -2.503  -5.543  -1.967  0.00  0.00    -0.050 Br
BRANCH  18  25
ATOM     25  O   UNL     1      -6.072  -1.793  -1.297  0.00  0.00    -0.490 OA
BRANCH  25  27
ATOM     26  C   UNL     1      -8.121  -1.800  -2.579  0.00  0.00    +0.048 C 
ATOM     27  C   UNL     1      -6.845  -2.563  -2.219  0.00  0.00    +0.226 C 
ENDBRANCH  25  27
ENDBRANCH  18  25
ENDBRANCH  15  23
ENDBRANCH   1  15
TORSDOF 5
