REMARK  Name = ZINC17373780
REMARK  9 active torsions:
REMARK  status: ('A' for Active; 'I' for Inactive)
REMARK    1  A    between atoms: C_1  and  C_2
REMARK    2  A    between atoms: C_5  and  C_8
REMARK    3  A    between atoms: N_12  and  C_16
REMARK    4  A    between atoms: C_16  and  C_17
REMARK    5  A    between atoms: C_17  and  C_18
REMARK    6  A    between atoms: C_18  and  C_19
REMARK    7  A    between atoms: N_21  and  N_22
REMARK    8  A    between atoms: C_23  and  C_25
REMARK    9  A    between atoms: C_29  and  N_31
REMARK                            x       y       z     vdW  Elec       q    Type
REMARK                         _______ _______ _______ _____ _____    ______ ____
ROOT
ATOM      1  C   UNL     1       3.375   8.148   0.239  0.00  0.00    +0.099 C 
ENDROOT
BRANCH   1   2
ATOM      2  C   UNL     1       3.800   6.703   0.284  0.00  0.00    +0.229 C 
ATOM      3  O   UNL     1       4.979   6.417   0.277  0.00  0.00    -0.274 OA
ATOM      4  N   UNL     1       2.870   5.729   0.334  0.00  0.00    -0.234 N 
ATOM      5  H   UNL     1       1.928   5.957   0.340  0.00  0.00    +0.173 HD
BRANCH   4   6
ATOM      6  N   UNL     1       3.265   4.385   0.376  0.00  0.00    -0.230 N 
ATOM      7  C   UNL     1       2.336   3.411   0.426  0.00  0.00    +0.260 C 
ATOM      8  O   UNL     1       1.155   3.697   0.434  0.00  0.00    -0.269 OA
ATOM      9  H   UNL     1       4.208   4.156   0.370  0.00  0.00    +0.173 HD
BRANCH   7  10
ATOM     10  C   UNL     1       2.753   1.993   0.470  0.00  0.00    +0.040 A 
ATOM     11  C   UNL     1       4.108   1.660   0.461  0.00  0.00    +0.013 A 
ATOM     12  C   UNL     1       4.490   0.336   0.503  0.00  0.00    +0.003 A 
ATOM     13  C   UNL     1       3.533  -0.663   0.553  0.00  0.00    +0.033 A 
ATOM     14  C   UNL     1       2.188  -0.340   0.556  0.00  0.00    +0.127 A 
ATOM     15  C   UNL     1       1.792   0.981   0.521  0.00  0.00    +0.045 A 
BRANCH  14  16
ATOM     16  N   UNL     1       1.171  -1.414   0.603  0.00  0.00    +0.056 N 
ATOM     17  O   UNL     1       1.519  -2.581   0.638  0.00  0.00    -0.126 OA
ATOM     18  O   UNL     1      -0.014  -1.132   0.606  0.00  0.00    -0.126 OA
ENDBRANCH  14  16
ENDBRANCH   7  10
ENDBRANCH   4   6
ENDBRANCH   1   2
BRANCH   1  19
ATOM     19  C   UNL     1       4.615   9.043   0.187  0.00  0.00    +0.029 C 
BRANCH  19  20
ATOM     20  C   UNL     1       4.184  10.510   0.141  0.00  0.00    +0.115 C 
BRANCH  20  25
ATOM     21  C   UNL     1       7.864  13.217   2.077  0.00  0.00    +0.028 C 
ATOM     22  C   UNL     1       7.108  12.648   1.105  0.00  0.00    +0.077 C 
ATOM     23  C   UNL     1       5.910  11.790   1.223  0.00  0.00    +0.258 C 
ATOM     24  O   UNL     1       5.445  11.487   2.306  0.00  0.00    -0.269 OA
ATOM     25  N   UNL     1       5.371  11.367   0.092  0.00  0.00    -0.255 N 
ATOM     26  C   UNL     1       5.887  11.710  -1.106  0.00  0.00    +0.121 C 
ATOM     27  S   UNL     1       5.334  11.272  -2.666  0.00  0.00    -0.027 S 
ATOM     28  S   UNL     1       7.285  12.732  -0.672  0.00  0.00    -0.061 S 
BRANCH  21  33
ATOM     29  C   UNL     1       6.141  12.997   7.556  0.00  0.00    +0.044 C 
ATOM     30  C   UNL     1       6.593  13.055   6.119  0.00  0.00    -0.050 A 
ATOM     31  C   UNL     1       7.934  12.907   5.813  0.00  0.00    +0.004 A 
ATOM     32  C   UNL     1       8.356  12.959   4.501  0.00  0.00    +0.008 A 
ATOM     33  C   UNL     1       7.423  13.161   3.478  0.00  0.00    -0.024 A 
ATOM     34  C   UNL     1       6.069  13.314   3.796  0.00  0.00    +0.008 A 
ATOM     35  C   UNL     1       5.663  13.254   5.113  0.00  0.00    +0.004 A 
ENDBRANCH  21  33
ENDBRANCH  20  25
ENDBRANCH  19  20
ENDBRANCH   1  19
TORSDOF 8
