REMARK  Name = ZINC09544593
REMARK  9 active torsions:
REMARK  status: ('A' for Active; 'I' for Inactive)
REMARK    1  A    between atoms: C_3  and  S_23
REMARK    2  A    between atoms: C_6  and  C_7
REMARK    3  A    between atoms: C_7  and  C_8
REMARK    4  A    between atoms: C_8  and  C_9
REMARK    5  A    between atoms: N_11  and  C_12
REMARK    6  A    between atoms: C_12  and  C_13
REMARK    7  A    between atoms: C_16  and  S_19
REMARK    8  A    between atoms: S_19  and  N_22
REMARK    9  A    between atoms: S_23  and  N_26
REMARK                            x       y       z     vdW  Elec       q    Type
REMARK                         _______ _______ _______ _____ _____    ______ ____
ROOT
ATOM      1  C   UNL     1      -0.997   1.758  -3.630  0.00  0.00    +0.100 C 
ENDROOT
BRANCH   1   2
ATOM      2  C   UNL     1      -0.268   1.258  -2.409  0.00  0.00    +0.214 C 
ATOM      3  O   UNL     1       0.726   0.575  -2.534  0.00  0.00    -0.276 OA
ATOM      4  N   UNL     1      -0.721   1.571  -1.179  0.00  0.00    -0.311 N 
ATOM      5  H   UNL     1      -1.516   2.118  -1.079  0.00  0.00    +0.149 HD
BRANCH   4   6
ATOM      6  C   UNL     1      -0.013   1.086   0.008  0.00  0.00    +0.139 C 
BRANCH   6   7
ATOM      7  C   UNL     1      -0.718   1.572   1.248  0.00  0.00    -0.030 A 
ATOM      8  C   UNL     1      -0.360   2.779   1.819  0.00  0.00    +0.007 A 
ATOM      9  C   UNL     1      -1.010   3.227   2.953  0.00  0.00    +0.029 A 
ATOM     10  C   UNL     1      -2.012   2.463   3.523  0.00  0.00    +0.105 A 
ATOM     11  C   UNL     1      -2.366   1.254   2.955  0.00  0.00    +0.029 A 
ATOM     12  C   UNL     1      -1.719   0.808   1.818  0.00  0.00    +0.007 A 
BRANCH  10  13
ATOM     13  S   UNL     1      -2.837   3.032   4.972  0.00  0.00    +0.056 S 
ATOM     14  O   UNL     1      -2.695   4.446   4.992  0.00  0.00    -0.153 OA
ATOM     15  O   UNL     1      -4.107   2.394   4.993  0.00  0.00    -0.153 OA
BRANCH  13  16
ATOM     16  N   UNL     1      -1.995   2.453   6.274  0.00  0.00    -0.204 NA
ATOM     17  H   UNL     1      -1.981   2.954   7.105  0.00  0.00    +0.144 HD
ATOM     18  H   UNL     1      -1.514   1.613   6.207  0.00  0.00    +0.144 HD
ENDBRANCH  13  16
ENDBRANCH  10  13
ENDBRANCH   6   7
ENDBRANCH   4   6
ENDBRANCH   1   2
BRANCH   1  19
ATOM     19  C   UNL     1      -0.281   1.264  -4.889  0.00  0.00    +0.044 C 
BRANCH  19  25
ATOM     20  C   UNL     1      -2.018   1.003  -6.672  0.00  0.00    +0.005 A 
ATOM     21  C   UNL     1      -2.690   1.463  -7.789  0.00  0.00    +0.029 A 
ATOM     22  C   UNL     1      -2.347   2.679  -8.350  0.00  0.00    +0.105 A 
ATOM     23  C   UNL     1      -1.335   3.437  -7.791  0.00  0.00    +0.029 A 
ATOM     24  C   UNL     1      -0.666   2.979  -6.671  0.00  0.00    +0.005 A 
ATOM     25  C   UNL     1      -1.010   1.763  -6.110  0.00  0.00    -0.047 A 
BRANCH  22  26
ATOM     26  S   UNL     1      -3.200   3.263  -9.776  0.00  0.00    +0.061 S 
ATOM     27  O   UNL     1      -4.468   2.624  -9.781  0.00  0.00    -0.153 OA
ATOM     28  O   UNL     1      -3.059   4.677  -9.783  0.00  0.00    -0.153 OA
BRANCH  26  29
ATOM     29  N   UNL     1      -2.381   2.701 -11.101  0.00  0.00    -0.177 NA
ATOM     30  C   UNL     1      -1.299   3.492 -11.704  0.00  0.00    +0.109 C 
ATOM     31  C   UNL     1      -0.043   2.612 -11.794  0.00  0.00    +0.017 C 
ATOM     32  C   UNL     1      -0.380   1.327 -12.553  0.00  0.00    +0.003 C 
ATOM     33  C   UNL     1      -1.457   0.551 -11.793  0.00  0.00    +0.017 C 
ATOM     34  C   UNL     1      -2.726   1.404 -11.699  0.00  0.00    +0.109 C 
ENDBRANCH  26  29
ENDBRANCH  22  26
ENDBRANCH  19  25
ENDBRANCH   1  19
TORSDOF 9
