REMARK  Name = ZINC22735669
REMARK  7 active torsions:
REMARK  status: ('A' for Active; 'I' for Inactive)
REMARK    1  A    between atoms: C_1  and  N_2
REMARK    2  A    between atoms: C_9  and  C_11
REMARK    3  A    between atoms: C_11  and  C_13
REMARK    4  A    between atoms: C_11  and  N_28
REMARK    5  A    between atoms: C_13  and  N_14
REMARK    6  A    between atoms: N_14  and  S_15
REMARK    7  A    between atoms: S_15  and  C_18
REMARK                            x       y       z     vdW  Elec       q    Type
REMARK                         _______ _______ _______ _____ _____    ______ ____
ROOT
ATOM      1  C   UNL     1       5.275  -0.300  -3.832  0.00  0.00    +0.102 C 
ENDROOT
BRANCH   1  10
ATOM      2  C   UNL     1       5.521   5.308  -7.038  0.00  0.00    +0.129 C 
ATOM      3  N   UNL     1       6.513   4.226  -7.015  0.00  0.00    -0.332 N 
ATOM      4  C   UNL     1       7.776   4.678  -6.391  0.00  0.00    +0.109 C 
ATOM      5  C   UNL     1       8.315   3.382  -5.743  0.00  0.00    +0.056 C 
ATOM      6  C   UNL     1       7.056   2.569  -5.516  0.00  0.00    -0.025 A 
ATOM      7  C   UNL     1       6.042   3.128  -6.285  0.00  0.00    +0.033 A 
ATOM      8  C   UNL     1       4.769   2.561  -6.243  0.00  0.00    +0.024 A 
ATOM      9  C   UNL     1       4.527   1.457  -5.452  0.00  0.00    +0.007 A 
ATOM     10  C   UNL     1       5.544   0.906  -4.694  0.00  0.00    -0.029 A 
ATOM     11  C   UNL     1       6.808   1.468  -4.724  0.00  0.00    +0.010 A 
ENDBRANCH   1  10
BRANCH   1  12
ATOM     12  N   UNL     1       4.393  -1.229  -4.552  0.00  0.00    -0.290 NA
ATOM     13  C   UNL     1       4.003  -2.357  -3.694  0.00  0.00    +0.113 C 
ATOM     14  C   UNL     1       3.039  -3.266  -4.461  0.00  0.00    +0.175 C 
ATOM     15  O   UNL     1       3.663  -3.698  -5.673  0.00  0.00    -0.377 OA
ATOM     16  C   UNL     1       4.055  -2.625  -6.534  0.00  0.00    +0.175 C 
ATOM     17  C   UNL     1       5.029  -1.710  -5.787  0.00  0.00    +0.113 C 
ENDBRANCH   1  12
BRANCH   1  18
ATOM     18  C   UNL     1       4.599   0.142  -2.533  0.00  0.00    +0.129 C 
BRANCH  18  19
ATOM     19  N   UNL     1       5.502   1.022  -1.787  0.00  0.00    -0.188 NA
ATOM     20  H   UNL     1       6.589   0.952  -1.941  0.00  0.00    +0.148 HD
BRANCH  19  21
ATOM     21  S   UNL     1       4.919   1.943  -0.541  0.00  0.00    +0.059 S 
ATOM     22  O   UNL     1       3.755   2.597  -1.029  0.00  0.00    -0.153 OA
ATOM     23  O   UNL     1       6.027   2.655  -0.009  0.00  0.00    -0.153 OA
BRANCH  21  24
ATOM     24  C   UNL     1       4.382   0.834   0.719  0.00  0.00    +0.109 A 
ATOM     25  C   UNL     1       5.264   0.428   1.703  0.00  0.00    +0.032 A 
ATOM     26  C   UNL     1       4.848  -0.443   2.692  0.00  0.00    +0.051 A 
ATOM     27  C   UNL     1       3.543  -0.912   2.699  0.00  0.00    +0.162 A 
ATOM     28  C   UNL     1       2.655  -0.502   1.712  0.00  0.00    +0.164 A 
ATOM     29  C   UNL     1       3.080   0.371   0.722  0.00  0.00    +0.078 A 
ATOM     30  O   UNL     1       1.367  -0.944   1.706  0.00  0.00    -0.485 OA
ATOM     31  C   UNL     1       1.082  -2.105   2.493  0.00  0.00    +0.270 C 
ATOM     32  C   UNL     1       1.738  -1.927   3.868  0.00  0.00    +0.270 C 
ATOM     33  O   UNL     1       3.149  -1.776   3.675  0.00  0.00    -0.485 OA
ENDBRANCH  21  24
ENDBRANCH  19  21
ENDBRANCH  18  19
ENDBRANCH   1  18
TORSDOF 6
