REMARK  Name = ZINC35693140
REMARK  14 active torsions:
REMARK  status: ('A' for Active; 'I' for Inactive)
REMARK    1  A    between atoms: C_1  and  C_2
REMARK    2  A    between atoms: C_3  and  C_31
REMARK    3  A    between atoms: C_4  and  C_23
REMARK    4  A    between atoms: C_7  and  C_12
REMARK    5  A    between atoms: C_13  and  N_15
REMARK    6  A    between atoms: N_15  and  C_16
REMARK    7  A    between atoms: C_16  and  C_17
REMARK    8  A    between atoms: C_26  and  O_29
REMARK    9  A    between atoms: O_29  and  C_30
REMARK   10  A    between atoms: C_31  and  O_33
REMARK   11  A    between atoms: O_33  and  C_34
REMARK   12  A    between atoms: C_34  and  C_35
REMARK   13  A    between atoms: C_35  and  O_36
REMARK   14  A    between atoms: O_36  and  C_37
REMARK                            x       y       z     vdW  Elec       q    Type
REMARK                         _______ _______ _______ _____ _____    ______ ____
ROOT
ATOM      1  C   UNL     1      -0.026   1.556   0.215  0.00  0.00    +0.066 C 
ATOM      2  C   UNL     1      -0.020   0.050   0.160  0.00  0.00    +0.053 C 
ATOM      3  C   UNL     1      -1.217  -0.640   0.144  0.00  0.00    +0.082 C 
ATOM      4  C   UNL     1      -1.159  -2.151   0.087  0.00  0.00    +0.150 C 
ATOM      5  N   UNL     1       0.191  -2.775   0.053  0.00  0.00    -0.267 N 
ATOM      6  C   UNL     1       0.481  -4.124   0.001  0.00  0.00    +0.048 C 
ATOM      7  C   UNL     1       1.783  -4.485  -0.023  0.00  0.00    +0.072 C 
ATOM      8  S   UNL     1       2.604  -2.904   0.030  0.00  0.00    -0.060 S 
ATOM      9  C   UNL     1       1.251  -1.913   0.077  0.00  0.00    +0.166 C 
ATOM     10  N   UNL     1       1.131  -0.602   0.122  0.00  0.00    -0.230 NA
ENDROOT
BRANCH   4  11
ATOM     11  C   UNL     1      -1.907  -2.598  -1.142  0.00  0.00    -0.022 A 
ATOM     12  C   UNL     1      -1.342  -2.430  -2.393  0.00  0.00    +0.009 A 
ATOM     13  C   UNL     1      -2.026  -2.839  -3.522  0.00  0.00    +0.046 A 
ATOM     14  C   UNL     1      -3.280  -3.419  -3.399  0.00  0.00    +0.120 A 
ATOM     15  C   UNL     1      -3.845  -3.587  -2.143  0.00  0.00    +0.046 A 
ATOM     16  C   UNL     1      -3.155  -3.181  -1.017  0.00  0.00    +0.009 A 
BRANCH  14  17
ATOM     17  O   UNL     1      -3.956  -3.821  -4.508  0.00  0.00    -0.495 OA
ATOM     18  C   UNL     1      -5.242  -4.410  -4.306  0.00  0.00    +0.277 C 
ENDBRANCH  14  17
ENDBRANCH   4  11
BRANCH   6  19
ATOM     19  C   UNL     1      -0.589  -5.132  -0.028  0.00  0.00    +0.091 C 
ATOM     20  C   UNL     1      -0.284  -6.441   0.067  0.00  0.00    +0.239 C 
ATOM     21  O   UNL     1       0.991  -6.822   0.323  0.00  0.00    -0.271 OA
BRANCH  20  22
ATOM     22  N   UNL     1      -1.272  -7.396  -0.097  0.00  0.00    -0.309 N 
ATOM     23  H   UNL     1      -2.197  -7.123  -0.206  0.00  0.00    +0.149 HD
BRANCH  22  24
ATOM     24  C   UNL     1      -0.923  -8.818  -0.104  0.00  0.00    +0.136 C 
BRANCH  24  25
ATOM     25  C   UNL     1      -2.168  -9.648  -0.422  0.00  0.00    +0.135 C 
ATOM     26  C   UNL     1      -1.827 -11.159  -0.401  0.00  0.00    +0.035 C 
ATOM     27  C   UNL     1      -3.221 -11.771  -0.092  0.00  0.00    +0.031 C 
ATOM     28  C   UNL     1      -3.849 -10.707   0.833  0.00  0.00    +0.160 C 
ATOM     29  O   UNL     1      -3.160  -9.471   0.601  0.00  0.00    -0.375 OA
ENDBRANCH  24  25
ENDBRANCH  22  24
ENDBRANCH  20  22
ENDBRANCH   6  19
BRANCH   3  30
ATOM     30  C   UNL     1      -2.442   0.035   0.179  0.00  0.00    +0.339 C 
ATOM     31  O   UNL     1      -2.466   1.253   0.224  0.00  0.00    -0.245 OA
BRANCH  30  32
ATOM     32  O   UNL     1      -3.600  -0.662   0.162  0.00  0.00    -0.459 OA
BRANCH  32  33
ATOM     33  C   UNL     1      -4.813   0.092   0.199  0.00  0.00    +0.260 C 
BRANCH  33  34
ATOM     34  C   UNL     1      -6.008  -0.863   0.173  0.00  0.00    +0.200 C 
BRANCH  34  35
ATOM     35  O   UNL     1      -6.015  -1.650   1.365  0.00  0.00    -0.380 OA
ATOM     36  C   UNL     1      -7.098  -2.580   1.441  0.00  0.00    +0.194 C 
ENDBRANCH  34  35
ENDBRANCH  33  34
ENDBRANCH  32  33
ENDBRANCH  30  32
ENDBRANCH   3  30
TORSDOF 11
