REMARK  Name = ZINC23736563
REMARK  4 active torsions:
REMARK  status: ('A' for Active; 'I' for Inactive)
REMARK    1  A    between atoms: C_9  and  C_12
REMARK    2  A    between atoms: N_14  and  C_15
REMARK    3  A    between atoms: C_15  and  C_16
REMARK    4  A    between atoms: C_16  and  N_22
REMARK                            x       y       z     vdW  Elec       q    Type
REMARK                         _______ _______ _______ _____ _____    ______ ____
ROOT
ATOM      1  C   UNL     1      -3.326  -1.091  -1.221  0.00  0.00    +0.252 C 
ATOM      2  O   UNL     1      -4.388  -0.497  -1.208  0.00  0.00    -0.270 OA
ATOM      3  N   UNL     1      -2.168  -0.402  -1.229  0.00  0.00    -0.309 N 
ATOM      4  H   UNL     1      -1.208  -0.939  -1.241  0.00  0.00    +0.149 HD
ENDROOT
BRANCH   1  13
ATOM      5  C   UNL     1      -4.691  -7.157  -1.242  0.00  0.00    +0.039 A 
ATOM      6  C   UNL     1      -5.084  -5.858  -1.231  0.00  0.00    +0.013 A 
ATOM      7  C   UNL     1      -4.128  -4.810  -1.234  0.00  0.00    +0.008 A 
ATOM      8  C   UNL     1      -2.767  -5.198  -1.248  0.00  0.00    +0.024 A 
ATOM      9  C   UNL     1      -2.381  -6.521  -1.259  0.00  0.00    +0.054 A 
ATOM     10  C   UNL     1      -3.345  -7.512  -1.256  0.00  0.00    +0.124 A 
ATOM     11  F   UNL     1      -2.984  -8.813  -1.266  0.00  0.00    -0.205 F 
ATOM     12  S   UNL     1      -1.896  -3.652  -1.248  0.00  0.00    -0.082 S 
ATOM     13  C   UNL     1      -3.306  -2.559  -1.229  0.00  0.00    +0.093 A 
ATOM     14  C   UNL     1      -4.359  -3.421  -1.218  0.00  0.00    +0.068 A 
ATOM     15 CL   UNL     1      -5.984  -2.810  -1.191  0.00  0.00    -0.082 Cl
ENDBRANCH   1  13
BRANCH   3  16
ATOM     16  C   UNL     1      -2.188   1.063  -1.221  0.00  0.00    +0.126 C 
BRANCH  16  17
ATOM     17  C   UNL     1      -0.753   1.593  -1.232  0.00  0.00    +0.038 C 
ATOM     18  C   UNL     1      -0.013   1.086   0.008  0.00  0.00    +0.024 C 
ATOM     19  C   UNL     1      -0.729   1.579   1.267  0.00  0.00    +0.002 C 
ATOM     20  C   UNL     1      -0.750   3.109   1.275  0.00  0.00    +0.000 C 
ATOM     21  C   UNL     1      -1.490   3.616   0.036  0.00  0.00    +0.002 C 
ATOM     22  C   UNL     1      -0.773   3.123  -1.223  0.00  0.00    +0.024 C 
BRANCH  17  23
ATOM     23  N   UNL     1      -0.065   1.119  -2.440  0.00  0.00    -0.291 NA
ATOM     24  C   UNL     1       1.344   1.537  -2.443  0.00  0.00    +0.113 C 
ATOM     25  C   UNL     1       2.036   0.973  -3.687  0.00  0.00    +0.175 C 
ATOM     26  O   UNL     1       1.339   1.414  -4.855  0.00  0.00    -0.377 OA
ATOM     27  C   UNL     1      -0.037   1.023  -4.886  0.00  0.00    +0.175 C 
ATOM     28  C   UNL     1      -0.750   1.588  -3.654  0.00  0.00    +0.113 C 
ENDBRANCH  17  23
ENDBRANCH  16  17
ENDBRANCH   3  16
TORSDOF 4
