REMARK  Name = ZINC11240505
REMARK  8 active torsions:
REMARK  status: ('A' for Active; 'I' for Inactive)
REMARK    1  A    between atoms: C_1  and  C_2
REMARK    2  A    between atoms: C_5  and  C_8
REMARK    3  A    between atoms: C_8  and  N_9
REMARK    4  A    between atoms: N_12  and  C_13
REMARK    5  A    between atoms: C_13  and  C_14
REMARK    6  A    between atoms: N_16  and  C_17
REMARK    7  A    between atoms: C_17  and  C_18
REMARK    8  A    between atoms: C_18  and  C_19
REMARK                            x       y       z     vdW  Elec       q    Type
REMARK                         _______ _______ _______ _____ _____    ______ ____
ROOT
ATOM      1  C   UNL     1       4.764  -8.152  -0.069  0.00  0.00    +0.230 C 
ATOM      2  O   UNL     1       5.514  -7.199  -0.068  0.00  0.00    -0.274 OA
ATOM      3  N   UNL     1       5.265  -9.403  -0.078  0.00  0.00    -0.314 N 
ATOM      4  H   UNL     1       4.665 -10.166  -0.079  0.00  0.00    +0.149 HD
ENDROOT
BRANCH   1   5
ATOM      5  C   UNL     1       3.273  -7.937  -0.059  0.00  0.00    +0.201 C 
BRANCH   5   9
ATOM      6  N   UNL     1       1.447  -4.746  -0.032  0.00  0.00    -0.295 N 
ATOM      7  C   UNL     1       1.710  -6.067  -0.040  0.00  0.00    +0.300 C 
ATOM      8  O   UNL     1       0.796  -6.870  -0.040  0.00  0.00    -0.253 OA
ATOM      9  N   UNL     1       2.986  -6.500  -0.050  0.00  0.00    -0.291 N 
ATOM     10  H   UNL     1       2.176  -4.106  -0.032  0.00  0.00    +0.151 HD
ATOM     11  H   UNL     1       3.716  -5.861  -0.050  0.00  0.00    +0.151 HD
BRANCH   6  12
ATOM     12  C   UNL     1       0.059  -4.275  -0.021  0.00  0.00    +0.141 C 
BRANCH  12  17
ATOM     13  C   UNL     1      -0.018   1.503   0.010  0.00  0.00    +0.044 C 
ATOM     14  C   UNL     1       0.002  -0.004   0.002  0.00  0.00    -0.050 A 
ATOM     15  C   UNL     1       0.006  -0.689  -1.199  0.00  0.00    +0.003 A 
ATOM     16  C   UNL     1       0.025  -2.071  -1.206  0.00  0.00    +0.005 A 
ATOM     17  C   UNL     1       0.040  -2.768  -0.013  0.00  0.00    -0.030 A 
ATOM     18  C   UNL     1       0.037  -2.084   1.188  0.00  0.00    +0.005 A 
ATOM     19  C   UNL     1       0.023  -0.702   1.195  0.00  0.00    +0.003 A 
ENDBRANCH  12  17
ENDBRANCH   6  12
ENDBRANCH   5   9
ENDBRANCH   1   5
BRANCH   3  20
ATOM     20  C   UNL     1       6.715  -9.612  -0.087  0.00  0.00    +0.105 C 
BRANCH  20  21
ATOM     21  C   UNL     1       7.014 -11.113  -0.097  0.00  0.00    +0.025 C 
BRANCH  21  22
ATOM     22  C   UNL     1       8.528 -11.331  -0.107  0.00  0.00    -0.027 C 
ATOM     23  C   UNL     1       9.129 -10.683  -1.356  0.00  0.00    +0.010 C 
ATOM     24  C   UNL     1      10.643 -10.902  -1.365  0.00  0.00    -0.010 C 
ATOM     25  C   UNL     1      10.942 -12.402  -1.375  0.00  0.00    +0.007 C 
ATOM     26  C   UNL     1      10.341 -13.050  -0.126  0.00  0.00    -0.010 C 
ATOM     27  C   UNL     1       8.827 -12.832  -0.117  0.00  0.00    +0.010 C 
ATOM     28  C   UNL     1      10.956 -12.415   1.123  0.00  0.00    +0.007 C 
ATOM     29  C   UNL     1      10.657 -10.915   1.133  0.00  0.00    -0.010 C 
ATOM     30  C   UNL     1      11.258 -10.267  -0.116  0.00  0.00    +0.007 C 
ATOM     31  C   UNL     1       9.143 -10.697   1.143  0.00  0.00    +0.010 C 
ENDBRANCH  21  22
ENDBRANCH  20  21
ENDBRANCH   3  20
TORSDOF 7
