REMARK  Name = ZINC39637461
REMARK  5 active torsions:
REMARK  status: ('A' for Active; 'I' for Inactive)
REMARK    1  A    between atoms: C_1  and  C_2
REMARK    2  A    between atoms: C_7  and  N_12
REMARK    3  A    between atoms: C_9  and  C_11
REMARK    4  A    between atoms: C_13  and  C_15
REMARK    5  A    between atoms: C_26  and  C_28
REMARK                            x       y       z     vdW  Elec       q    Type
REMARK                         _______ _______ _______ _____ _____    ______ ____
ROOT
ATOM      1  C   UNL     1       2.598  -4.523   4.080  0.00  0.00    +0.100 C 
ATOM      2  C   UNL     1       3.820  -3.579   4.152  0.00  0.00    +0.121 C 
ATOM      3  N   UNL     1       4.959  -4.467   4.484  0.00  0.00    -0.296 N 
ATOM      4  C   UNL     1       4.713  -5.696   3.693  0.00  0.00    +0.115 C 
ATOM      5  C   UNL     1       3.188  -5.910   3.778  0.00  0.00    -0.004 C 
ATOM      6  C   UNL     1       2.855  -6.883   4.904  0.00  0.00    -0.010 C 
ATOM      7  C   UNL     1       3.403  -8.270   4.554  0.00  0.00    -0.082 C 
ATOM      8  N   UNL     1       2.809  -8.729   3.293  0.00  0.00    +0.379 N 
ATOM      9  C   UNL     1       3.211  -7.838   2.197  0.00  0.00    -0.082 C 
ATOM     10  C   UNL     1       2.655  -6.434   2.447  0.00  0.00    -0.010 C 
ATOM     11  C   UNL     1       5.987  -4.214   5.318  0.00  0.00    +0.248 C 
ATOM     12  O   UNL     1       6.901  -5.011   5.417  0.00  0.00    -0.270 OA
ATOM     13  H   UNL     1       3.125  -9.666   3.096  0.00  0.00    -0.086 HD
ATOM     14  H   UNL     1       1.804  -8.725   3.375  0.00  0.00    -0.086 HD
ENDROOT
BRANCH  11  15
ATOM     15  C   UNL     1       6.005  -2.976   6.108  0.00  0.00    +0.052 A 
ATOM     16  C   UNL     1       5.492  -1.821   5.611  0.00  0.00    +0.059 A 
ATOM     17  S   UNL     1       5.713  -0.678   6.818  0.00  0.00    -0.096 S 
ATOM     18  C   UNL     1       6.501  -1.675   8.053  0.00  0.00    +0.020 A 
ATOM     19  C   UNL     1       6.570  -2.950   7.459  0.00  0.00    +0.001 A 
ATOM     20  C   UNL     1       7.155  -3.983   8.216  0.00  0.00    +0.010 A 
ATOM     21  C   UNL     1       7.627  -3.736   9.481  0.00  0.00    +0.001 A 
ATOM     22  C   UNL     1       7.542  -2.472  10.045  0.00  0.00    +0.001 A 
ATOM     23  C   UNL     1       6.983  -1.437   9.322  0.00  0.00    +0.015 A 
ENDBRANCH  11  15
BRANCH   1  25
ATOM     24  N   UNL     1       0.348  -4.343   3.068  0.00  0.00    -0.312 N 
ATOM     25  C   UNL     1       1.670  -4.095   2.973  0.00  0.00    +0.218 C 
ATOM     26  O   UNL     1       2.112  -3.528   1.996  0.00  0.00    -0.275 OA
ATOM     27  H   UNL     1      -0.005  -4.797   3.849  0.00  0.00    +0.149 HD
BRANCH  24  33
ATOM     28  C   UNL     1      -4.317  -3.112   1.992  0.00  0.00    +0.008 C 
ATOM     29  C   UNL     1      -2.907  -3.303   1.429  0.00  0.00    -0.009 C 
ATOM     30  C   UNL     1      -2.933  -4.378   0.341  0.00  0.00    +0.003 C 
ATOM     31  C   UNL     1      -1.523  -4.568  -0.221  0.00  0.00    +0.002 C 
ATOM     32  C   UNL     1      -0.580  -5.003   0.903  0.00  0.00    +0.022 C 
ATOM     33  C   UNL     1      -0.554  -3.927   1.991  0.00  0.00    +0.076 C 
ATOM     34  C   UNL     1      -1.964  -3.737   2.554  0.00  0.00    +0.009 C 
ATOM     35  C   UNL     1      -2.458  -5.056   3.152  0.00  0.00    +0.009 C 
ENDBRANCH  24  33
ENDBRANCH   1  25
TORSDOF 3
