REMARK  Name = ZINC21841280
REMARK  9 active torsions:
REMARK  status: ('A' for Active; 'I' for Inactive)
REMARK    1  A    between atoms: C_1  and  N_2
REMARK    2  A    between atoms: N_2  and  C_3
REMARK    3  A    between atoms: N_2  and  C_4
REMARK    4  A    between atoms: C_4  and  C_6
REMARK    5  A    between atoms: C_4  and  C_24
REMARK    6  A    between atoms: C_6  and  N_7
REMARK    7  A    between atoms: N_7  and  C_8
REMARK    8  A    between atoms: C_8  and  C_9
REMARK    9  A    between atoms: C_12  and  N_15
REMARK                            x       y       z     vdW  Elec       q    Type
REMARK                         _______ _______ _______ _____ _____    ______ ____
ROOT
ATOM      1  C   UNL     1      -2.410   2.099  -2.363  0.00  0.00    -0.047 C 
ENDROOT
BRANCH   1   2
ATOM      2  C   UNL     1      -2.124   3.577  -2.437  0.00  0.00    -0.064 A 
ATOM      3  C   UNL     1      -2.979   4.477  -1.826  0.00  0.00    +0.004 A 
ATOM      4  C   UNL     1      -2.719   5.832  -1.892  0.00  0.00    +0.026 A 
ATOM      5  C   UNL     1      -1.599   6.290  -2.573  0.00  0.00    +0.048 A 
ATOM      6  C   UNL     1      -0.743   5.385  -3.185  0.00  0.00    +0.026 A 
ATOM      7  C   UNL     1      -1.005   4.031  -3.110  0.00  0.00    +0.004 A 
BRANCH   5   8
ATOM      8  N   UNL     1      -1.334   7.665  -2.642  0.00  0.00    -0.299 N 
ATOM      9  C   UNL     1      -2.213   8.640  -3.005  0.00  0.00    +0.205 A 
ATOM     10  N   UNL     1      -1.633   9.804  -2.959  0.00  0.00    -0.235 NA
ATOM     11  C   UNL     1      -0.342   9.657  -2.564  0.00  0.00    +0.089 A 
ATOM     12  C   UNL     1      -0.133   8.284  -2.350  0.00  0.00    +0.073 A 
ATOM     13  C   UNL     1       1.109   7.830  -1.930  0.00  0.00    +0.028 A 
ATOM     14  C   UNL     1       2.134   8.729  -1.721  0.00  0.00    +0.002 A 
ATOM     15  C   UNL     1       1.931  10.086  -1.928  0.00  0.00    +0.002 A 
ATOM     16  C   UNL     1       0.708  10.554  -2.352  0.00  0.00    +0.030 A 
ENDBRANCH   5   8
ENDBRANCH   1   2
BRANCH   1  17
ATOM     17  N   UNL     1      -1.765   1.535  -1.170  0.00  0.00    +0.381 N 
ATOM     18  H   UNL     1      -2.128   1.989  -0.345  0.00  0.00    -0.086 HD
ATOM     19  H   UNL     1      -0.769   1.682  -1.224  0.00  0.00    -0.086 HD
BRANCH  17  20
ATOM     20  C   UNL     1      -2.044   0.095  -1.098  0.00  0.00    -0.090 C 
BRANCH  20  21
ATOM     21  C   UNL     1      -1.265  -0.518   0.068  0.00  0.00    -0.019 C 
BRANCH  21  22
ATOM     22  C   UNL     1      -1.766   0.061   1.366  0.00  0.00    +0.090 A 
ATOM     23  C   UNL     1      -1.179   1.049   2.065  0.00  0.00    +0.043 A 
ATOM     24  C   UNL     1      -1.980   1.274   3.208  0.00  0.00    +0.041 A 
ATOM     25  C   UNL     1      -3.009   0.410   3.139  0.00  0.00    +0.195 A 
ATOM     26  O   UNL     1      -2.877  -0.319   2.018  0.00  0.00    -0.470 OA
ENDBRANCH  21  22
BRANCH  21  28
ATOM     27  C   UNL     1      -0.910  -2.546  -1.163  0.00  0.00    -0.096 C 
ATOM     28  N   UNL     1      -1.458  -1.974   0.074  0.00  0.00    +0.381 N 
ATOM     29  C   UNL     1      -0.764  -2.555   1.231  0.00  0.00    -0.096 C 
ATOM     30  H   UNL     1      -2.443  -2.183   0.134  0.00  0.00    -0.082 HD
ENDBRANCH  21  28
ENDBRANCH  20  21
ENDBRANCH  17  20
ENDBRANCH   1  17
TORSDOF 7
