REMARK  Name = ZINC12805707
REMARK  12 active torsions:
REMARK  status: ('A' for Active; 'I' for Inactive)
REMARK    1  A    between atoms: C_1  and  C_2
REMARK    2  A    between atoms: C_5  and  C_8
REMARK    3  A    between atoms: C_8  and  C_10
REMARK    4  A    between atoms: C_8  and  N_15
REMARK    5  A    between atoms: C_16  and  C_18
REMARK    6  A    between atoms: C_18  and  N_19
REMARK    7  A    between atoms: C_22  and  C_26
REMARK    8  A    between atoms: C_22  and  C_27
REMARK    9  A    between atoms: C_30  and  O_35
REMARK   10  A    between atoms: C_31  and  O_33
REMARK   11  A    between atoms: O_33  and  C_34
REMARK   12  A    between atoms: O_35  and  C_36
REMARK                            x       y       z     vdW  Elec       q    Type
REMARK                         _______ _______ _______ _____ _____    ______ ____
ROOT
ATOM      1  N   UNL     1       2.112  -2.637  -1.494  0.00  0.00    -0.215 N 
ATOM      2  C   UNL     1       2.046  -2.888  -2.817  0.00  0.00    +0.251 C 
ATOM      3  O   UNL     1       1.078  -2.773  -3.537  0.00  0.00    -0.272 OA
ATOM      4  C   UNL     1       3.436  -3.342  -3.217  0.00  0.00    +0.135 C 
ATOM      5  N   UNL     1       4.192  -3.297  -1.953  0.00  0.00    -0.281 N 
ATOM      6  C   UNL     1       3.335  -2.874  -1.007  0.00  0.00    +0.310 C 
ATOM      7  O   UNL     1       3.638  -2.724   0.161  0.00  0.00    -0.252 OA
ATOM      8  C   UNL     1       3.397  -4.768  -3.770  0.00  0.00    +0.047 C 
ATOM      9  H   UNL     1       5.126  -3.527  -1.828  0.00  0.00    +0.152 HD
ENDROOT
BRANCH   4  10
ATOM     10  C   UNL     1       4.036  -2.399  -4.228  0.00  0.00    -0.012 A 
ATOM     11  C   UNL     1       3.226  -1.788  -5.166  0.00  0.00    +0.010 A 
ATOM     12  C   UNL     1       3.770  -0.918  -6.093  0.00  0.00    +0.050 A 
ATOM     13  C   UNL     1       5.133  -0.666  -6.089  0.00  0.00    +0.162 A 
ATOM     14  C   UNL     1       5.949  -1.285  -5.147  0.00  0.00    +0.162 A 
ATOM     15  C   UNL     1       5.396  -2.152  -4.218  0.00  0.00    +0.055 A 
BRANCH  14  16
ATOM     16  O   UNL     1       7.287  -1.041  -5.139  0.00  0.00    -0.491 OA
ATOM     17  C   UNL     1       8.063  -1.712  -4.144  0.00  0.00    +0.277 C 
ENDBRANCH  14  16
BRANCH  13  18
ATOM     18  O   UNL     1       5.671   0.185  -7.002  0.00  0.00    -0.491 OA
ATOM     19  C   UNL     1       4.773   0.785  -7.938  0.00  0.00    +0.277 C 
ENDBRANCH  13  18
ENDBRANCH   4  10
BRANCH   1  20
ATOM     20  C   UNL     1       0.981  -2.168  -0.689  0.00  0.00    +0.213 C 
BRANCH  20  22
ATOM     21  N   UNL     1       0.002  -0.004   0.002  0.00  0.00    -0.303 N 
ATOM     22  C   UNL     1       0.961  -0.661  -0.680  0.00  0.00    +0.232 C 
ATOM     23  O   UNL     1       1.807  -0.040  -1.287  0.00  0.00    -0.274 OA
ATOM     24  H   UNL     1      -0.675  -0.501   0.488  0.00  0.00    +0.150 HD
BRANCH  21  25
ATOM     25  C   UNL     1      -0.018   1.461   0.010  0.00  0.00    +0.140 C 
BRANCH  25  30
ATOM     26  C   UNL     1      -2.723   3.325   4.764  0.00  0.00    +0.044 C 
ATOM     27  C   UNL     1      -2.018   2.839   3.524  0.00  0.00    -0.050 A 
ATOM     28  C   UNL     1      -0.885   3.490   3.073  0.00  0.00    +0.004 A 
ATOM     29  C   UNL     1      -0.238   3.045   1.936  0.00  0.00    +0.006 A 
ATOM     30  C   UNL     1      -0.723   1.947   1.250  0.00  0.00    -0.022 A 
ATOM     31  C   UNL     1      -1.859   1.298   1.698  0.00  0.00    +0.006 A 
ATOM     32  C   UNL     1      -2.503   1.741   2.838  0.00  0.00    +0.004 A 
ENDBRANCH  25  30
BRANCH  25  33
ATOM     33  C   UNL     1      -0.747   1.960  -1.211  0.00  0.00    +0.014 A 
ATOM     34  C   UNL     1      -0.450   3.014  -2.011  0.00  0.00    +0.013 A 
ATOM     35  C   UNL     1      -1.270   3.288  -3.089  0.00  0.00    +0.008 A 
ATOM     36  C   UNL     1      -2.346   2.495  -3.315  0.00  0.00    +0.045 A 
ATOM     37  S   UNL     1      -2.220   1.313  -1.984  0.00  0.00    -0.099 S 
ENDBRANCH  25  33
ENDBRANCH  21  25
ENDBRANCH  20  22
ENDBRANCH   1  20
TORSDOF 8
