REMARK  Name = ZINC29960941
REMARK  13 active torsions:
REMARK  status: ('A' for Active; 'I' for Inactive)
REMARK    1  A    between atoms: C_1  and  C_2
REMARK    2  A    between atoms: C_2  and  N_3
REMARK    3  A    between atoms: N_3  and  C_4
REMARK    4  A    between atoms: N_3  and  C_18
REMARK    5  A    between atoms: C_4  and  C_5
REMARK    6  A    between atoms: C_8  and  C_10
REMARK    7  A    between atoms: C_13  and  C_17
REMARK    8  A    between atoms: C_15  and  C_16
REMARK    9  A    between atoms: C_18  and  C_19
REMARK   10  A    between atoms: C_26  and  O_33
REMARK   11  A    between atoms: C_27  and  O_31
REMARK   12  A    between atoms: O_31  and  C_32
REMARK   13  A    between atoms: O_33  and  C_34
REMARK                            x       y       z     vdW  Elec       q    Type
REMARK                         _______ _______ _______ _____ _____    ______ ____
ROOT
ATOM      1  N   UNL     1       2.469   5.921   0.596  0.00  0.00    -0.290 NA
ENDROOT
BRANCH   1   3
ATOM      2  C   UNL     1       2.503   5.343   2.975  0.00  0.00    +0.020 C 
ATOM      3  C   UNL     1       1.709   6.010   1.850  0.00  0.00    +0.082 C 
ENDBRANCH   1   3
BRANCH   1   4
ATOM      4  C   UNL     1       3.737   6.655   0.696  0.00  0.00    +0.143 C 
BRANCH   4   5
ATOM      5  C   UNL     1       3.461   8.137   0.697  0.00  0.00    +0.094 A 
ATOM      6  C   UNL     1       3.340   8.919   1.785  0.00  0.00    +0.222 A 
ATOM      7  O   UNL     1       3.097  10.172   1.352  0.00  0.00    -0.443 OA
ATOM      8  C   UNL     1       3.072  10.142   0.008  0.00  0.00    +0.228 A 
ATOM      9  N   UNL     1       3.298   8.911  -0.386  0.00  0.00    -0.213 NA
BRANCH   8  10
ATOM     10  C   UNL     1       2.836  11.302  -0.877  0.00  0.00    +0.040 A 
ATOM     11  C   UNL     1       3.665  11.525  -1.977  0.00  0.00    +0.014 A 
ATOM     12  C   UNL     1       3.439  12.609  -2.799  0.00  0.00    +0.004 A 
ATOM     13  C   UNL     1       2.393  13.475  -2.535  0.00  0.00    -0.050 A 
ATOM     14  C   UNL     1       1.567  13.261  -1.446  0.00  0.00    +0.007 A 
ATOM     15  C   UNL     1       1.779  12.177  -0.619  0.00  0.00    -0.038 A 
ATOM     16  C   UNL     1       0.875  11.941   0.563  0.00  0.00    +0.044 C 
ATOM     17  C   UNL     1       2.152  14.658  -3.438  0.00  0.00    +0.044 C 
ENDBRANCH   8  10
ENDBRANCH   4   5
ENDBRANCH   1   4
BRANCH   1  18
ATOM     18  C   UNL     1       2.700   4.520   0.218  0.00  0.00    +0.159 C 
BRANCH  18  19
ATOM     19  C   UNL     1       1.383   3.866  -0.113  0.00  0.00    +0.125 A 
ATOM     20  N   UNL     1       1.389   2.559  -0.488  0.00  0.00    -0.309 N 
ATOM     21  H   UNL     1       2.338   2.005  -0.539  0.00  0.00    +0.170 HD
ATOM     22  C   UNL     1       0.234   1.927  -0.803  0.00  0.00    +0.259 A 
ATOM     23  O   UNL     1       0.225   0.758  -1.141  0.00  0.00    -0.267 OA
ATOM     24  C   UNL     1      -1.009   2.705  -0.714  0.00  0.00    +0.068 A 
ATOM     25  C   UNL     1      -2.251   2.144  -1.015  0.00  0.00    +0.064 A 
ATOM     26  C   UNL     1      -3.388   2.920  -0.926  0.00  0.00    +0.162 A 
ATOM     27  C   UNL     1      -3.301   4.260  -0.531  0.00  0.00    +0.164 A 
ATOM     28  C   UNL     1      -2.081   4.822  -0.209  0.00  0.00    +0.078 A 
ATOM     29  C   UNL     1      -0.919   4.056  -0.309  0.00  0.00    +0.082 A 
ATOM     30  N   UNL     1       0.301   4.578  -0.026  0.00  0.00    -0.232 NA
BRANCH  27  31
ATOM     31  O   UNL     1      -4.428   5.015  -0.464  0.00  0.00    -0.491 OA
ATOM     32  C   UNL     1      -4.272   6.380  -0.070  0.00  0.00    +0.277 C 
ENDBRANCH  27  31
BRANCH  26  33
ATOM     33  O   UNL     1      -4.600   2.380  -1.224  0.00  0.00    -0.491 OA
ATOM     34  C   UNL     1      -4.618   1.007  -1.621  0.00  0.00    +0.277 C 
ENDBRANCH  26  33
ENDBRANCH  18  19
ENDBRANCH   1  18
TORSDOF 8
