REMARK  Name = ZINC36559881
REMARK  16 active torsions:
REMARK  status: ('A' for Active; 'I' for Inactive)
REMARK    1  A    between atoms: C_1  and  C_2
REMARK    2  A    between atoms: C_2  and  C_3
REMARK    3  A    between atoms: C_3  and  N_4
REMARK    4  A    between atoms: N_4  and  C_5
REMARK    5  A    between atoms: C_5  and  C_7
REMARK    6  A    between atoms: C_5  and  C_16
REMARK    7  A    between atoms: C_10  and  O_15
REMARK    8  A    between atoms: C_11  and  O_13
REMARK    9  A    between atoms: O_13  and  C_14
REMARK   10  A    between atoms: N_18  and  C_19
REMARK   11  A    between atoms: C_19  and  C_20
REMARK   12  A    between atoms: C_19  and  C_21
REMARK   13  A    between atoms: C_19  and  C_22
REMARK   14  A    between atoms: C_23  and  C_25
REMARK   15  A    between atoms: C_25  and  C_33
REMARK   16  A    between atoms: C_26  and  C_27
REMARK                            x       y       z     vdW  Elec       q    Type
REMARK                         _______ _______ _______ _____ _____    ______ ____
ROOT
ATOM      1  N   UNL     1       1.161  -1.553  -1.371  0.00  0.00    -0.282 N 
ATOM      2  C   UNL     1       1.512  -2.661  -0.689  0.00  0.00    +0.248 C 
ATOM      3  O   UNL     1       1.537  -3.739  -1.252  0.00  0.00    -0.270 OA
ENDROOT
BRANCH   2   4
ATOM      4  C   UNL     1       1.865  -2.567   0.737  0.00  0.00    +0.045 C 
ATOM      5  C   UNL     1       0.886  -2.528   1.679  0.00  0.00    +0.021 C 
BRANCH   5   6
ATOM      6  C   UNL     1      -0.499  -2.854   1.313  0.00  0.00    -0.024 A 
ATOM      7  C   UNL     1      -0.759  -3.809   0.323  0.00  0.00    +0.008 A 
ATOM      8  C   UNL     1      -2.061  -4.109  -0.015  0.00  0.00    +0.001 A 
ATOM      9  C   UNL     1      -3.111  -3.470   0.623  0.00  0.00    +0.000 A 
ATOM     10  C   UNL     1      -2.863  -2.525   1.603  0.00  0.00    +0.001 A 
ATOM     11  C   UNL     1      -1.566  -2.216   1.956  0.00  0.00    +0.008 A 
ENDBRANCH   5   6
BRANCH   4  12
ATOM     12  C   UNL     1       3.288  -2.515   1.145  0.00  0.00    -0.013 A 
ATOM     13  C   UNL     1       4.099  -1.461   0.726  0.00  0.00    +0.008 A 
ATOM     14  C   UNL     1       5.424  -1.418   1.110  0.00  0.00    +0.001 A 
ATOM     15  C   UNL     1       5.948  -2.418   1.909  0.00  0.00    +0.000 A 
ATOM     16  C   UNL     1       5.148  -3.467   2.328  0.00  0.00    +0.001 A 
ATOM     17  C   UNL     1       3.821  -3.518   1.956  0.00  0.00    +0.008 A 
ENDBRANCH   4  12
ENDBRANCH   2   4
BRANCH   1  18
ATOM     18  C   UNL     1       1.260  -0.238  -0.732  0.00  0.00    +0.109 C 
BRANCH  18  20
ATOM     19  C   UNL     1       0.031   1.437   0.656  0.00  0.00    +0.005 C 
ATOM     20  C   UNL     1       0.034  -0.009   0.155  0.00  0.00    +0.016 C 
ENDBRANCH  18  20
ENDBRANCH   1  18
BRANCH   1  21
ATOM     21  C   UNL     1       0.680  -1.663  -2.750  0.00  0.00    +0.193 C 
BRANCH  21  22
ATOM     22  C   UNL     1       1.848  -1.570  -3.698  0.00  0.00    -0.015 A 
ATOM     23  C   UNL     1       2.885  -0.695  -3.431  0.00  0.00    +0.010 A 
ATOM     24  C   UNL     1       3.959  -0.606  -4.297  0.00  0.00    +0.049 A 
ATOM     25  C   UNL     1       3.997  -1.395  -5.436  0.00  0.00    +0.158 A 
ATOM     26  C   UNL     1       2.954  -2.276  -5.704  0.00  0.00    +0.162 A 
ATOM     27  C   UNL     1       1.883  -2.364  -4.829  0.00  0.00    +0.055 A 
BRANCH  26  28
ATOM     28  O   UNL     1       2.987  -3.053  -6.820  0.00  0.00    -0.491 OA
ATOM     29  C   UNL     1       1.882  -3.933  -7.031  0.00  0.00    +0.277 C 
ENDBRANCH  26  28
BRANCH  25  30
ATOM     30  O   UNL     1       5.053  -1.309  -6.289  0.00  0.00    -0.503 OA
ATOM     31  H   UNL     1       5.776  -1.917  -6.083  0.00  0.00    +0.292 HD
ENDBRANCH  25  30
ENDBRANCH  21  22
BRANCH  21  32
ATOM     32  C   UNL     1      -0.288  -0.544  -3.035  0.00  0.00    +0.238 C 
ATOM     33  O   UNL     1      -0.388   0.384  -2.261  0.00  0.00    -0.273 OA
ATOM     34  N   UNL     1      -1.044  -0.575  -4.151  0.00  0.00    -0.309 N 
ATOM     35  H   UNL     1      -0.964  -1.317  -4.771  0.00  0.00    +0.149 HD
BRANCH  34  36
ATOM     36  C   UNL     1      -1.985   0.513  -4.429  0.00  0.00    +0.026 C 
ATOM     37  C   UNL     1      -1.221   1.834  -4.535  0.00  0.00    +0.031 C 
ATOM     38  C   UNL     1      -2.711   0.236  -5.747  0.00  0.00    +0.031 C 
ATOM     39  C   UNL     1      -3.007   0.605  -3.293  0.00  0.00    +0.031 C 
ENDBRANCH  34  36
ENDBRANCH  21  32
ENDBRANCH   1  21
TORSDOF 11
