REMARK  Name = ZINC46581089
REMARK  8 active torsions:
REMARK  status: ('A' for Active; 'I' for Inactive)
REMARK    1  A    between atoms: C_1  and  C_2
REMARK    2  A    between atoms: C_2  and  C_3
REMARK    3  A    between atoms: C_7  and  N_9
REMARK    4  A    between atoms: C_10  and  C_12
REMARK    5  A    between atoms: C_12  and  S_13
REMARK    6  A    between atoms: S_13  and  C_14
REMARK    7  A    between atoms: C_18  and  C_24
REMARK    8  A    between atoms: C_19  and  C_23
REMARK                            x       y       z     vdW  Elec       q    Type
REMARK                         _______ _______ _______ _____ _____    ______ ____
ROOT
ATOM      1  S   UNL     1       1.299  -1.716   8.830  0.00  0.00    -0.077 S 
ENDROOT
BRANCH   1   2
ATOM      2  C   UNL     1       0.225  -2.186  10.145  0.00  0.00    +0.191 A 
ATOM      3  N   UNL     1      -1.051  -1.819  10.107  0.00  0.00    -0.207 NA
ATOM      4  C   UNL     1      -1.904  -2.141  11.065  0.00  0.00    +0.129 A 
ATOM      5  C   UNL     1      -1.448  -2.906  12.175  0.00  0.00    +0.050 A 
ATOM      6  C   UNL     1      -2.180  -3.380  13.337  0.00  0.00    -0.028 A 
ATOM      7  C   UNL     1      -1.536  -4.094  14.271  0.00  0.00    -0.008 A 
ATOM      8  S   UNL     1       0.132  -4.184  13.647  0.00  0.00    -0.073 S 
ATOM      9  C   UNL     1      -0.082  -3.260  12.149  0.00  0.00    +0.115 A 
ATOM     10  N   UNL     1       0.704  -2.903  11.152  0.00  0.00    -0.214 NA
ATOM     11  C   UNL     1      -2.089  -4.680  15.544  0.00  0.00    +0.052 C 
ATOM     12  C   UNL     1      -3.648  -3.072  13.492  0.00  0.00    +0.045 C 
ATOM     13  N   UNL     1      -3.225  -1.739  10.988  0.00  0.00    -0.343 N 
ATOM     14  H   UNL     1      -3.475  -1.002  10.409  0.00  0.00    +0.144 HD
ATOM     15  H   UNL     1      -3.901  -2.195  11.513  0.00  0.00    +0.144 HD
ENDBRANCH   1   2
BRANCH   1  16
ATOM     16  C   UNL     1       0.232  -0.770   7.708  0.00  0.00    +0.173 C 
BRANCH  16  18
ATOM     17  N   UNL     1       0.450   0.424   5.553  0.00  0.00    -0.285 N 
ATOM     18  C   UNL     1       1.038  -0.303   6.524  0.00  0.00    +0.227 C 
ATOM     19  O   UNL     1       2.216  -0.581   6.444  0.00  0.00    -0.275 OA
ATOM     20  H   UNL     1      -0.490   0.653   5.621  0.00  0.00    +0.155 HD
BRANCH  17  25
ATOM     21  C   UNL     1       1.611   2.450   2.713  0.00  0.00    -0.046 A 
ATOM     22  C   UNL     1       2.667   1.682   2.258  0.00  0.00    +0.004 A 
ATOM     23  C   UNL     1       2.989   0.497   2.895  0.00  0.00    +0.002 A 
ATOM     24  C   UNL     1       2.256   0.078   3.988  0.00  0.00    +0.023 A 
ATOM     25  C   UNL     1       1.195   0.846   4.447  0.00  0.00    +0.034 A 
ATOM     26  C   UNL     1       0.877   2.038   3.808  0.00  0.00    +0.027 A 
BRANCH  21  28
ATOM     27  C   UNL     1       2.047   4.890   2.652  0.00  0.00    +0.009 C 
ATOM     28  C   UNL     1       1.263   3.740   2.016  0.00  0.00    +0.032 C 
ENDBRANCH  21  28
ENDBRANCH  17  25
ENDBRANCH  16  18
ENDBRANCH   1  16
TORSDOF 5
