REMARK  Name = ZINC20353479
REMARK  6 active torsions:
REMARK  status: ('A' for Active; 'I' for Inactive)
REMARK    1  A    between atoms: C_1  and  O_2
REMARK    2  A    between atoms: O_2  and  C_3
REMARK    3  A    between atoms: C_6  and  C_22
REMARK    4  A    between atoms: C_8  and  C_9
REMARK    5  A    between atoms: C_9  and  S_10
REMARK    6  A    between atoms: S_10  and  C_11
REMARK                            x       y       z     vdW  Elec       q    Type
REMARK                         _______ _______ _______ _____ _____    ______ ____
ROOT
ATOM      1  C   UNL     1      -1.200  -0.637   0.010  0.00  0.00    +0.124 A 
ATOM      2  C   UNL     1      -2.375   0.101   0.019  0.00  0.00    +0.046 A 
ATOM      3  C   UNL     1      -3.596  -0.545   0.027  0.00  0.00    +0.006 A 
ATOM      4  C   UNL     1      -3.648  -1.927   0.026  0.00  0.00    -0.055 A 
ATOM      5  C   UNL     1      -2.479  -2.665   0.017  0.00  0.00    +0.010 A 
ATOM      6  C   UNL     1      -1.255  -2.023   0.003  0.00  0.00    +0.005 A 
ENDROOT
BRANCH   4   7
ATOM      7  C   UNL     1      -4.981  -2.629   0.034  0.00  0.00    +0.009 C 
ATOM      8  C   UNL     1      -5.560  -2.635  -1.356  0.00  0.00    +0.029 A 
ATOM      9  C   UNL     1      -6.860  -2.375  -1.628  0.00  0.00    +0.059 A 
ATOM     10  N   UNL     1      -7.032  -2.460  -2.946  0.00  0.00    -0.241 NA
ATOM     11  C   UNL     1      -5.890  -2.765  -3.508  0.00  0.00    +0.196 A 
ATOM     12  N   UNL     1      -4.947  -2.883  -2.543  0.00  0.00    -0.349 N 
ATOM     13  H   UNL     1      -4.012  -3.104  -2.675  0.00  0.00    +0.166 HD
ATOM     14  C   UNL     1      -7.871  -2.058  -0.553  0.00  0.00    +0.038 C 
ATOM     15  C   UNL     1      -7.264  -2.472   0.795  0.00  0.00    -0.075 C 
ATOM     16  N   UNL     1      -5.912  -1.915   0.924  0.00  0.00    +0.388 N 
ATOM     17  H   UNL     1      -5.601  -2.009   1.879  0.00  0.00    -0.084 HD
ATOM     18  H   UNL     1      -5.929  -0.937   0.674  0.00  0.00    -0.084 HD
ENDBRANCH   4   7
BRANCH   1  20
ATOM     19  C   UNL     1      -0.017   1.425   0.010  0.00  0.00    +0.277 C 
ATOM     20  O   UNL     1       0.002  -0.004   0.002  0.00  0.00    -0.495 OA
ENDBRANCH   1  20
BRANCH   6  21
ATOM     21  C   UNL     1       0.018  -2.829  -0.013  0.00  0.00    +0.115 C 
BRANCH  21  22
ATOM     22  S   UNL     1       0.545  -3.161   1.691  0.00  0.00    -0.088 S 
BRANCH  22  23
ATOM     23  C   UNL     1       2.026  -4.098   1.504  0.00  0.00    +0.129 C 
ATOM     24  N   UNL     1       2.541  -4.417   0.307  0.00  0.00    -0.363 N 
ATOM     25  C   UNL     1       3.575  -5.400   0.559  0.00  0.00    +0.101 C 
ATOM     26  C   UNL     1       4.849  -5.408  -0.253  0.00  0.00    +0.026 C 
ATOM     27  C   UNL     1       5.698  -6.577   0.287  0.00  0.00    +0.002 C 
ATOM     28  C   UNL     1       5.972  -6.436   1.781  0.00  0.00    +0.002 C 
ATOM     29  C   UNL     1       4.677  -6.242   2.592  0.00  0.00    +0.024 C 
ATOM     30  C   UNL     1       3.997  -5.021   2.005  0.00  0.00    +0.094 C 
ATOM     31  N   UNL     1       2.740  -4.549   2.547  0.00  0.00    -0.321 N 
ATOM     32  H   UNL     1       2.469  -4.559   3.479  0.00  0.00    +0.148 HD
ATOM     33  H   UNL     1       2.275  -4.062  -0.555  0.00  0.00    +0.162 HD
ENDBRANCH  22  23
ENDBRANCH  21  22
ENDBRANCH   6  21
TORSDOF 5
