REMARK  Name = ZINC44172908
REMARK  10 active torsions:
REMARK  status: ('A' for Active; 'I' for Inactive)
REMARK    1  A    between atoms: C_1  and  C_2
REMARK    2  A    between atoms: C_2  and  C_3
REMARK    3  A    between atoms: C_2  and  C_4
REMARK    4  A    between atoms: C_4  and  C_5
REMARK    5  A    between atoms: C_5  and  C_34
REMARK    6  A    between atoms: C_10  and  C_13
REMARK    7  A    between atoms: C_14  and  C_15
REMARK    8  A    between atoms: C_18  and  O_21
REMARK    9  A    between atoms: O_21  and  C_22
REMARK   10  A    between atoms: N_25  and  C_28
REMARK                            x       y       z     vdW  Elec       q    Type
REMARK                         _______ _______ _______ _____ _____    ______ ____
ROOT
ATOM      1  C   UNL     1      -2.344  -2.142   0.699  0.00  0.00    +0.048 C 
ATOM      2  C   UNL     1      -3.856  -2.421   0.579  0.00  0.00    +0.086 C 
ATOM      3  C   UNL     1      -4.066  -2.853  -0.897  0.00  0.00    +0.076 C 
ATOM      4  C   UNL     1      -2.663  -2.779  -1.534  0.00  0.00    -0.034 C 
ATOM      5  N   UNL     1      -1.725  -2.946  -0.386  0.00  0.00    +0.395 N 
ATOM      6  C   UNL     1      -4.500  -4.297  -0.780  0.00  0.00    +0.225 C 
ATOM      7  O   UNL     1      -4.770  -5.025  -1.711  0.00  0.00    -0.275 OA
ATOM      8  N   UNL     1      -4.537  -4.646   0.511  0.00  0.00    -0.239 N 
ATOM      9  C   UNL     1      -4.198  -3.661   1.374  0.00  0.00    +0.225 C 
ATOM     10  O   UNL     1      -4.168  -3.748   2.583  0.00  0.00    -0.275 OA
ATOM     11  H   UNL     1      -0.816  -2.579  -0.623  0.00  0.00    -0.083 HD
ATOM     12  H   UNL     1      -1.656  -3.914  -0.112  0.00  0.00    -0.083 HD
ENDROOT
BRANCH   8  13
ATOM     13  C   UNL     1      -4.923  -5.987   0.959  0.00  0.00    +0.084 C 
ATOM     14  C   UNL     1      -3.961  -7.018   0.366  0.00  0.00    +0.023 C 
ATOM     15  C   UNL     1      -4.363  -8.419   0.833  0.00  0.00    +0.002 C 
ATOM     16  C   UNL     1      -5.788  -8.722   0.366  0.00  0.00    +0.000 C 
ATOM     17  C   UNL     1      -6.750  -7.691   0.959  0.00  0.00    +0.002 C 
ATOM     18  C   UNL     1      -6.348  -6.290   0.492  0.00  0.00    +0.023 C 
ENDBRANCH   8  13
BRANCH   1  19
ATOM     19  C   UNL     1      -1.829  -2.590   2.043  0.00  0.00    +0.346 C 
ATOM     20  O   UNL     1      -2.163  -1.994   3.053  0.00  0.00    -0.248 OA
ATOM     21  O   UNL     1      -1.080  -3.548   2.120  0.00  0.00    -0.248 OA
ENDBRANCH   1  19
BRANCH   4  22
ATOM     22  C   UNL     1      -2.473  -3.905  -2.518  0.00  0.00    -0.041 C 
ATOM     23  C   UNL     1      -2.116  -3.641  -3.767  0.00  0.00    +0.002 C 
BRANCH  23  24
ATOM     24  C   UNL     1      -1.746  -2.264  -4.154  0.00  0.00    -0.025 A 
ATOM     25  C   UNL     1      -0.968  -1.482  -3.298  0.00  0.00    +0.011 A 
ATOM     26  C   UNL     1      -0.625  -0.197  -3.663  0.00  0.00    +0.046 A 
ATOM     27  C   UNL     1      -1.050   0.319  -4.879  0.00  0.00    +0.120 A 
ATOM     28  C   UNL     1      -1.824  -0.456  -5.733  0.00  0.00    +0.046 A 
ATOM     29  C   UNL     1      -2.167  -1.743  -5.379  0.00  0.00    +0.011 A 
BRANCH  27  30
ATOM     30  O   UNL     1      -0.710   1.585  -5.235  0.00  0.00    -0.495 OA
ATOM     31  C   UNL     1      -1.181   2.053  -6.500  0.00  0.00    +0.277 C 
ENDBRANCH  27  30
ENDBRANCH  23  24
ENDBRANCH   4  22
BRANCH   1  32
ATOM     32  C   UNL     1      -2.058  -0.654   0.489  0.00  0.00    +0.002 C 
BRANCH  32  34
ATOM     33  C   UNL     1      -0.273   1.016  -0.028  0.00  0.00    +0.007 C 
ATOM     34  C   UNL     1      -0.548  -0.437   0.361  0.00  0.00    -0.018 C 
ATOM     35  C   UNL     1       0.126  -0.744   1.700  0.00  0.00    +0.007 C 
ENDBRANCH  32  34
ENDBRANCH   1  32
TORSDOF 7
