REMARK  Name = ZINC09993159
REMARK  14 active torsions:
REMARK  status: ('A' for Active; 'I' for Inactive)
REMARK    1  A    between atoms: C_1  and  C_2
REMARK    2  A    between atoms: C_2  and  C_3
REMARK    3  A    between atoms: C_2  and  C_4
REMARK    4  A    between atoms: C_2  and  C_5
REMARK    5  A    between atoms: C_8  and  S_11
REMARK    6  A    between atoms: S_11  and  C_13
REMARK    7  A    between atoms: C_13  and  C_14
REMARK    8  A    between atoms: C_14  and  C_16
REMARK    9  A    between atoms: C_14  and  O_38
REMARK   10  A    between atoms: C_16  and  S_17
REMARK   11  A    between atoms: S_17  and  C_18
REMARK   12  A    between atoms: C_19  and  C_36
REMARK   13  A    between atoms: C_20  and  C_30
REMARK   14  A    between atoms: C_22  and  C_24
REMARK                            x       y       z     vdW  Elec       q    Type
REMARK                         _______ _______ _______ _____ _____    ______ ____
ROOT
ATOM      1  C   UNL     1       2.023  -4.275  -0.928  0.00  0.00    +0.116 A 
ATOM      2  C   UNL     1       2.030  -2.869  -0.960  0.00  0.00    +0.091 A 
ATOM      3  C   UNL     1       1.248  -2.163  -0.021  0.00  0.00    +0.004 A 
ATOM      4  C   UNL     1       0.505  -2.897   0.903  0.00  0.00    +0.038 A 
ATOM      5  C   UNL     1       0.551  -4.288   0.862  0.00  0.00    +0.073 A 
ATOM      6  N   UNL     1       1.296  -4.924  -0.034  0.00  0.00    -0.239 NA
ENDROOT
BRANCH   5   7
ATOM      7  C   UNL     1      -0.242  -5.072   1.839  0.00  0.00    +0.000 A 
ATOM      8  C   UNL     1      -1.026  -4.418   2.789  0.00  0.00    +0.010 A 
ATOM      9  C   UNL     1      -1.767  -5.153   3.692  0.00  0.00    +0.001 A 
ATOM     10  C   UNL     1      -1.724  -6.536   3.663  0.00  0.00    +0.000 A 
ATOM     11  C   UNL     1      -0.944  -7.189   2.726  0.00  0.00    +0.001 A 
ATOM     12  C   UNL     1      -0.203  -6.465   1.814  0.00  0.00    +0.010 A 
ENDBRANCH   5   7
BRANCH   3  13
ATOM     13  C   UNL     1       1.221  -0.682  -0.013  0.00  0.00    -0.017 A 
ATOM     14  C   UNL     1       0.002  -0.004   0.002  0.00  0.00    +0.008 A 
ATOM     15  C   UNL     1      -0.017   1.376   0.010  0.00  0.00    +0.001 A 
ATOM     16  C   UNL     1       1.170   2.086   0.002  0.00  0.00    +0.000 A 
ATOM     17  C   UNL     1       2.382   1.419  -0.013  0.00  0.00    +0.001 A 
ATOM     18  C   UNL     1       2.414   0.040  -0.021  0.00  0.00    +0.008 A 
ENDBRANCH   3  13
BRANCH   2  19
ATOM     19  C   UNL     1       2.817  -2.166  -1.928  0.00  0.00    +0.102 C 
ATOM     20  N   UNL     1       3.442  -1.608  -2.695  0.00  0.00    -0.191 NA
ENDBRANCH   2  19
BRANCH   1  21
ATOM     21  S   UNL     1       2.992  -5.180  -2.089  0.00  0.00    -0.102 S 
BRANCH  21  22
ATOM     22  C   UNL     1       2.596  -6.871  -1.580  0.00  0.00    +0.108 C 
BRANCH  22  23
ATOM     23  C   UNL     1       3.345  -7.861  -2.473  0.00  0.00    +0.137 C 
BRANCH  23  24
ATOM     24  O   UNL     1       4.752  -7.723  -2.262  0.00  0.00    -0.390 OA
ATOM     25  H   UNL     1       5.032  -7.891  -1.352  0.00  0.00    +0.210 HD
ENDBRANCH  23  24
BRANCH  23  26
ATOM     26  C   UNL     1       2.915  -9.288  -2.125  0.00  0.00    +0.141 C 
BRANCH  26  27
ATOM     27  S   UNL     1       3.804 -10.463  -3.184  0.00  0.00    +0.056 S 
ATOM     28  O   UNL     1       5.178 -10.480  -2.823  0.00  0.00    -0.252 OA
BRANCH  27  32
ATOM     29  C   UNL     1       2.271 -14.510  -1.857  0.00  0.00    -0.042 A 
ATOM     30  C   UNL     1       1.627 -13.825  -2.870  0.00  0.00    +0.005 A 
ATOM     31  C   UNL     1       2.095 -12.589  -3.275  0.00  0.00    +0.017 A 
ATOM     32  C   UNL     1       3.207 -12.038  -2.667  0.00  0.00    +0.039 A 
ATOM     33  C   UNL     1       3.855 -12.725  -1.657  0.00  0.00    +0.017 A 
ATOM     34  C   UNL     1       3.384 -13.959  -1.249  0.00  0.00    +0.005 A 
BRANCH  29  36
ATOM     35  C   UNL     1       1.793 -16.828  -2.596  0.00  0.00    +0.015 C 
ATOM     36  C   UNL     1       1.760 -15.857  -1.414  0.00  0.00    -0.013 C 
ATOM     37  C   UNL     1       2.646 -16.393  -0.288  0.00  0.00    +0.015 C 
ATOM     38  C   UNL     1       0.323 -15.716  -0.909  0.00  0.00    +0.015 C 
ENDBRANCH  29  36
ENDBRANCH  27  32
ENDBRANCH  26  27
ENDBRANCH  23  26
ENDBRANCH  22  23
ENDBRANCH  21  22
ENDBRANCH   1  21
TORSDOF 11
