REMARK  Name = ZINC14546598
REMARK  3 active torsions:
REMARK  status: ('A' for Active; 'I' for Inactive)
REMARK    1  A    between atoms: C_1  and  C_2
REMARK    2  A    between atoms: C_5  and  N_26
REMARK    3  A    between atoms: C_9  and  C_18
REMARK                            x       y       z     vdW  Elec       q    Type
REMARK                         _______ _______ _______ _____ _____    ______ ____
ROOT
ATOM      1  C   UNL     1      -2.914   6.815  -2.773  0.00  0.00    +0.045 C 
ATOM      2  C   UNL     1      -2.496   7.648  -1.589  0.00  0.00    -0.029 A 
ATOM      3  C   UNL     1      -3.087   8.874  -1.376  0.00  0.00    +0.007 A 
ATOM      4  C   UNL     1      -2.713   9.650  -0.295  0.00  0.00    +0.033 A 
ATOM      5  C   UNL     1      -1.736   9.193   0.569  0.00  0.00    +0.132 A 
ATOM      6  C   UNL     1      -1.135   7.970   0.361  0.00  0.00    +0.011 A 
ATOM      7  C   UNL     1      -1.514   7.169  -0.720  0.00  0.00    +0.037 A 
ATOM      8  N   UNL     1      -0.989   5.904  -0.977  0.00  0.00    -0.336 N 
ATOM      9  C   UNL     1       0.101   5.449  -0.099  0.00  0.00    +0.108 C 
ATOM     10  C   UNL     1      -0.235   5.909   1.304  0.00  0.00    +0.029 C 
ATOM     11  C   UNL     1      -0.075   7.461   1.259  0.00  0.00    +0.051 C 
ATOM     12  C   UNL     1       0.003   7.832   2.693  0.00  0.00    -0.023 C 
ATOM     13  C   UNL     1       0.515   6.808   3.367  0.00  0.00    -0.030 C 
ATOM     14  C   UNL     1       0.774   5.615   2.420  0.00  0.00    +0.033 C 
ATOM     15  H   UNL     1      -0.734   5.808  -1.948  0.00  0.00    +0.147 HD
ENDROOT
BRANCH   9  16
ATOM     16  C   UNL     1       0.197   3.945  -0.137  0.00  0.00    +0.010 A 
ATOM     17  C   UNL     1       1.436   3.333  -0.208  0.00  0.00    +0.047 A 
ATOM     18  C   UNL     1       1.524   1.953  -0.243  0.00  0.00    +0.020 A 
ATOM     19  C   UNL     1       0.374   1.185  -0.206  0.00  0.00    +0.003 A 
ATOM     20  C   UNL     1      -0.864   1.797  -0.140  0.00  0.00    +0.020 A 
ATOM     21  C   UNL     1      -0.952   3.177  -0.100  0.00  0.00    +0.047 A 
ATOM     22 CL   UNL     1      -2.507   3.945  -0.011  0.00  0.00    -0.083 Cl
ATOM     23 CL   UNL     1       2.879   4.296  -0.255  0.00  0.00    -0.083 Cl
ENDBRANCH   9  16
BRANCH   5  24
ATOM     24  N   UNL     1      -1.332  10.022   1.726  0.00  0.00    +0.057 N 
ATOM     25  O   UNL     1      -2.178  10.464   2.483  0.00  0.00    -0.126 OA
ATOM     26  O   UNL     1      -0.154  10.263   1.921  0.00  0.00    -0.126 OA
ENDBRANCH   5  24
TORSDOF 2
