REMARK  Name = ZINC65508502
REMARK  9 active torsions:
REMARK  status: ('A' for Active; 'I' for Inactive)
REMARK    1  A    between atoms: C_1  and  C_2
REMARK    2  A    between atoms: C_4  and  C_8
REMARK    3  A    between atoms: C_8  and  N_9
REMARK    4  A    between atoms: C_12  and  C_27
REMARK    5  A    between atoms: C_14  and  C_16
REMARK    6  A    between atoms: C_19  and  C_22
REMARK    7  A    between atoms: C_23  and  C_24
REMARK    8  A    between atoms: C_24  and  C_25
REMARK    9  A    between atoms: C_25  and  O_26
REMARK                            x       y       z     vdW  Elec       q    Type
REMARK                         _______ _______ _______ _____ _____    ______ ____
ROOT
ATOM      1  N   UNL     1      -3.860   4.125  -3.021  0.00  0.00    +0.377 N 
ATOM      2  C   UNL     1      -2.966   4.836  -3.971  0.00  0.00    -0.164 C 
ATOM      3  N   UNL     1      -3.616   6.160  -4.147  0.00  0.00    +0.373 N 
ATOM      4  C   UNL     1      -5.067   5.860  -4.176  0.00  0.00    -0.053 C 
ATOM      5  C   UNL     1      -5.228   4.519  -3.434  0.00  0.00    -0.050 C 
ATOM      6  H   UNL     1      -3.397   6.766  -3.371  0.00  0.00    -0.088 HD
ATOM      7  H   UNL     1      -3.326   6.582  -5.017  0.00  0.00    -0.088 HD
ATOM      8  H   UNL     1      -3.679   4.424  -2.074  0.00  0.00    -0.083 HD
ENDROOT
BRANCH   5   9
ATOM      9  C   UNL     1      -6.107   4.697  -2.224  0.00  0.00    -0.062 A 
ATOM     10  C   UNL     1      -5.603   5.306  -1.089  0.00  0.00    +0.003 A 
ATOM     11  C   UNL     1      -6.403   5.472   0.023  0.00  0.00    +0.017 A 
ATOM     12  C   UNL     1      -7.724   5.024   0.001  0.00  0.00    +0.025 A 
ATOM     13  C   UNL     1      -8.227   4.410  -1.147  0.00  0.00    +0.017 A 
ATOM     14  C   UNL     1      -7.418   4.255  -2.254  0.00  0.00    +0.003 A 
BRANCH  12  15
ATOM     15  C   UNL     1      -8.560   5.193   1.151  0.00  0.00    -0.066 C 
ATOM     16  C   UNL     1      -9.245   5.331   2.095  0.00  0.00    -0.095 C 
BRANCH  16  17
ATOM     17  C   UNL     1     -10.104   5.504   3.277  0.00  0.00    +0.117 C 
BRANCH  17  18
ATOM     18  C   UNL     1     -11.492   4.930   2.988  0.00  0.00    +0.168 C 
BRANCH  18  19
ATOM     19  O   UNL     1     -12.326   5.098   4.136  0.00  0.00    -0.394 OA
ATOM     20  H   UNL     1     -13.224   4.756   4.024  0.00  0.00    +0.209 HD
ENDBRANCH  18  19
ENDBRANCH  17  18
ENDBRANCH  16  17
ENDBRANCH  12  15
ENDBRANCH   5   9
BRANCH   4  21
ATOM     21  C   UNL     1      -5.838   6.944  -3.469  0.00  0.00    -0.063 A 
ATOM     22  C   UNL     1      -5.324   7.523  -2.324  0.00  0.00    +0.002 A 
ATOM     23  C   UNL     1      -6.031   8.518  -1.675  0.00  0.00    +0.000 A 
ATOM     24  C   UNL     1      -7.252   8.935  -2.172  0.00  0.00    +0.000 A 
ATOM     25  C   UNL     1      -7.765   8.357  -3.318  0.00  0.00    +0.000 A 
ATOM     26  C   UNL     1      -7.056   7.365  -3.969  0.00  0.00    +0.002 A 
ENDBRANCH   4  21
BRANCH   1  27
ATOM     27  C   UNL     1      -3.686   2.672  -3.142  0.00  0.00    -0.023 C 
BRANCH  27  31
ATOM     28  C   UNL     1      -0.013   1.086   0.008  0.00  0.00    +0.065 C 
ATOM     29  C   UNL     1      -0.742   1.585  -1.213  0.00  0.00    +0.033 A 
ATOM     30  C   UNL     1      -2.069   1.833  -1.304  0.00  0.00    +0.045 A 
ATOM     31  C   UNL     1      -2.335   2.281  -2.602  0.00  0.00    +0.047 A 
ATOM     32  N   UNL     1      -1.208   2.300  -3.267  0.00  0.00    -0.181 NA
ATOM     33  H   UNL     1       0.753   1.789  -2.637  0.00  0.00    +0.188 HD
ATOM     34  N   UNL     1      -0.187   1.870  -2.410  0.00  0.00    -0.282 N 
ENDBRANCH  27  31
ENDBRANCH   1  27
TORSDOF 8
