REMARK  Name = ZINC12151587
REMARK  9 active torsions:
REMARK  status: ('A' for Active; 'I' for Inactive)
REMARK    1  A    between atoms: C_1  and  S_2
REMARK    2  A    between atoms: S_2  and  N_5
REMARK    3  A    between atoms: N_5  and  C_6
REMARK    4  A    between atoms: C_8  and  C_20
REMARK    5  A    between atoms: C_10  and  C_12
REMARK    6  A    between atoms: C_20  and  N_57
REMARK    7  A    between atoms: C_21  and  C_22
REMARK    8  A    between atoms: C_21  and  N_57
REMARK    9  A    between atoms: C_27  and  C_28
REMARK                            x       y       z     vdW  Elec       q    Type
REMARK                         _______ _______ _______ _____ _____    ______ ____
ROOT
ATOM      1  C   UNL     1      -5.329   0.595  -5.270  0.00  0.00    +0.049 A 
ATOM      2  C   UNL     1      -5.253   0.497  -3.885  0.00  0.00    +0.026 A 
ATOM      3  C   UNL     1      -4.420   1.340  -3.173  0.00  0.00    -0.062 A 
ATOM      4  C   UNL     1      -3.663   2.288  -3.832  0.00  0.00    +0.015 A 
ATOM      5  C   UNL     1      -3.728   2.390  -5.222  0.00  0.00    +0.039 A 
ATOM      6  C   UNL     1      -4.569   1.540  -5.941  0.00  0.00    +0.037 A 
ENDROOT
BRANCH   5   7
ATOM      7  C   UNL     1      -2.914   3.401  -5.931  0.00  0.00    +0.247 C 
ATOM      8  O   UNL     1      -1.766   3.606  -5.587  0.00  0.00    -0.270 OA
ATOM      9  N   UNL     1      -3.444   4.094  -6.957  0.00  0.00    -0.298 N 
ATOM     10  C   UNL     1      -4.862   3.942  -7.311  0.00  0.00    +0.108 C 
ATOM     11  C   UNL     1      -5.511   5.334  -7.338  0.00  0.00    +0.019 C 
ATOM     12  C   UNL     1      -4.721   6.240  -8.285  0.00  0.00    +0.003 C 
ATOM     13  C   UNL     1      -3.286   6.388  -7.774  0.00  0.00    +0.019 C 
ATOM     14  C   UNL     1      -2.613   5.012  -7.749  0.00  0.00    +0.108 C 
ENDBRANCH   5   7
BRANCH   1  15
ATOM     15  N   UNL     1      -6.173  -0.259  -5.985  0.00  0.00    -0.221 N 
ATOM     16  H   UNL     1      -7.133  -0.122  -5.963  0.00  0.00    +0.173 HD
BRANCH  15  18
ATOM     17  C   UNL     1      -4.744  -2.587  -5.648  0.00  0.00    +0.218 C 
ATOM     18  S   UNL     1      -5.534  -1.504  -6.870  0.00  0.00    +0.040 S 
ATOM     19  O   UNL     1      -6.659  -2.154  -7.446  0.00  0.00    -0.155 OA
ATOM     20  O   UNL     1      -4.549  -0.895  -7.694  0.00  0.00    -0.155 OA
ENDBRANCH  15  18
ENDBRANCH   1  15
BRANCH   3  21
ATOM     21  C   UNL     1      -4.343   1.228  -1.672  0.00  0.00    -0.046 C 
BRANCH  21  22
ATOM     22  N   UNL     1      -3.281   0.269  -1.313  0.00  0.00    +0.384 N 
ATOM     23  H   UNL     1      -2.384   0.604  -1.685  0.00  0.00    -0.085 HD
ATOM     24  H   UNL     1      -3.500  -0.647  -1.721  0.00  0.00    -0.085 HD
BRANCH  22  25
ATOM     25  C   UNL     1      -3.183   0.139   0.153  0.00  0.00    -0.046 C 
BRANCH  25  26
ATOM     26  C   UNL     1      -2.015  -0.750   0.493  0.00  0.00    -0.053 A 
ATOM     27  C   UNL     1      -0.830  -0.195   0.940  0.00  0.00    +0.002 A 
ATOM     28  C   UNL     1       0.241  -1.011   1.252  0.00  0.00    +0.000 A 
ATOM     29  C   UNL     1       0.128  -2.382   1.117  0.00  0.00    +0.001 A 
ATOM     30  C   UNL     1      -1.058  -2.938   0.675  0.00  0.00    +0.012 A 
ATOM     31  C   UNL     1      -2.128  -2.121   0.358  0.00  0.00    +0.056 A 
BRANCH  31  32
ATOM     32  C   UNL     1      -3.420  -2.726  -0.129  0.00  0.00    +0.418 C 
ATOM     33  F   UNL     1      -3.273  -4.114  -0.235  0.00  0.00    -0.166 F 
ATOM     34  F   UNL     1      -4.443  -2.433   0.779  0.00  0.00    -0.166 F 
ATOM     35  F   UNL     1      -3.741  -2.194  -1.382  0.00  0.00    -0.166 F 
ENDBRANCH  31  32
ENDBRANCH  25  26
ENDBRANCH  22  25
ENDBRANCH  21  22
ENDBRANCH   3  21
TORSDOF 8
