REMARK  Name = ZINC17157544
REMARK  5 active torsions:
REMARK  status: ('A' for Active; 'I' for Inactive)
REMARK    1  A    between atoms: C_3  and  O_8
REMARK    2  A    between atoms: O_8  and  C_9
REMARK    3  A    between atoms: C_9  and  C_10
REMARK    4  A    between atoms: N_12  and  N_13
REMARK    5  A    between atoms: C_14  and  C_16
REMARK                            x       y       z     vdW  Elec       q    Type
REMARK                         _______ _______ _______ _____ _____    ______ ____
ROOT
ATOM      1  N   UNL     1      -7.135   0.522   0.040  0.00  0.00    -0.234 N 
ATOM      2  C   UNL     1      -8.387   1.022   0.049  0.00  0.00    +0.235 C 
ATOM      3  O   UNL     1      -8.561   2.222   0.056  0.00  0.00    -0.274 OA
ATOM      4  H   UNL     1      -6.978  -0.567   0.034  0.00  0.00    +0.173 HD
ENDROOT
BRANCH   2   5
ATOM      5  C   UNL     1      -9.570   0.089   0.050  0.00  0.00    +0.049 C 
ATOM      6  C   UNL     1      -9.531  -0.787  -1.204  0.00  0.00    +0.019 C 
ATOM      7  C   UNL     1     -10.732  -1.734  -1.203  0.00  0.00    -0.009 C 
ATOM      8  C   UNL     1     -12.026  -0.917  -1.192  0.00  0.00    +0.007 C 
ATOM      9  C   UNL     1     -12.066  -0.041   0.061  0.00  0.00    -0.009 C 
ATOM     10  C   UNL     1     -10.864   0.906   0.060  0.00  0.00    +0.019 C 
ATOM     11  C   UNL     1     -12.013  -0.930   1.306  0.00  0.00    +0.007 C 
ATOM     12  C   UNL     1     -10.720  -1.747   1.296  0.00  0.00    -0.009 C 
ATOM     13  C   UNL     1     -10.680  -2.623   0.042  0.00  0.00    +0.007 C 
ATOM     14  C   UNL     1      -9.518  -0.800   1.294  0.00  0.00    +0.019 C 
ENDBRANCH   2   5
BRANCH   1  17
ATOM     15  C   UNL     1      -4.783   0.890   0.030  0.00  0.00    +0.267 C 
ATOM     16  O   UNL     1      -4.609  -0.311   0.024  0.00  0.00    -0.271 OA
ATOM     17  N   UNL     1      -6.035   1.389   0.039  0.00  0.00    -0.232 N 
ATOM     18  H   UNL     1      -6.192   2.478   0.045  0.00  0.00    +0.173 HD
BRANCH  15  19
ATOM     19  C   UNL     1      -3.599   1.823   0.029  0.00  0.00    +0.326 C 
BRANCH  19  20
ATOM     20  O   UNL     1      -2.391   1.059   0.020  0.00  0.00    -0.483 OA
BRANCH  20  23
ATOM     21  C   UNL     1       1.174   1.783   0.000  0.00  0.00    +0.005 A 
ATOM     22  C   UNL     1      -0.013   1.076   0.008  0.00  0.00    +0.046 A 
ATOM     23  C   UNL     1      -1.223   1.753   0.017  0.00  0.00    +0.123 A 
ATOM     24  C   UNL     1      -1.239   3.140   0.030  0.00  0.00    +0.065 A 
ATOM     25  C   UNL     1      -0.049   3.844   0.021  0.00  0.00    +0.044 A 
ATOM     26  C   UNL     1       1.157   3.165   0.007  0.00  0.00    +0.020 A 
ATOM     27 CL   UNL     1      -0.068   5.580   0.029  0.00  0.00    -0.083 Cl
ENDBRANCH  20  23
ENDBRANCH  19  20
ENDBRANCH  15  19
ENDBRANCH   1  17
TORSDOF 5
