REMARK  Name = ZINC48339497
REMARK  7 active torsions:
REMARK  status: ('A' for Active; 'I' for Inactive)
REMARK    1  A    between atoms: C_1  and  C_2
REMARK    2  A    between atoms: C_2  and  C_4
REMARK    3  A    between atoms: C_2  and  N_17
REMARK    4  A    between atoms: N_6  and  N_7
REMARK    5  A    between atoms: C_8  and  C_10
REMARK    6  A    between atoms: C_15  and  O_16
REMARK    7  A    between atoms: C_18  and  C_20
REMARK                            x       y       z     vdW  Elec       q    Type
REMARK                         _______ _______ _______ _____ _____    ______ ____
ROOT
ATOM      1  C   UNL     1       0.707  -0.490  -1.238  0.00  0.00    +0.249 C 
ATOM      2  O   UNL     1       0.120  -1.191  -2.034  0.00  0.00    -0.272 OA
ATOM      3  N   UNL     1       1.991  -0.146  -1.462  0.00  0.00    -0.233 N 
ATOM      4  H   UNL     1       2.461   0.415  -0.825  0.00  0.00    +0.173 HD
ENDROOT
BRANCH   3   5
ATOM      5  N   UNL     1       2.647  -0.598  -2.614  0.00  0.00    -0.230 N 
ATOM      6  C   UNL     1       3.931  -0.253  -2.838  0.00  0.00    +0.264 C 
ATOM      7  O   UNL     1       4.520   0.449  -2.039  0.00  0.00    -0.269 OA
ATOM      8  H   UNL     1       2.177  -1.158  -3.251  0.00  0.00    +0.173 HD
BRANCH   6   9
ATOM      9  C   UNL     1       4.621  -0.729  -4.052  0.00  0.00    +0.079 A 
ATOM     10  C   UNL     1       3.946  -1.532  -4.975  0.00  0.00    +0.017 A 
ATOM     11  C   UNL     1       4.597  -1.973  -6.106  0.00  0.00    +0.001 A 
ATOM     12  C   UNL     1       5.918  -1.624  -6.334  0.00  0.00    +0.004 A 
ATOM     13  C   UNL     1       6.597  -0.832  -5.430  0.00  0.00    +0.046 A 
ATOM     14  C   UNL     1       5.956  -0.374  -4.288  0.00  0.00    +0.129 A 
BRANCH  14  15
ATOM     15  O   UNL     1       6.620   0.410  -3.402  0.00  0.00    -0.506 OA
ATOM     16  H   UNL     1       7.081  -0.082  -2.710  0.00  0.00    +0.292 HD
ENDBRANCH  14  15
ENDBRANCH   6   9
ENDBRANCH   3   5
BRANCH   1  18
ATOM     17  C   UNL     1      -0.019   1.526   0.010  0.00  0.00    +0.038 C 
ATOM     18  C   UNL     1       0.002  -0.004   0.002  0.00  0.00    +0.158 C 
BRANCH  18  19
ATOM     19  N   UNL     1      -1.372  -0.511   0.012  0.00  0.00    -0.300 N 
ATOM     20  C   UNL     1      -2.029  -0.655   1.181  0.00  0.00    +0.251 C 
ATOM     21  O   UNL     1      -1.480  -0.364   2.227  0.00  0.00    -0.270 OA
ATOM     22  H   UNL     1      -1.810  -0.743  -0.822  0.00  0.00    +0.150 HD
BRANCH  20  23
ATOM     23  C   UNL     1      -3.403  -1.162   1.191  0.00  0.00    +0.075 A 
ATOM     24  C   UNL     1      -4.247  -1.377   2.270  0.00  0.00    +0.022 A 
ATOM     25  C   UNL     1      -5.494  -1.866   1.965  0.00  0.00    +0.024 A 
ATOM     26  C   UNL     1      -5.811  -2.099   0.666  0.00  0.00    +0.056 A 
ATOM     27  S   UNL     1      -4.429  -1.656  -0.181  0.00  0.00    -0.077 S 
ATOM     28 BR   UNL     1      -7.438  -2.764  -0.033  0.00  0.00    -0.043 Br
ENDBRANCH  20  23
ENDBRANCH  18  19
ENDBRANCH   1  18
TORSDOF 6
