REMARK  Name = ZINC25449606
REMARK  5 active torsions:
REMARK  status: ('A' for Active; 'I' for Inactive)
REMARK    1  A    between atoms: C_4  and  C_7
REMARK    2  A    between atoms: C_10  and  N_12
REMARK    3  A    between atoms: C_13  and  C_15
REMARK    4  A    between atoms: C_18  and  C_21
REMARK    5  A    between atoms: C_21  and  N_22
REMARK                            x       y       z     vdW  Elec       q    Type
REMARK                         _______ _______ _______ _____ _____    ______ ____
ROOT
ATOM      1  N   UNL     1       9.055   1.835   1.744  0.00  0.00    -0.181 NA
ATOM      2  C   UNL     1       8.006   2.261   2.475  0.00  0.00    +0.280 C 
ATOM      3  O   UNL     1       8.119   3.240   3.187  0.00  0.00    -0.265 OA
ENDROOT
BRANCH   2   4
ATOM      4  C   UNL     1       6.718   1.539   2.412  0.00  0.00    +0.041 A 
ATOM      5  C   UNL     1       5.630   1.978   3.167  0.00  0.00    +0.013 A 
ATOM      6  C   UNL     1       4.430   1.300   3.103  0.00  0.00    +0.002 A 
ATOM      7  C   UNL     1       4.305   0.186   2.291  0.00  0.00    -0.064 A 
ATOM      8  C   UNL     1       5.381  -0.258   1.544  0.00  0.00    +0.002 A 
ATOM      9  C   UNL     1       6.585   0.414   1.595  0.00  0.00    +0.013 A 
BRANCH   7  10
ATOM     10  C   UNL     1       2.991  -0.550   2.226  0.00  0.00    -0.043 C 
BRANCH  10  11
ATOM     11  N   UNL     1       2.163   0.021   1.155  0.00  0.00    +0.382 N 
ATOM     12  C   UNL     1       0.793  -0.505   1.212  0.00  0.00    -0.078 C 
ATOM     13  C   UNL     1       0.002  -0.004   0.002  0.00  0.00    -0.019 C 
ATOM     14  C   UNL     1      -0.019   1.527   0.010  0.00  0.00    -0.004 C 
ATOM     15  C   UNL     1       1.421   2.049  -0.001  0.00  0.00    -0.019 C 
ATOM     16  C   UNL     1       2.171   1.488   1.210  0.00  0.00    -0.078 C 
ATOM     17  H   UNL     1       2.598  -0.281   0.191  0.00  0.00    -0.081 HD
ENDBRANCH  10  11
ENDBRANCH   7  10
ENDBRANCH   2   4
BRANCH   1  21
ATOM     18  C   UNL     1      12.710   3.560   1.673  0.00  0.00    +0.134 A 
ATOM     19  N   UNL     1      11.763   4.085   2.441  0.00  0.00    -0.139 NA
ATOM     20  N   UNL     1      10.603   3.592   2.499  0.00  0.00    -0.121 NA
ATOM     21  C   UNL     1      10.264   2.513   1.804  0.00  0.00    +0.219 A 
ATOM     22  S   UNL     1      11.809   2.187   0.960  0.00  0.00    -0.026 S 
BRANCH  18  26
ATOM     23  C   UNL     1      16.733   4.787   1.080  0.00  0.00    +0.000 A 
ATOM     24  C   UNL     1      15.916   5.499   1.940  0.00  0.00    +0.001 A 
ATOM     25  C   UNL     1      14.608   5.106   2.137  0.00  0.00    +0.010 A 
ATOM     26  C   UNL     1      14.110   3.987   1.466  0.00  0.00    +0.009 A 
ATOM     27  C   UNL     1      14.942   3.271   0.604  0.00  0.00    +0.010 A 
ATOM     28  C   UNL     1      16.246   3.678   0.412  0.00  0.00    +0.001 A 
ENDBRANCH  18  26
ENDBRANCH   1  21
TORSDOF 5
