REMARK  Name = ZINC06930438
REMARK  11 active torsions:
REMARK  status: ('A' for Active; 'I' for Inactive)
REMARK    1  A    between atoms: C_1  and  C_2
REMARK    2  A    between atoms: C_7  and  N_12
REMARK    3  A    between atoms: C_9  and  C_11
REMARK    4  A    between atoms: N_12  and  C_13
REMARK    5  A    between atoms: C_13  and  C_14
REMARK    6  A    between atoms: C_14  and  C_16
REMARK    7  A    between atoms: C_14  and  O_33
REMARK    8  A    between atoms: C_16  and  O_17
REMARK    9  A    between atoms: O_17  and  C_18
REMARK   10  A    between atoms: C_18  and  C_19
REMARK   11  A    between atoms: C_18  and  C_26
REMARK                            x       y       z     vdW  Elec       q    Type
REMARK                         _______ _______ _______ _____ _____    ______ ____
ROOT
ATOM      1  C   UNL     1       2.468  -6.019   3.524  0.00  0.00    +0.190 C 
ENDROOT
BRANCH   1   2
ATOM      2  C   UNL     1       2.338  -4.496   3.595  0.00  0.00    +0.123 C 
BRANCH   2   3
ATOM      3  O   UNL     1       3.640  -3.909   3.646  0.00  0.00    -0.391 OA
ATOM      4  H   UNL     1       4.194  -4.113   2.880  0.00  0.00    +0.210 HD
ENDBRANCH   2   3
BRANCH   2   5
ATOM      5  C   UNL     1       1.598  -3.990   2.355  0.00  0.00    -0.048 C 
BRANCH   5   6
ATOM      6  N   UNL     1       1.473  -2.527   2.423  0.00  0.00    +0.383 N 
ATOM      7  H   UNL     1       2.393  -2.113   2.459  0.00  0.00    -0.085 HD
ATOM      8  H   UNL     1       0.957  -2.272   3.251  0.00  0.00    -0.085 HD
BRANCH   6  14
ATOM      9  C   UNL     1      -0.019   1.526   0.010  0.00  0.00    +0.008 C 
ATOM     10  C   UNL     1       0.002  -0.004   0.002  0.00  0.00    -0.013 C 
ATOM     11  C   UNL     1      -1.433  -0.534   0.013  0.00  0.00    +0.003 C 
ATOM     12  C   UNL     1      -1.413  -2.063   0.004  0.00  0.00    -0.001 C 
ATOM     13  C   UNL     1      -0.673  -2.570   1.244  0.00  0.00    -0.015 C 
ATOM     14  C   UNL     1       0.763  -2.041   1.233  0.00  0.00    -0.069 C 
ATOM     15  C   UNL     1       0.742  -0.511   1.242  0.00  0.00    -0.025 C 
ATOM     16  C   UNL     1       0.026  -0.018   2.500  0.00  0.00    +0.006 C 
ENDBRANCH   6  14
ENDBRANCH   5   6
ENDBRANCH   2   5
ENDBRANCH   1   2
BRANCH   1  17
ATOM     17  O   UNL     1       3.054  -6.504   4.734  0.00  0.00    -0.365 OA
BRANCH  17  18
ATOM     18  C   UNL     1       3.221  -7.923   4.771  0.00  0.00    +0.178 C 
BRANCH  18  19
ATOM     19  C   UNL     1       4.573  -8.284   4.212  0.00  0.00    -0.014 A 
ATOM     20  C   UNL     1       5.677  -7.511   4.519  0.00  0.00    +0.009 A 
ATOM     21  C   UNL     1       6.917  -7.842   4.008  0.00  0.00    +0.039 A 
ATOM     22  C   UNL     1       7.054  -8.949   3.187  0.00  0.00    +0.123 A 
ATOM     23  C   UNL     1       5.947  -9.723   2.880  0.00  0.00    +0.039 A 
ATOM     24  C   UNL     1       4.709  -9.393   3.397  0.00  0.00    +0.009 A 
ATOM     25  F   UNL     1       8.266  -9.274   2.686  0.00  0.00    -0.205 F 
ENDBRANCH  18  19
BRANCH  18  26
ATOM     26  C   UNL     1       3.122  -8.403   6.196  0.00  0.00    -0.014 A 
ATOM     27  C   UNL     1       3.604  -7.616   7.225  0.00  0.00    +0.009 A 
ATOM     28  C   UNL     1       3.514  -8.055   8.533  0.00  0.00    +0.039 A 
ATOM     29  C   UNL     1       2.938  -9.284   8.811  0.00  0.00    +0.123 A 
ATOM     30  C   UNL     1       2.455 -10.070   7.780  0.00  0.00    +0.039 A 
ATOM     31  C   UNL     1       2.542  -9.627   6.474  0.00  0.00    +0.009 A 
ATOM     32  F   UNL     1       2.849  -9.714  10.089  0.00  0.00    -0.205 F 
ENDBRANCH  18  26
ENDBRANCH  17  18
ENDBRANCH   1  17
TORSDOF 9
