REMARK  Name = ZINC06982861
REMARK  6 active torsions:
REMARK  status: ('A' for Active; 'I' for Inactive)
REMARK    1  A    between atoms: C_1  and  C_2
REMARK    2  A    between atoms: C_2  and  C_3
REMARK    3  A    between atoms: C_11  and  C_12
REMARK    4  A    between atoms: C_12  and  C_13
REMARK    5  A    between atoms: N_15  and  N_16
REMARK    6  A    between atoms: C_17  and  C_19
REMARK                            x       y       z     vdW  Elec       q    Type
REMARK                         _______ _______ _______ _____ _____    ______ ____
ROOT
ATOM      1  C   UNL     1      -0.014   1.209   0.009  0.00  0.00    +0.234 C 
ATOM      2  O   UNL     1       0.002  -0.004   0.002  0.00  0.00    -0.274 OA
ATOM      3  N   UNL     1      -1.191   1.867   0.018  0.00  0.00    -0.234 N 
ATOM      4  H   UNL     1      -1.204   2.837   0.023  0.00  0.00    +0.173 HD
ENDROOT
BRANCH   3   5
ATOM      5  N   UNL     1      -2.394   1.150   0.020  0.00  0.00    -0.230 N 
ATOM      6  C   UNL     1      -3.571   1.808   0.029  0.00  0.00    +0.262 C 
ATOM      7  O   UNL     1      -3.587   3.023   0.035  0.00  0.00    -0.269 OA
ATOM      8  H   UNL     1      -2.381   0.180   0.014  0.00  0.00    +0.173 HD
BRANCH   6   9
ATOM      9  C   UNL     1      -4.840   1.051   0.031  0.00  0.00    +0.058 A 
ATOM     10  C   UNL     1      -4.825  -0.345   0.017  0.00  0.00    +0.034 A 
ATOM     11  C   UNL     1      -6.014  -1.045   0.024  0.00  0.00    +0.042 A 
ATOM     12  C   UNL     1      -7.221  -0.365   0.033  0.00  0.00    +0.021 A 
ATOM     13  C   UNL     1      -7.244   1.017   0.042  0.00  0.00    +0.022 A 
ATOM     14  C   UNL     1      -6.061   1.730   0.040  0.00  0.00    +0.053 A 
ATOM     15 CL   UNL     1      -6.091   3.466   0.051  0.00  0.00    -0.083 Cl
ATOM     16 CL   UNL     1      -5.997  -2.781   0.013  0.00  0.00    -0.084 Cl
ENDBRANCH   6   9
ENDBRANCH   3   5
BRANCH   1  17
ATOM     17  C   UNL     1       1.280   1.980   0.001  0.00  0.00    +0.136 C 
BRANCH  17  26
ATOM     18  C   UNL     1       4.583  -1.103  -2.938  0.00  0.00    -0.044 A 
ATOM     19  C   UNL     1       3.555  -0.307  -3.422  0.00  0.00    +0.004 A 
ATOM     20  C   UNL     1       2.787   0.430  -2.564  0.00  0.00    +0.012 A 
ATOM     21  C   UNL     1       3.040   0.380  -1.194  0.00  0.00    +0.024 A 
ATOM     22  C   UNL     1       4.080  -0.424  -0.697  0.00  0.00    +0.135 A 
ATOM     23  C   UNL     1       4.848  -1.165  -1.587  0.00  0.00    +0.050 A 
ATOM     24  O   UNL     1       4.093  -0.278   0.643  0.00  0.00    -0.463 OA
ATOM     25  C   UNL     1       3.131   0.572   1.042  0.00  0.00    +0.200 A 
ATOM     26  C   UNL     1       2.439   1.016  -0.016  0.00  0.00    +0.007 A 
BRANCH  18  28
ATOM     27  C   UNL     1       6.619  -1.076  -4.354  0.00  0.00    +0.009 C 
ATOM     28  C   UNL     1       5.418  -1.909  -3.899  0.00  0.00    +0.032 C 
ENDBRANCH  18  28
ENDBRANCH  17  26
ENDBRANCH   1  17
TORSDOF 5
