REMARK  Name = ZINC52627011
REMARK  6 active torsions:
REMARK  status: ('A' for Active; 'I' for Inactive)
REMARK    1  A    between atoms: C_4  and  C_8
REMARK    2  A    between atoms: C_8  and  C_9
REMARK    3  A    between atoms: C_9  and  C_11
REMARK    4  A    between atoms: C_9  and  N_28
REMARK    5  A    between atoms: C_11  and  C_12
REMARK    6  A    between atoms: C_18  and  C_24
REMARK                            x       y       z     vdW  Elec       q    Type
REMARK                         _______ _______ _______ _____ _____    ______ ____
ROOT
ATOM      1  C   UNL     1       5.625  -1.490   1.367  0.00  0.00    +0.080 C 
ENDROOT
BRANCH   1   2
ATOM      2  C   UNL     1       6.189  -1.523   2.764  0.00  0.00    +0.214 C 
ATOM      3  O   UNL     1       5.542  -1.082   3.690  0.00  0.00    -0.276 OA
ATOM      4  N   UNL     1       7.413  -2.042   2.985  0.00  0.00    -0.299 N 
ATOM      5  C   UNL     1       8.188  -2.567   1.857  0.00  0.00    +0.112 C 
ATOM      6  C   UNL     1       8.556  -4.040   2.123  0.00  0.00    +0.054 C 
ATOM      7  C   UNL     1       9.030  -4.107   3.548  0.00  0.00    -0.009 C 
ATOM      8  C   UNL     1      10.121  -4.586   4.104  0.00  0.00    +0.167 C 
ATOM      9  N   UNL     1      10.146  -4.289   5.428  0.00  0.00    -0.149 NA
ATOM     10  N   UNL     1       9.146  -3.683   5.837  0.00  0.00    -0.178 NA
ATOM     11  C   UNL     1       8.221  -3.539   4.711  0.00  0.00    +0.173 C 
ATOM     12  C   UNL     1       7.953  -2.068   4.354  0.00  0.00    +0.140 C 
BRANCH   8  13
ATOM     13  C   UNL     1      11.192  -5.357   3.375  0.00  0.00    +0.436 C 
ATOM     14  F   UNL     1      10.842  -5.478   2.026  0.00  0.00    -0.164 F 
ATOM     15  F   UNL     1      12.410  -4.677   3.481  0.00  0.00    -0.164 F 
ATOM     16  F   UNL     1      11.317  -6.630   3.941  0.00  0.00    -0.164 F 
ENDBRANCH   8  13
ENDBRANCH   1   2
BRANCH   1  17
ATOM     17  C   UNL     1       4.233  -0.856   1.393  0.00  0.00    -0.062 C 
BRANCH  17  18
ATOM     18  N   UNL     1       3.319  -1.711   2.162  0.00  0.00    +0.381 N 
ATOM     19  H   UNL     1       2.401  -1.293   2.179  0.00  0.00    -0.090 HD
ATOM     20  H   UNL     1       3.266  -2.621   1.728  0.00  0.00    -0.090 HD
ATOM     21  H   UNL     1       3.663  -1.808   3.105  0.00  0.00    -0.090 HD
ENDBRANCH  17  18
BRANCH  17  22
ATOM     22  C   UNL     1       3.713  -0.709  -0.038  0.00  0.00    +0.022 C 
BRANCH  22  26
ATOM     23  C   UNL     1      -0.017   1.380   0.010  0.00  0.00    +0.041 A 
ATOM     24  C   UNL     1       1.171   2.087   0.002  0.00  0.00    +0.041 A 
ATOM     25  C   UNL     1       2.379   1.412  -0.013  0.00  0.00    +0.127 A 
ATOM     26  C   UNL     1       2.397   0.027  -0.021  0.00  0.00    -0.011 A 
ATOM     27  C   UNL     1       1.210  -0.680  -0.013  0.00  0.00    +0.044 A 
ATOM     28  C   UNL     1       0.002  -0.004   0.002  0.00  0.00    +0.124 A 
ATOM     29  F   UNL     1      -1.159  -0.695   0.009  0.00  0.00    -0.205 F 
ATOM     30  F   UNL     1       3.539   2.103  -0.021  0.00  0.00    -0.205 F 
ENDBRANCH  22  26
ENDBRANCH  17  22
ENDBRANCH   1  17
TORSDOF 6
