REMARK  Name = ZINC25577940
REMARK  8 active torsions:
REMARK  status: ('A' for Active; 'I' for Inactive)
REMARK    1  A    between atoms: C_3  and  O_27
REMARK    2  A    between atoms: C_6  and  N_7
REMARK    3  A    between atoms: C_11  and  S_13
REMARK    4  A    between atoms: S_13  and  C_14
REMARK    5  A    between atoms: C_14  and  C_15
REMARK    6  A    between atoms: C_15  and  C_16
REMARK    7  A    between atoms: N_21  and  C_22
REMARK    8  A    between atoms: O_27  and  C_28
REMARK                            x       y       z     vdW  Elec       q    Type
REMARK                         _______ _______ _______ _____ _____    ______ ____
ROOT
ATOM      1  N   UNL     1      -6.719  -4.674   0.040  0.00  0.00    -0.292 N 
ATOM      2  C   UNL     1      -5.580  -3.900  -0.153  0.00  0.00    +0.187 A 
ATOM      3  N   UNL     1      -5.450  -2.588  -0.143  0.00  0.00    -0.125 NA
ATOM      4  N   UNL     1      -4.216  -2.021  -0.359  0.00  0.00    -0.133 NA
ATOM      5  C   UNL     1      -3.167  -2.792  -0.574  0.00  0.00    +0.160 A 
ATOM      6  S   UNL     1      -3.903  -4.418  -0.486  0.00  0.00    -0.024 S 
ATOM      7  H   UNL     1      -6.636  -5.769   0.098  0.00  0.00    +0.154 HD
ENDROOT
BRANCH   1  13
ATOM      8  C   UNL     1      -8.991  -4.692   0.858  0.00  0.00    +0.027 A 
ATOM      9  C   UNL     1     -10.224  -4.082   0.981  0.00  0.00    +0.048 A 
ATOM     10  C   UNL     1     -10.447  -2.843   0.397  0.00  0.00    +0.130 A 
ATOM     11  C   UNL     1      -9.430  -2.213  -0.305  0.00  0.00    +0.048 A 
ATOM     12  C   UNL     1      -8.194  -2.819  -0.424  0.00  0.00    +0.027 A 
ATOM     13  C   UNL     1      -7.971  -4.059   0.160  0.00  0.00    +0.033 A 
BRANCH  10  14
ATOM     14  O   UNL     1     -11.663  -2.246   0.514  0.00  0.00    -0.406 OA
BRANCH  14  15
ATOM     15  C   UNL     1     -12.664  -2.951   1.251  0.00  0.00    +0.575 C 
ATOM     16  F   UNL     1     -12.220  -3.158   2.561  0.00  0.00    -0.133 F 
ATOM     17  F   UNL     1     -13.844  -2.199   1.272  0.00  0.00    -0.133 F 
ATOM     18  F   UNL     1     -12.909  -4.186   0.641  0.00  0.00    -0.133 F 
ENDBRANCH  14  15
ENDBRANCH  10  14
ENDBRANCH   1  13
BRANCH   5  19
ATOM     19  S   UNL     1      -1.491  -2.341  -0.876  0.00  0.00    -0.096 S 
BRANCH  19  20
ATOM     20  C   UNL     1      -1.510  -0.527  -0.826  0.00  0.00    +0.085 C 
BRANCH  20  21
ATOM     21  C   UNL     1      -0.097   0.004  -1.077  0.00  0.00    +0.107 C 
BRANCH  21  22
ATOM     22  C   UNL     1      -0.112   1.511  -1.035  0.00  0.00    +0.221 C 
ATOM     23  O   UNL     1      -1.151   2.101  -0.831  0.00  0.00    -0.275 OA
ATOM     24  N   UNL     1       1.028   2.202  -1.230  0.00  0.00    -0.240 N 
ATOM     25  C   UNL     1       1.014   3.549  -1.193  0.00  0.00    +0.306 C 
ATOM     26  O   UNL     1      -0.026   4.141  -0.984  0.00  0.00    -0.252 OA
ATOM     27  N   UNL     1       2.155   4.240  -1.389  0.00  0.00    -0.296 N 
ATOM     28  H   UNL     1       1.970   1.666  -1.420  0.00  0.00    +0.159 HD
ATOM     29  H   UNL     1       3.097   3.705  -1.579  0.00  0.00    +0.151 HD
BRANCH  27  30
ATOM     30  C   UNL     1       2.140   5.704  -1.348  0.00  0.00    +0.074 C 
ATOM     31  C   UNL     1       1.815   6.268  -2.747  0.00  0.00    +0.022 C 
ATOM     32  C   UNL     1       2.697   7.536  -2.860  0.00  0.00    +0.002 C 
ATOM     33  C   UNL     1       4.008   7.104  -2.158  0.00  0.00    +0.002 C 
ATOM     34  C   UNL     1       3.534   6.236  -0.974  0.00  0.00    +0.022 C 
ENDBRANCH  27  30
ENDBRANCH  21  22
ENDBRANCH  20  21
ENDBRANCH  19  20
ENDBRANCH   5  19
TORSDOF 8
