REMARK  Name = ZINC20703615
REMARK  7 active torsions:
REMARK  status: ('A' for Active; 'I' for Inactive)
REMARK    1  A    between atoms: C_2  and  C_3
REMARK    2  A    between atoms: C_3  and  O_4
REMARK    3  A    between atoms: O_4  and  C_5
REMARK    4  A    between atoms: C_12  and  C_21
REMARK    5  A    between atoms: C_24  and  O_27
REMARK    6  A    between atoms: O_27  and  C_28
REMARK    7  A    between atoms: C_28  and  C_29
REMARK                            x       y       z     vdW  Elec       q    Type
REMARK                         _______ _______ _______ _____ _____    ______ ____
ROOT
ATOM      1  C   UNL     1       0.606  10.285  -1.976  0.00  0.00    +0.142 A 
ATOM      2  C   UNL     1       0.662  11.666  -2.024  0.00  0.00    +0.047 A 
ATOM      3  C   UNL     1       1.178  12.368  -0.950  0.00  0.00    +0.004 A 
ATOM      4  C   UNL     1       1.634  11.693   0.163  0.00  0.00    +0.006 A 
ATOM      5  C   UNL     1       1.583  10.305   0.222  0.00  0.00    -0.016 A 
ATOM      6  C   UNL     1       1.067   9.599  -0.848  0.00  0.00    +0.074 A 
ATOM      7  N   UNL     1       0.983   8.204  -0.849  0.00  0.00    -0.334 N 
ATOM      8  C   UNL     1       1.984   7.591   0.024  0.00  0.00    +0.105 C 
ATOM      9  C   UNL     1       1.809   8.119   1.449  0.00  0.00    +0.029 C 
ATOM     10  C   UNL     1       2.099   9.635   1.461  0.00  0.00    +0.049 C 
ATOM     11  C   UNL     1       3.607   9.722   1.524  0.00  0.00    -0.023 C 
ATOM     12  C   UNL     1       4.112   8.604   1.981  0.00  0.00    -0.030 C 
ATOM     13  C   UNL     1       3.010   7.612   2.296  0.00  0.00    +0.033 C 
ATOM     14  H   UNL     1       0.279   7.571  -1.409  0.00  0.00    +0.147 HD
ENDROOT
BRANCH   8  15
ATOM     15  C   UNL     1       1.807   6.094   0.018  0.00  0.00    -0.027 A 
ATOM     16  C   UNL     1       2.916   5.268   0.003  0.00  0.00    +0.009 A 
ATOM     17  C   UNL     1       2.756   3.896  -0.003  0.00  0.00    +0.046 A 
ATOM     18  C   UNL     1       1.482   3.347   0.006  0.00  0.00    +0.121 A 
ATOM     19  C   UNL     1       0.371   4.178   0.015  0.00  0.00    +0.046 A 
ATOM     20  C   UNL     1       0.536   5.550   0.027  0.00  0.00    +0.009 A 
BRANCH  18  21
ATOM     21  O   UNL     1       1.322   1.997   0.000  0.00  0.00    -0.487 OA
BRANCH  21  22
ATOM     22  C   UNL     1      -0.018   1.503   0.010  0.00  0.00    +0.264 C 
BRANCH  22  23
ATOM     23  C   UNL     1       0.002  -0.004   0.002  0.00  0.00    -0.010 A 
ATOM     24  C   UNL     1      -0.006  -0.689  -1.199  0.00  0.00    +0.007 A 
ATOM     25  C   UNL     1       0.018  -2.071  -1.206  0.00  0.00    +0.000 A 
ATOM     26  C   UNL     1       0.039  -2.768  -0.013  0.00  0.00    +0.000 A 
ATOM     27  C   UNL     1       0.042  -2.084   1.188  0.00  0.00    +0.000 A 
ATOM     28  C   UNL     1       0.023  -0.702   1.195  0.00  0.00    +0.007 A 
ENDBRANCH  22  23
ENDBRANCH  21  22
ENDBRANCH  18  21
ENDBRANCH   8  15
BRANCH   1  29
ATOM     29  O   UNL     1       0.100   9.591  -3.031  0.00  0.00    -0.486 OA
BRANCH  29  30
ATOM     30  C   UNL     1      -0.354  10.353  -4.151  0.00  0.00    +0.256 C 
BRANCH  30  32
ATOM     31  C   UNL     1      -2.008   9.686  -5.819  0.00  0.00    +0.007 C 
ATOM     32  C   UNL     1      -0.877   9.421  -5.214  0.00  0.00    +0.006 C 
ENDBRANCH  30  32
ENDBRANCH  29  30
ENDBRANCH   1  29
TORSDOF 7
