REMARK  Name = ZINC38938336
REMARK  3 active torsions:
REMARK  status: ('A' for Active; 'I' for Inactive)
REMARK    1  A    between atoms: C_5  and  C_7
REMARK    2  A    between atoms: N_8  and  N_9
REMARK    3  A    between atoms: C_10  and  C_16
REMARK                            x       y       z     vdW  Elec       q    Type
REMARK                         _______ _______ _______ _____ _____    ______ ____
ROOT
ATOM      1  N   UNL     1       2.411  -4.181  -0.151  0.00  0.00    -0.168 N 
ATOM      2  C   UNL     1       3.591  -5.067  -0.179  0.00  0.00    +0.301 C 
ATOM      3  N   UNL     1       3.006  -6.411  -0.311  0.00  0.00    -0.163 NA
ATOM      4  N   UNL     1       1.779  -6.289  -0.347  0.00  0.00    -0.096 NA
ATOM      5  C   UNL     1       1.359  -5.021  -0.254  0.00  0.00    +0.199 C 
ATOM      6  S   UNL     1      -0.282  -4.534  -0.266  0.00  0.00    -0.013 S 
ENDROOT
BRANCH   2   7
ATOM      7  C   UNL     1       4.374  -4.949   1.103  0.00  0.00    +0.151 A 
ATOM      8  C   UNL     1       5.113  -5.922   1.666  0.00  0.00    +0.049 A 
ATOM      9  C   UNL     1       5.670  -5.382   2.848  0.00  0.00    +0.041 A 
ATOM     10  C   UNL     1       5.238  -4.111   2.937  0.00  0.00    +0.195 A 
ATOM     11  O   UNL     1       4.458  -3.852   1.874  0.00  0.00    -0.464 OA
ENDBRANCH   2   7
BRANCH   1  13
ATOM     12  C   UNL     1       3.499  -2.113  -0.056  0.00  0.00    +0.139 C 
ATOM     13  N   UNL     1       2.388  -2.784  -0.037  0.00  0.00    -0.183 NA
BRANCH  12  18
ATOM     14  C   UNL     1       4.659   1.428   0.388  0.00  0.00    +0.001 A 
ATOM     15  C   UNL     1       3.460   2.075   0.632  0.00  0.00    +0.001 A 
ATOM     16  C   UNL     1       2.274   1.364   0.653  0.00  0.00    +0.016 A 
ATOM     17  C   UNL     1       2.279   0.002   0.430  0.00  0.00    +0.027 A 
ATOM     18  C   UNL     1       3.486  -0.658   0.183  0.00  0.00    +0.009 A 
ATOM     19  C   UNL     1       4.679   0.068   0.163  0.00  0.00    +0.010 A 
ATOM     20 BR   UNL     1       0.656  -0.969   0.460  0.00  0.00    -0.050 Br
ENDBRANCH  12  18
ENDBRANCH   1  13
TORSDOF 3
