REMARK  Name = ZINC04308136
REMARK  5 active torsions:
REMARK  status: ('A' for Active; 'I' for Inactive)
REMARK    1  A    between atoms: C_1  and  C_2
REMARK    2  A    between atoms: C_2  and  C_3
REMARK    3  A    between atoms: N_11  and  C_15
REMARK    4  A    between atoms: C_15  and  C_16
REMARK    5  A    between atoms: N_18  and  C_19
REMARK                            x       y       z     vdW  Elec       q    Type
REMARK                         _______ _______ _______ _____ _____    ______ ____
ROOT
ATOM      1  C   UNL     1      -2.914  -7.577   3.096  0.00  0.00    -0.011 C 
ATOM      2  C   UNL     1      -1.679  -6.810   2.620  0.00  0.00    +0.006 C 
ATOM      3  C   UNL     1      -1.690  -6.727   1.091  0.00  0.00    +0.035 C 
ATOM      4  C   UNL     1      -2.959  -6.019   0.629  0.00  0.00    +0.113 C 
ATOM      5  C   UNL     1      -4.199  -6.761   1.115  0.00  0.00    +0.035 C 
ATOM      6  C   UNL     1      -4.178  -6.845   2.644  0.00  0.00    +0.006 C 
ATOM      7  C   UNL     1      -2.974  -4.590   1.122  0.00  0.00    +0.247 C 
ATOM      8  O   UNL     1      -2.968  -4.211   2.273  0.00  0.00    -0.273 OA
ATOM      9  N   UNL     1      -2.994  -3.826   0.010  0.00  0.00    -0.215 N 
ATOM     10  C   UNL     1      -3.001  -4.572  -1.101  0.00  0.00    +0.310 C 
ATOM     11  O   UNL     1      -3.024  -4.111  -2.225  0.00  0.00    -0.252 OA
ATOM     12  N   UNL     1      -2.974  -5.892  -0.834  0.00  0.00    -0.285 N 
ATOM     13  H   UNL     1      -2.971  -6.616  -1.480  0.00  0.00    +0.151 HD
ENDROOT
BRANCH   1  15
ATOM     14  C   UNL     1      -4.064  -8.543   5.093  0.00  0.00    +0.004 C 
ATOM     15  C   UNL     1      -2.898  -7.671   4.623  0.00  0.00    -0.000 C 
ENDBRANCH   1  15
BRANCH   9  16
ATOM     16  C   UNL     1      -3.014  -2.361   0.018  0.00  0.00    +0.213 C 
BRANCH  16  17
ATOM     17  C   UNL     1      -1.601  -1.839   0.007  0.00  0.00    +0.231 C 
ATOM     18  O   UNL     1      -0.668  -2.615  -0.006  0.00  0.00    -0.274 OA
ATOM     19  N   UNL     1      -1.372  -0.511   0.012  0.00  0.00    -0.308 N 
ATOM     20  H   UNL     1      -2.118   0.109   0.023  0.00  0.00    +0.149 HD
BRANCH  19  21
ATOM     21  C   UNL     1       0.002  -0.004   0.002  0.00  0.00    +0.035 C 
ATOM     22  C   UNL     1      -0.019   1.526   0.010  0.00  0.00    +0.029 C 
ATOM     23  C   UNL     1       1.417   2.055  -0.000  0.00  0.00    -0.008 C 
ATOM     24  C   UNL     1       2.133   1.562  -1.259  0.00  0.00    +0.007 C 
ATOM     25  C   UNL     1       2.154   0.032  -1.268  0.00  0.00    -0.008 C 
ATOM     26  C   UNL     1       0.718  -0.497  -1.257  0.00  0.00    +0.029 C 
ATOM     27  C   UNL     1       2.894  -0.475  -0.028  0.00  0.00    +0.007 C 
ATOM     28  C   UNL     1       2.178   0.019   1.231  0.00  0.00    -0.008 C 
ATOM     29  C   UNL     1       2.157   1.548   1.239  0.00  0.00    +0.007 C 
ATOM     30  C   UNL     1       0.742  -0.511   1.242  0.00  0.00    +0.029 C 
ENDBRANCH  19  21
ENDBRANCH  16  17
ENDBRANCH   9  16
TORSDOF 4
