REMARK  Name = ZINC15108740
REMARK  3 active torsions:
REMARK  status: ('A' for Active; 'I' for Inactive)
REMARK    1  A    between atoms: C_1  and  C_2
REMARK    2  A    between atoms: N_13  and  S_19
REMARK    3  A    between atoms: S_19  and  C_22
REMARK                            x       y       z     vdW  Elec       q    Type
REMARK                         _______ _______ _______ _____ _____    ______ ____
ROOT
ATOM      1  C   UNL     1       0.002  -0.004   0.002  0.00  0.00    +0.044 C 
ATOM      2  C   UNL     1      -0.018   1.503   0.010  0.00  0.00    -0.050 A 
ATOM      3  C   UNL     1      -1.239   2.157   0.020  0.00  0.00    +0.005 A 
ATOM      4  C   UNL     1      -1.337   3.537   0.027  0.00  0.00    +0.026 A 
ATOM      5  C   UNL     1      -0.145   4.259   0.015  0.00  0.00    +0.050 A 
ATOM      6  C   UNL     1       1.108   3.580   0.011  0.00  0.00    +0.004 A 
ATOM      7  C   UNL     1       1.173   2.184   0.003  0.00  0.00    +0.013 A 
ATOM      8  C   UNL     1       2.128   4.607   0.018  0.00  0.00    -0.017 A 
ATOM      9  C   UNL     1       1.468   5.778   0.087  0.00  0.00    +0.042 A 
ATOM     10  N   UNL     1       0.101   5.616  -0.026  0.00  0.00    -0.341 N 
ATOM     11  C   UNL     1      -0.791   6.781  -0.147  0.00  0.00    +0.139 C 
ATOM     12  C   UNL     1      -0.007   7.858  -0.918  0.00  0.00    +0.132 C 
ATOM     13  N   UNL     1       1.254   8.164  -0.236  0.00  0.00    -0.166 NA
ATOM     14  C   UNL     1       2.187   7.108   0.147  0.00  0.00    +0.127 C 
ATOM     15  C   UNL     1       3.351   6.962  -0.836  0.00  0.00    +0.027 C 
ATOM     16  C   UNL     1       4.285   5.846  -0.391  0.00  0.00    +0.007 C 
ATOM     17  C   UNL     1       3.623   4.527  -0.039  0.00  0.00    +0.037 C 
ENDROOT
BRANCH  13  18
ATOM     18  S   UNL     1       1.628   9.741   0.107  0.00  0.00    +0.061 S 
ATOM     19  O   UNL     1       0.396  10.448   0.159  0.00  0.00    -0.153 OA
ATOM     20  O   UNL     1       2.538   9.714   1.198  0.00  0.00    -0.153 OA
BRANCH  18  21
ATOM     21  C   UNL     1       2.517  10.378  -1.274  0.00  0.00    +0.106 A 
ATOM     22  C   UNL     1       3.906  10.273  -1.304  0.00  0.00    +0.029 A 
ATOM     23  C   UNL     1       4.622  10.750  -2.358  0.00  0.00    +0.010 A 
ATOM     24  C   UNL     1       3.955  11.368  -3.429  0.00  0.00    -0.018 A 
ATOM     25  C   UNL     1       4.661  11.878  -4.532  0.00  0.00    +0.008 A 
ATOM     26  C   UNL     1       3.982  12.470  -5.552  0.00  0.00    +0.001 A 
ATOM     27  C   UNL     1       2.592  12.579  -5.520  0.00  0.00    +0.001 A 
ATOM     28  C   UNL     1       1.875  12.097  -4.468  0.00  0.00    +0.008 A 
ATOM     29  C   UNL     1       2.543  11.479  -3.397  0.00  0.00    -0.016 A 
ATOM     30  C   UNL     1       1.837  10.969  -2.294  0.00  0.00    +0.037 A 
ENDBRANCH  18  21
ENDBRANCH  13  18
TORSDOF 2
