REMARK  Name = ZINC63506416
REMARK  5 active torsions:
REMARK  status: ('A' for Active; 'I' for Inactive)
REMARK    1  A    between atoms: C_1  and  C_2
REMARK    2  A    between atoms: C_4  and  C_12
REMARK    3  A    between atoms: C_12  and  C_13
REMARK    4  A    between atoms: C_13  and  N_14
REMARK    5  A    between atoms: C_18  and  C_20
REMARK                            x       y       z     vdW  Elec       q    Type
REMARK                         _______ _______ _______ _____ _____    ______ ____
ROOT
ATOM      1  N   UNL     1      -4.819  -0.827  -1.544  0.00  0.00    -0.299 N 
ATOM      2  C   UNL     1      -6.036  -1.380  -1.371  0.00  0.00    +0.306 C 
ATOM      3  O   UNL     1      -6.259  -2.063  -0.391  0.00  0.00    -0.252 OA
ATOM      4  N   UNL     1      -7.005  -1.175  -2.285  0.00  0.00    -0.236 N 
ATOM      5  C   UNL     1      -8.222  -1.728  -2.112  0.00  0.00    +0.253 C 
ATOM      6  O   UNL     1      -8.445  -2.412  -1.132  0.00  0.00    -0.270 OA
ATOM      7  H   UNL     1      -4.641  -0.281  -2.327  0.00  0.00    +0.150 HD
ATOM      8  H   UNL     1      -6.827  -0.630  -3.067  0.00  0.00    +0.159 HD
ENDROOT
BRANCH   5   9
ATOM      9  C   UNL     1      -9.284  -1.504  -3.113  0.00  0.00    +0.055 A 
ATOM     10  C   UNL     1      -9.029  -0.724  -4.244  0.00  0.00    +0.016 A 
ATOM     11  C   UNL     1     -10.024  -0.519  -5.175  0.00  0.00    +0.021 A 
ATOM     12  C   UNL     1     -11.276  -1.084  -4.992  0.00  0.00    +0.042 A 
ATOM     13  C   UNL     1     -11.537  -1.859  -3.874  0.00  0.00    +0.040 A 
ATOM     14  C   UNL     1     -10.547  -2.077  -2.937  0.00  0.00    +0.054 A 
ATOM     15 CL   UNL     1     -10.872  -3.054  -1.539  0.00  0.00    -0.083 Cl
ATOM     16 CL   UNL     1     -12.524  -0.820  -6.169  0.00  0.00    -0.083 Cl
ENDBRANCH   5   9
BRANCH   1  17
ATOM     17  C   UNL     1      -3.765  -1.049  -0.551  0.00  0.00    +0.110 C 
BRANCH  17  18
ATOM     18  C   UNL     1      -2.494  -0.316  -0.984  0.00  0.00    +0.052 C 
BRANCH  18  21
ATOM     19  C   UNL     1      -0.019   1.526   0.010  0.00  0.00    +0.035 C 
ATOM     20  C   UNL     1       0.002  -0.004   0.002  0.00  0.00    +0.103 C 
ATOM     21  C   UNL     1      -1.410  -0.545   0.038  0.00  0.00    -0.037 C 
ATOM     22  C   UNL     1      -1.503  -1.275   1.173  0.00  0.00    -0.001 A 
ATOM     23  C   UNL     1      -2.599  -2.045   1.772  0.00  0.00    +0.010 A 
ATOM     24  C   UNL     1      -2.386  -2.686   2.944  0.00  0.00    +0.001 A 
ATOM     25  C   UNL     1      -1.148  -2.632   3.599  0.00  0.00    +0.002 A 
ATOM     26  C   UNL     1      -0.094  -1.946   3.110  0.00  0.00    +0.026 A 
ATOM     27  C   UNL     1      -0.205  -1.235   1.884  0.00  0.00    +0.043 A 
ATOM     28  N   UNL     1       0.658  -0.508   1.214  0.00  0.00    -0.378 N 
ATOM     29  H   UNL     1       1.576  -0.332   1.476  0.00  0.00    +0.160 HD
ENDBRANCH  18  21
ENDBRANCH  17  18
ENDBRANCH   1  17
TORSDOF 4
