REMARK  Name = ZINC16958928
REMARK  3 active torsions:
REMARK  status: ('A' for Active; 'I' for Inactive)
REMARK    1  A    between atoms: C_2  and  C_3
REMARK    2  A    between atoms: C_8  and  C_9
REMARK    3  A    between atoms: C_19  and  C_20
REMARK                            x       y       z     vdW  Elec       q    Type
REMARK                         _______ _______ _______ _____ _____    ______ ____
ROOT
ATOM      1  C   UNL     1      -0.444   0.319  -1.837  0.00  0.00    +0.239 C 
ATOM      2  O   UNL     1      -0.469  -0.546  -2.691  0.00  0.00    -0.271 OA
ATOM      3  N   UNL     1       0.345   0.174  -0.754  0.00  0.00    -0.289 N 
ATOM      4  C   UNL     1       0.466   1.260   0.230  0.00  0.00    +0.147 C 
ATOM      5  C   UNL     1       1.938   1.582   0.402  0.00  0.00    +0.017 C 
ATOM      6  C   UNL     1       2.389   2.854   0.435  0.00  0.00    +0.017 C 
ATOM      7  C   UNL     1       2.854   0.426   0.532  0.00  0.00    +0.188 C 
ATOM      8  O   UNL     1       3.787   0.418   1.317  0.00  0.00    -0.287 OA
ATOM      9  C   UNL     1       2.559  -0.719  -0.359  0.00  0.00    +0.017 C 
ATOM     10  C   UNL     1       3.540  -1.411  -0.976  0.00  0.00    +0.017 C 
ATOM     11  C   UNL     1       1.095  -1.073  -0.541  0.00  0.00    +0.147 C 
ENDROOT
BRANCH   6  12
ATOM     12  C   UNL     1       3.788   3.129   0.797  0.00  0.00    -0.025 A 
ATOM     13  C   UNL     1       4.576   3.950  -0.017  0.00  0.00    +0.009 A 
ATOM     14  C   UNL     1       5.884   4.209   0.333  0.00  0.00    +0.020 A 
ATOM     15  C   UNL     1       6.422   3.648   1.480  0.00  0.00    +0.041 A 
ATOM     16  C   UNL     1       5.649   2.829   2.287  0.00  0.00    +0.020 A 
ATOM     17  C   UNL     1       4.338   2.567   1.954  0.00  0.00    +0.009 A 
ATOM     18 CL   UNL     1       8.073   3.973   1.907  0.00  0.00    -0.084 Cl
ENDBRANCH   6  12
BRANCH  10  19
ATOM     19  C   UNL     1       4.925  -0.918  -0.937  0.00  0.00    -0.025 A 
ATOM     20  C   UNL     1       5.181   0.458  -0.949  0.00  0.00    +0.009 A 
ATOM     21  C   UNL     1       6.482   0.913  -0.905  0.00  0.00    +0.020 A 
ATOM     22  C   UNL     1       7.534   0.012  -0.863  0.00  0.00    +0.041 A 
ATOM     23  C   UNL     1       7.287  -1.351  -0.858  0.00  0.00    +0.020 A 
ATOM     24  C   UNL     1       5.992  -1.821  -0.894  0.00  0.00    +0.009 A 
ATOM     25 CL   UNL     1       9.168   0.595  -0.816  0.00  0.00    -0.084 Cl
ENDBRANCH  10  19
BRANCH   1  27
ATOM     26  C   UNL     1      -2.123   1.626  -3.005  0.00  0.00    +0.013 C 
ATOM     27  C   UNL     1      -1.274   1.525  -1.986  0.00  0.00    +0.060 C 
ENDBRANCH   1  27
TORSDOF 3
