REMARK  Name = ZINC00884564
REMARK  11 active torsions:
REMARK  status: ('A' for Active; 'I' for Inactive)
REMARK    1  A    between atoms: C_1  and  C_2
REMARK    2  A    between atoms: C_7  and  C_15
REMARK    3  A    between atoms: C_13  and  C_14
REMARK    4  A    between atoms: C_15  and  N_16
REMARK    5  A    between atoms: N_16  and  C_17
REMARK    6  A    between atoms: N_16  and  C_23
REMARK    7  A    between atoms: C_17  and  C_18
REMARK    8  A    between atoms: C_23  and  N_25
REMARK    9  A    between atoms: N_25  and  C_26
REMARK   10  A    between atoms: C_26  and  C_28
REMARK   11  A    between atoms: C_26  and  C_29
REMARK                            x       y       z     vdW  Elec       q    Type
REMARK                         _______ _______ _______ _____ _____    ______ ____
ROOT
ATOM      1  N   UNL     1       3.170   5.758   2.312  0.00  0.00    -0.303 N 
ENDROOT
BRANCH   1   2
ATOM      2  C   UNL     1       2.232   5.206   1.517  0.00  0.00    +0.134 C 
ATOM      3  S   UNL     1       0.788   6.060   1.178  0.00  0.00    -0.019 S 
BRANCH   2   4
ATOM      4  N   UNL     1       2.431   3.982   0.989  0.00  0.00    -0.320 N 
ATOM      5  H   UNL     1       3.250   3.498   1.182  0.00  0.00    +0.148 HD
BRANCH   4   6
ATOM      6  C   UNL     1       1.412   3.382   0.126  0.00  0.00    +0.099 C 
ATOM      7  C   UNL     1       1.607   3.872  -1.311  0.00  0.00    +0.033 C 
BRANCH   6   8
ATOM      8  C   UNL     1       1.539   1.881   0.166  0.00  0.00    -0.028 A 
ATOM      9  C   UNL     1       0.405   1.092   0.196  0.00  0.00    +0.005 A 
ATOM     10  C   UNL     1       0.521  -0.285   0.233  0.00  0.00    +0.000 A 
ATOM     11  C   UNL     1       1.773  -0.873   0.238  0.00  0.00    +0.000 A 
ATOM     12  C   UNL     1       2.907  -0.083   0.208  0.00  0.00    +0.000 A 
ATOM     13  C   UNL     1       2.790   1.294   0.171  0.00  0.00    +0.005 A 
ENDBRANCH   6   8
ENDBRANCH   4   6
ENDBRANCH   2   4
ENDBRANCH   1   2
BRANCH   1  14
ATOM     14  C   UNL     1       3.005   7.131   2.796  0.00  0.00    +0.147 C 
BRANCH  14  21
ATOM     15  C   UNL     1      -1.193   7.126   9.578  0.00  0.00    +0.044 C 
ATOM     16  C   UNL     1      -0.606   7.153   8.190  0.00  0.00    -0.046 A 
ATOM     17  C   UNL     1      -1.444   7.298   7.092  0.00  0.00    +0.004 A 
ATOM     18  C   UNL     1      -0.933   7.325   5.826  0.00  0.00    +0.010 A 
ATOM     19  C   UNL     1       0.448   7.206   5.633  0.00  0.00    -0.001 A 
ATOM     20  C   UNL     1       1.030   7.235   4.290  0.00  0.00    +0.020 A 
ATOM     21  C   UNL     1       2.374   7.109   4.164  0.00  0.00    +0.035 A 
ATOM     22  C   UNL     1       3.185   6.963   5.310  0.00  0.00    +0.254 A 
ATOM     23  O   UNL     1       4.391   6.856   5.175  0.00  0.00    -0.268 OA
ATOM     24  N   UNL     1       2.660   6.939   6.548  0.00  0.00    -0.322 N 
ATOM     25  H   UNL     1       3.246   6.838   7.314  0.00  0.00    +0.169 HD
ATOM     26  C   UNL     1       1.300   7.058   6.743  0.00  0.00    +0.052 A 
ATOM     27  C   UNL     1       0.756   7.033   8.024  0.00  0.00    -0.024 A 
ATOM     28  C   UNL     1       1.654   6.875   9.224  0.00  0.00    +0.046 C 
ENDBRANCH  14  21
ENDBRANCH   1  14
BRANCH   1  29
ATOM     29  C   UNL     1       4.355   4.985   2.692  0.00  0.00    +0.149 C 
BRANCH  29  30
ATOM     30  C   UNL     1       5.447   5.206   1.677  0.00  0.00    +0.007 A 
ATOM     31  C   UNL     1       6.416   6.154   1.658  0.00  0.00    +0.013 A 
ATOM     32  C   UNL     1       7.324   6.163   0.615  0.00  0.00    +0.008 A 
ATOM     33  C   UNL     1       7.211   5.232  -0.363  0.00  0.00    +0.045 A 
ATOM     34  S   UNL     1       5.793   4.293   0.182  0.00  0.00    -0.100 S 
ENDBRANCH  29  30
ENDBRANCH   1  29
TORSDOF 8
