REMARK  Name = ZINC63160869
REMARK  11 active torsions:
REMARK  status: ('A' for Active; 'I' for Inactive)
REMARK    1  A    between atoms: C_1  and  C_2
REMARK    2  A    between atoms: C_2  and  C_3
REMARK    3  A    between atoms: C_2  and  N_4
REMARK    4  A    between atoms: C_8  and  N_11
REMARK    5  A    between atoms: C_12  and  C_14
REMARK    6  A    between atoms: C_14  and  C_16
REMARK    7  A    between atoms: C_14  and  N_26
REMARK    8  A    between atoms: C_16  and  C_17
REMARK    9  A    between atoms: C_27  and  O_29
REMARK   10  A    between atoms: O_29  and  C_30
REMARK   11  A    between atoms: C_30  and  C_31
REMARK                            x       y       z     vdW  Elec       q    Type
REMARK                         _______ _______ _______ _____ _____    ______ ____
ROOT
ATOM      1  C   UNL     1      -2.667  -4.912   6.651  0.00  0.00    +0.166 C 
ENDROOT
BRANCH   1   3
ATOM      2  N   UNL     1      -0.940  -3.717   5.345  0.00  0.00    -0.283 N 
ATOM      3  C   UNL     1      -2.220  -4.128   5.445  0.00  0.00    +0.238 C 
ATOM      4  O   UNL     1      -3.011  -3.866   4.564  0.00  0.00    -0.273 OA
ATOM      5  H   UNL     1      -0.289  -3.991   6.011  0.00  0.00    +0.155 HD
BRANCH   2  10
ATOM      6  N   UNL     1       0.491  -0.434   1.151  0.00  0.00    -0.248 N 
ATOM      7  C   UNL     1       0.291  -1.326   2.198  0.00  0.00    +0.140 A 
ATOM      8  C   UNL     1      -1.004  -1.187   2.686  0.00  0.00    +0.011 A 
ATOM      9  C   UNL     1      -1.439  -1.970   3.732  0.00  0.00    +0.033 A 
ATOM     10  C   UNL     1      -0.549  -2.895   4.279  0.00  0.00    +0.052 A 
ATOM     11  C   UNL     1       0.729  -2.987   3.749  0.00  0.00    +0.136 A 
ATOM     12  N   UNL     1       1.108  -2.220   2.747  0.00  0.00    -0.237 NA
ATOM     13  C   UNL     1      -1.661  -0.108   1.861  0.00  0.00    +0.140 C 
ATOM     14  N   UNL     1      -0.619   0.316   0.907  0.00  0.00    -0.234 NA
ATOM     15  H   UNL     1      -0.418   1.300   1.002  0.00  0.00    +0.145 HD
BRANCH   6  17
ATOM     16  C   UNL     1       1.490  -0.606  -1.075  0.00  0.00    +0.029 C 
ATOM     17  C   UNL     1       1.746  -0.311   0.404  0.00  0.00    +0.086 C 
ATOM     18  C   UNL     1       2.291   1.110   0.554  0.00  0.00    +0.029 C 
ENDBRANCH   6  17
ENDBRANCH   2  10
ENDBRANCH   1   3
BRANCH   1  19
ATOM     19  N   UNL     1      -4.090  -5.237   6.522  0.00  0.00    -0.269 N 
ATOM     20  C   UNL     1      -4.832  -5.467   7.624  0.00  0.00    +0.401 C 
ATOM     21  O   UNL     1      -4.320  -5.405   8.724  0.00  0.00    -0.226 OA
ATOM     22  H   UNL     1      -4.498  -5.287   5.643  0.00  0.00    +0.153 HD
BRANCH  20  23
ATOM     23  O   UNL     1      -6.139  -5.766   7.505  0.00  0.00    -0.446 OA
BRANCH  23  24
ATOM     24  C   UNL     1      -6.864  -5.998   8.714  0.00  0.00    +0.269 C 
BRANCH  24  25
ATOM     25  C   UNL     1      -8.300  -6.316   8.386  0.00  0.00    -0.010 A 
ATOM     26  C   UNL     1      -9.229  -5.296   8.290  0.00  0.00    +0.007 A 
ATOM     27  C   UNL     1     -10.546  -5.588   7.989  0.00  0.00    +0.000 A 
ATOM     28  C   UNL     1     -10.934  -6.899   7.783  0.00  0.00    +0.000 A 
ATOM     29  C   UNL     1     -10.005  -7.918   7.878  0.00  0.00    +0.000 A 
ATOM     30  C   UNL     1      -8.687  -7.626   8.175  0.00  0.00    +0.007 A 
ENDBRANCH  24  25
ENDBRANCH  23  24
ENDBRANCH  20  23
ENDBRANCH   1  19
BRANCH   1  31
ATOM     31  C   UNL     1      -1.856  -6.205   6.749  0.00  0.00    +0.065 C 
BRANCH  31  32
ATOM     32  C   UNL     1      -2.216  -6.930   8.020  0.00  0.00    -0.039 C 
ATOM     33  C   UNL     1      -3.125  -7.922   8.161  0.00  0.00    -0.001 A 
ATOM     34  C   UNL     1      -4.017  -8.596   7.210  0.00  0.00    +0.010 A 
ATOM     35  C   UNL     1      -4.834  -9.575   7.658  0.00  0.00    +0.001 A 
ATOM     36  C   UNL     1      -4.852  -9.961   9.005  0.00  0.00    +0.002 A 
ATOM     37  C   UNL     1      -4.062  -9.389   9.938  0.00  0.00    +0.026 A 
ATOM     38  C   UNL     1      -3.163  -8.348   9.578  0.00  0.00    +0.043 A 
ATOM     39  N   UNL     1      -2.310  -7.648  10.286  0.00  0.00    -0.380 N 
ATOM     40  C   UNL     1      -1.630  -6.700   9.395  0.00  0.00    +0.144 C 
ATOM     41  H   UNL     1      -2.152  -7.742  11.238  0.00  0.00    +0.160 HD
ENDBRANCH  31  32
ENDBRANCH   1  31
TORSDOF 9
