REMARK  Name = ZINC22920186
REMARK  12 active torsions:
REMARK  status: ('A' for Active; 'I' for Inactive)
REMARK    1  A    between atoms: C_1  and  C_2
REMARK    2  A    between atoms: C_2  and  N_3
REMARK    3  A    between atoms: N_6  and  C_9
REMARK    4  A    between atoms: C_9  and  C_10
REMARK    5  A    between atoms: C_14  and  O_16
REMARK    6  A    between atoms: O_16  and  C_17
REMARK    7  A    between atoms: C_17  and  C_18
REMARK    8  A    between atoms: C_18  and  C_20
REMARK    9  A    between atoms: C_18  and  O_29
REMARK   10  A    between atoms: C_20  and  N_21
REMARK   11  A    between atoms: N_21  and  C_22
REMARK   12  A    between atoms: N_21  and  C_23
REMARK                            x       y       z     vdW  Elec       q    Type
REMARK                         _______ _______ _______ _____ _____    ______ ____
ROOT
ATOM      1  C   UNL     1      -1.181  -1.357   0.241  0.00  0.00    -0.030 A 
ATOM      2  C   UNL     1      -1.645  -1.422   1.542  0.00  0.00    +0.005 A 
ATOM      3  C   UNL     1      -2.985  -1.660   1.790  0.00  0.00    +0.004 A 
ATOM      4  C   UNL     1      -3.861  -1.844   0.738  0.00  0.00    +0.045 A 
ATOM      5  C   UNL     1      -3.397  -1.784  -0.568  0.00  0.00    +0.121 A 
ATOM      6  C   UNL     1      -2.054  -1.540  -0.814  0.00  0.00    +0.050 A 
ENDROOT
BRANCH   1   7
ATOM      7  C   UNL     1       0.278  -1.092  -0.025  0.00  0.00    +0.119 C 
BRANCH   7  11
ATOM      8  N   UNL     1       1.450   2.730  -1.390  0.00  0.00    +0.381 N 
ATOM      9  C   UNL     1       2.123   2.187  -0.203  0.00  0.00    -0.063 C 
ATOM     10  C   UNL     1       1.935   0.668  -0.163  0.00  0.00    +0.066 C 
ATOM     11  N   UNL     1       0.500   0.356  -0.140  0.00  0.00    -0.302 NA
ATOM     12  C   UNL     1      -0.174   0.899  -1.327  0.00  0.00    +0.066 C 
ATOM     13  C   UNL     1       0.014   2.418  -1.367  0.00  0.00    -0.063 C 
ATOM     14  H   UNL     1       1.888   2.251  -2.278  0.00  0.00    -0.082 HD
BRANCH   8  16
ATOM     15  C   UNL     1       1.175   4.664  -2.868  0.00  0.00    -0.017 C 
ATOM     16  C   UNL     1       1.672   4.178  -1.505  0.00  0.00    -0.082 C 
ENDBRANCH   8  16
ENDBRANCH   7  11
ENDBRANCH   1   7
BRANCH   5  17
ATOM     17  O   UNL     1      -4.257  -1.966  -1.604  0.00  0.00    -0.489 OA
BRANCH  17  18
ATOM     18  C   UNL     1      -5.626  -2.213  -1.276  0.00  0.00    +0.258 C 
BRANCH  18  19
ATOM     19  C   UNL     1      -6.435  -2.390  -2.563  0.00  0.00    +0.135 C 
BRANCH  19  20
ATOM     20  O   UNL     1      -5.992  -3.564  -3.246  0.00  0.00    -0.390 OA
ATOM     21  H   UNL     1      -6.460  -3.856  -4.198  0.00  0.00    +0.210 HD
ENDBRANCH  19  20
BRANCH  19  22
ATOM     22  C   UNL     1      -7.918  -2.530  -2.217  0.00  0.00    -0.044 C 
BRANCH  22  23
ATOM     23  N   UNL     1      -8.700  -2.658  -3.455  0.00  0.00    +0.381 N 
ATOM     24  C   UNL     1     -10.050  -3.164  -3.175  0.00  0.00    -0.096 C 
ATOM     25  H   UNL     1      -8.192  -3.389  -4.101  0.00  0.00    -0.082 HD
BRANCH  23  26
ATOM     26  C   UNL     1      -8.755  -1.380  -4.177  0.00  0.00    -0.069 C 
ATOM     27  C   UNL     1      -9.523  -0.354  -3.340  0.00  0.00    -0.015 C 
ATOM     28  C   UNL     1      -9.581   0.977  -4.092  0.00  0.00    -0.002 C 
ATOM     29  C   UNL     1     -10.293   0.775  -5.431  0.00  0.00    -0.000 C 
ATOM     30  C   UNL     1      -9.526  -0.250  -6.268  0.00  0.00    -0.002 C 
ATOM     31  C   UNL     1      -9.468  -1.581  -5.516  0.00  0.00    -0.015 C 
ENDBRANCH  23  26
ENDBRANCH  22  23
ENDBRANCH  19  22
ENDBRANCH  18  19
ENDBRANCH  17  18
ENDBRANCH   5  17
TORSDOF 10
