REMARK  Name = ZINC36484956
REMARK  9 active torsions:
REMARK  status: ('A' for Active; 'I' for Inactive)
REMARK    1  A    between atoms: C_1  and  C_2
REMARK    2  A    between atoms: C_3  and  C_4
REMARK    3  A    between atoms: C_4  and  C_6
REMARK    4  A    between atoms: C_4  and  N_15
REMARK    5  A    between atoms: N_8  and  C_9
REMARK    6  A    between atoms: N_15  and  C_16
REMARK    7  A    between atoms: C_23  and  C_25
REMARK    8  A    between atoms: C_26  and  O_32
REMARK    9  A    between atoms: C_30  and  O_31
REMARK                            x       y       z     vdW  Elec       q    Type
REMARK                         _______ _______ _______ _____ _____    ______ ____
ROOT
ATOM      1  N   UNL     1      -1.966   1.420  -0.297  0.00  0.00    -0.252 N 
ATOM      2  C   UNL     1      -2.479   2.105  -1.338  0.00  0.00    +0.259 C 
ATOM      3  O   UNL     1      -3.339   1.599  -2.034  0.00  0.00    -0.269 OA
ENDROOT
BRANCH   1   4
ATOM      4  C   UNL     1      -1.045   2.034   0.558  0.00  0.00    +0.039 A 
ATOM      5  C   UNL     1      -1.461   3.036   1.426  0.00  0.00    +0.023 A 
ATOM      6  C   UNL     1      -0.549   3.640   2.269  0.00  0.00    +0.003 A 
ATOM      7  C   UNL     1       0.777   3.249   2.250  0.00  0.00    +0.020 A 
ATOM      8  C   UNL     1       1.196   2.252   1.387  0.00  0.00    +0.043 A 
ATOM      9  C   UNL     1       0.286   1.640   0.544  0.00  0.00    +0.043 A 
ATOM     10 CL   UNL     1       2.862   1.766   1.366  0.00  0.00    -0.083 Cl
ENDBRANCH   1   4
BRANCH   2  11
ATOM     11  C   UNL     1      -2.000   3.465  -1.633  0.00  0.00    +0.120 A 
ATOM     12  C   UNL     1      -0.840   3.654  -2.399  0.00  0.00    +0.133 A 
ATOM     13  C   UNL     1      -0.398   4.939  -2.671  0.00  0.00    +0.046 A 
ATOM     14  C   UNL     1      -1.095   6.031  -2.191  0.00  0.00    +0.007 A 
ATOM     15  C   UNL     1      -2.239   5.856  -1.434  0.00  0.00    +0.046 A 
ATOM     16  C   UNL     1      -2.702   4.581  -1.155  0.00  0.00    +0.133 A 
BRANCH  16  17
ATOM     17  O   UNL     1      -3.828   4.412  -0.417  0.00  0.00    -0.506 OA
ATOM     18  H   UNL     1      -3.678   4.418   0.538  0.00  0.00    +0.292 HD
ENDBRANCH  16  17
BRANCH  12  19
ATOM     19  O   UNL     1      -0.154   2.584  -2.872  0.00  0.00    -0.506 OA
ATOM     20  H   UNL     1      -0.443   2.285  -3.745  0.00  0.00    +0.292 HD
ENDBRANCH  12  19
ENDBRANCH   2  11
BRANCH   1  21
ATOM     21  C   UNL     1      -2.373   0.033  -0.060  0.00  0.00    +0.190 C 
BRANCH  21  22
ATOM     22  C   UNL     1      -2.952  -0.091   1.326  0.00  0.00    +0.238 C 
ATOM     23  O   UNL     1      -3.017   0.883   2.045  0.00  0.00    -0.273 OA
ATOM     24  N   UNL     1      -3.396  -1.285   1.766  0.00  0.00    -0.311 N 
ATOM     25  H   UNL     1      -3.343  -2.064   1.191  0.00  0.00    +0.149 HD
BRANCH  24  26
ATOM     26  C   UNL     1      -3.958  -1.406   3.114  0.00  0.00    +0.073 C 
ATOM     27  C   UNL     1      -2.827  -1.620   4.121  0.00  0.00    +0.022 C 
ATOM     28  C   UNL     1      -3.414  -1.746   5.529  0.00  0.00    +0.002 C 
ATOM     29  C   UNL     1      -4.372  -2.938   5.577  0.00  0.00    +0.000 C 
ATOM     30  C   UNL     1      -5.504  -2.724   4.569  0.00  0.00    +0.002 C 
ATOM     31  C   UNL     1      -4.916  -2.598   3.162  0.00  0.00    +0.022 C 
ENDBRANCH  24  26
ENDBRANCH  21  22
BRANCH  21  34
ATOM     32  C   UNL     1      -2.196  -1.787  -2.206  0.00  0.00    +0.035 C 
ATOM     33  C   UNL     1      -1.119  -1.755  -1.152  0.00  0.00    -0.032 C 
ATOM     34  C   UNL     1      -1.174  -0.871  -0.187  0.00  0.00    +0.000 C 
ENDBRANCH  21  34
ENDBRANCH   1  21
TORSDOF 8
