REMARK  Name = ZINC02395385
REMARK  6 active torsions:
REMARK  status: ('A' for Active; 'I' for Inactive)
REMARK    1  A    between atoms: C_1  and  O_2
REMARK    2  A    between atoms: O_2  and  C_3
REMARK    3  A    between atoms: C_10  and  C_14
REMARK    4  A    between atoms: N_15  and  N_16
REMARK    5  A    between atoms: C_17  and  C_19
REMARK    6  A    between atoms: C_24  and  O_25
REMARK                            x       y       z     vdW  Elec       q    Type
REMARK                         _______ _______ _______ _____ _____    ______ ____
ROOT
ATOM      1  C   UNL     1       0.068  -0.654   5.993  0.00  0.00    +0.141 C 
ATOM      2  N   UNL     1       0.048   0.008   4.876  0.00  0.00    -0.187 NA
ENDROOT
BRANCH   1  10
ATOM      3  C   UNL     1       0.116   0.208  12.066  0.00  0.00    +0.121 A 
ATOM      4  C   UNL     1       0.096   1.605  12.006  0.00  0.00    +0.048 A 
ATOM      5  C   UNL     1       0.076   2.255  10.811  0.00  0.00    +0.032 A 
ATOM      6  C   UNL     1       0.073   1.519   9.613  0.00  0.00    +0.073 A 
ATOM      7  C   UNL     1       0.093   0.103   9.674  0.00  0.00    +0.005 A 
ATOM      8  C   UNL     1       0.114  -0.539  10.923  0.00  0.00    +0.055 A 
ATOM      9  C   UNL     1       0.091  -0.635   8.477  0.00  0.00    +0.022 A 
ATOM     10  C   UNL     1       0.070   0.068   7.278  0.00  0.00    +0.032 A 
ATOM     11  C   UNL     1       0.057   1.477   7.301  0.00  0.00    +0.139 A 
ATOM     12  N   UNL     1       0.054   2.142   8.428  0.00  0.00    -0.235 NA
ATOM     13 CL   UNL     1       0.038   2.350   5.801  0.00  0.00    -0.061 Cl
BRANCH   3  15
ATOM     14  C   UNL     1       0.137   0.425  14.434  0.00  0.00    +0.277 C 
ATOM     15  O   UNL     1       0.136  -0.412  13.275  0.00  0.00    -0.495 OA
ENDBRANCH   3  15
ENDBRANCH   1  10
BRANCH   2  16
ATOM     16  N   UNL     1       0.046  -0.679   3.655  0.00  0.00    -0.203 N 
ATOM     17  C   UNL     1       0.026   0.008   2.496  0.00  0.00    +0.267 C 
ATOM     18  O   UNL     1       0.009   1.224   2.510  0.00  0.00    -0.268 OA
ATOM     19  H   UNL     1       0.059  -1.649   3.644  0.00  0.00    +0.178 HD
BRANCH  17  20
ATOM     20  C   UNL     1       0.023  -0.715   1.210  0.00  0.00    +0.080 A 
ATOM     21  C   UNL     1       0.042  -2.111   1.189  0.00  0.00    +0.017 A 
ATOM     22  C   UNL     1       0.039  -2.781  -0.015  0.00  0.00    +0.001 A 
ATOM     23  C   UNL     1       0.018  -2.075  -1.207  0.00  0.00    +0.004 A 
ATOM     24  C   UNL     1      -0.006  -0.694  -1.201  0.00  0.00    +0.046 A 
ATOM     25  C   UNL     1       0.002  -0.004   0.002  0.00  0.00    +0.129 A 
BRANCH  25  26
ATOM     26  O   UNL     1      -0.016   1.352   0.009  0.00  0.00    -0.506 OA
ATOM     27  H   UNL     1       0.862   1.758   0.003  0.00  0.00    +0.292 HD
ENDBRANCH  25  26
ENDBRANCH  17  20
ENDBRANCH   2  16
TORSDOF 5
