REMARK  Name = ZINC02964783
REMARK  8 active torsions:
REMARK  status: ('A' for Active; 'I' for Inactive)
REMARK    1  A    between atoms: C_1  and  C_2
REMARK    2  A    between atoms: C_7  and  C_33
REMARK    3  A    between atoms: C_9  and  C_10
REMARK    4  A    between atoms: C_9  and  N_72
REMARK    5  A    between atoms: C_10  and  N_11
REMARK    6  A    between atoms: C_12  and  C_14
REMARK    7  A    between atoms: N_17  and  S_20
REMARK    8  A    between atoms: S_20  and  N_23
REMARK                            x       y       z     vdW  Elec       q    Type
REMARK                         _______ _______ _______ _____ _____    ______ ____
ROOT
ATOM      1  C   UNL     1      -2.021  10.143   1.147  0.00  0.00    +0.077 C 
ATOM      2  C   UNL     1      -1.216  10.086   2.447  0.00  0.00    +0.030 C 
ATOM      3  C   UNL     1      -0.870   8.628   2.766  0.00  0.00    +0.111 C 
ATOM      4  N   UNL     1      -0.187   8.039   1.606  0.00  0.00    -0.166 NA
ATOM      5  C   UNL     1      -0.831   8.125   0.288  0.00  0.00    +0.111 C 
ATOM      6  C   UNL     1      -1.179   9.584  -0.002  0.00  0.00    +0.030 C 
ENDROOT
BRANCH   1   8
ATOM      7  N   UNL     1      -3.108  11.867  -0.255  0.00  0.00    -0.317 N 
ATOM      8  C   UNL     1      -2.392  11.573   0.848  0.00  0.00    +0.216 C 
ATOM      9  O   UNL     1      -2.046  12.459   1.600  0.00  0.00    -0.276 OA
ATOM     10  H   UNL     1      -3.385  11.158  -0.857  0.00  0.00    +0.149 HD
BRANCH   7  11
ATOM     11  C   UNL     1      -3.468  13.257  -0.546  0.00  0.00    +0.085 C 
BRANCH  11  12
ATOM     12  C   UNL     1      -4.274  13.314  -1.845  0.00  0.00    -0.059 C 
BRANCH  12  20
ATOM     13  C   UNL     1      -6.876  13.757  -2.821  0.00  0.00    -0.013 C 
ATOM     14  C   UNL     1      -5.743  14.734  -3.143  0.00  0.00    -0.071 C 
ATOM     15  C   UNL     1      -6.309  16.152  -3.254  0.00  0.00    -0.016 C 
ATOM     16  C   UNL     1      -5.169  17.128  -3.557  0.00  0.00    -0.003 C 
ATOM     17  C   UNL     1      -4.113  17.026  -2.453  0.00  0.00    -0.016 C 
ATOM     18  C   UNL     1      -3.611  15.584  -2.365  0.00  0.00    -0.071 C 
ATOM     19  C   UNL     1      -2.974  15.183  -3.697  0.00  0.00    -0.013 C 
ATOM     20  N   UNL     1      -4.751  14.697  -2.048  0.00  0.00    +0.384 N 
ATOM     21  H   UNL     1      -5.198  15.026  -1.183  0.00  0.00    -0.081 HD
ENDBRANCH  12  20
ENDBRANCH  11  12
ENDBRANCH   7  11
ENDBRANCH   1   8
BRANCH   4  22
ATOM     22  S   UNL     1       1.285   7.300   1.779  0.00  0.00    +0.100 S 
ATOM     23  O   UNL     1       1.880   7.849   2.947  0.00  0.00    -0.141 OA
ATOM     24  O   UNL     1       1.916   7.348   0.507  0.00  0.00    -0.141 OA
BRANCH  22  25
ATOM     25  N   UNL     1       0.995   5.702   2.103  0.00  0.00    -0.166 NA
ATOM     26  C   UNL     1       0.881   4.726   1.011  0.00  0.00    +0.116 C 
ATOM     27  C   UNL     1       1.861   3.577   1.274  0.00  0.00    +0.082 C 
ATOM     28  C   UNL     1       1.603   3.000   2.667  0.00  0.00    +0.173 C 
ATOM     29  C   UNL     1       1.824   4.081   3.727  0.00  0.00    +0.082 C 
ATOM     30  C   UNL     1       0.845   5.234   3.488  0.00  0.00    +0.116 C 
ATOM     31  O   UNL     1       0.257   2.515   2.747  0.00  0.00    -0.346 OA
ATOM     32  C   UNL     1       0.326   1.101   3.021  0.00  0.00    +0.191 C 
ATOM     33  C   UNL     1       1.752   0.722   2.549  0.00  0.00    +0.191 C 
ATOM     34  O   UNL     1       2.505   1.907   2.905  0.00  0.00    -0.346 OA
ENDBRANCH  22  25
ENDBRANCH   4  22
TORSDOF 6
