REMARK  Name = ZINC38884150
REMARK  9 active torsions:
REMARK  status: ('A' for Active; 'I' for Inactive)
REMARK    1  A    between atoms: C_1  and  C_2
REMARK    2  A    between atoms: C_2  and  C_4
REMARK    3  A    between atoms: C_2  and  C_15
REMARK    4  A    between atoms: C_4  and  C_5
REMARK    5  A    between atoms: C_15  and  N_16
REMARK    6  A    between atoms: C_17  and  C_19
REMARK    7  A    between atoms: N_22  and  C_25
REMARK    8  A    between atoms: C_25  and  C_26
REMARK    9  A    between atoms: C_28  and  C_31
REMARK                            x       y       z     vdW  Elec       q    Type
REMARK                         _______ _______ _______ _____ _____    ______ ____
ROOT
ATOM      1  N   UNL     1       2.148  -0.104   1.172  0.00  0.00    -0.315 N 
ATOM      2  C   UNL     1       2.997  -0.441   2.162  0.00  0.00    +0.216 C 
ATOM      3  O   UNL     1       2.598  -1.082   3.111  0.00  0.00    -0.276 OA
ATOM      4  H   UNL     1       2.467   0.409   0.412  0.00  0.00    +0.149 HD
ENDROOT
BRANCH   2   5
ATOM      5  C   UNL     1       4.443  -0.023   2.090  0.00  0.00    +0.071 C 
ATOM      6  C   UNL     1       5.089  -0.625   0.839  0.00  0.00    -0.006 C 
ATOM      7  C   UNL     1       6.575  -0.262   0.814  0.00  0.00    -0.077 C 
ATOM      8  N   UNL     1       7.233  -0.797   2.012  0.00  0.00    +0.386 N 
ATOM      9  C   UNL     1       6.668  -0.170   3.213  0.00  0.00    -0.077 C 
ATOM     10  C   UNL     1       5.185  -0.529   3.330  0.00  0.00    -0.006 C 
ATOM     11  H   UNL     1       7.091  -1.795   2.056  0.00  0.00    -0.081 HD
BRANCH   8  12
ATOM     12  C   UNL     1       8.673  -0.513   1.946  0.00  0.00    +0.022 C 
BRANCH  12  13
ATOM     13  C   UNL     1       9.368  -1.167   3.112  0.00  0.00    +0.211 A 
ATOM     14  N   UNL     1       9.869  -2.369   3.123  0.00  0.00    -0.192 NA
ATOM     15  C   UNL     1      10.415  -2.630   4.326  0.00  0.00    +0.209 A 
ATOM     16  N   UNL     1      10.259  -1.577   5.093  0.00  0.00    -0.056 NA
ATOM     17  O   UNL     1       9.580  -0.607   4.311  0.00  0.00    -0.340 OA
BRANCH  15  18
ATOM     18  C   UNL     1      11.078  -3.891   4.716  0.00  0.00    +0.060 A 
ATOM     19  C   UNL     1      11.649  -4.232   5.914  0.00  0.00    +0.019 A 
ATOM     20  C   UNL     1      12.214  -5.480   6.047  0.00  0.00    +0.008 A 
ATOM     21  C   UNL     1      12.189  -6.334   4.991  0.00  0.00    +0.046 A 
ATOM     22  S   UNL     1      11.338  -5.371   3.752  0.00  0.00    -0.093 S 
ENDBRANCH  15  18
ENDBRANCH  12  13
ENDBRANCH   8  12
ENDBRANCH   2   5
BRANCH   1  23
ATOM     23  C   UNL     1       0.742  -0.511   1.242  0.00  0.00    +0.107 C 
BRANCH  23  25
ATOM     24  C   UNL     1      -0.019   1.526   0.010  0.00  0.00    +0.009 C 
ATOM     25  C   UNL     1       0.002  -0.004   0.002  0.00  0.00    +0.007 C 
BRANCH  25  26
ATOM     26  C   UNL     1      -1.433  -0.534   0.013  0.00  0.00    +0.040 C 
BRANCH  26  27
ATOM     27  C   UNL     1      -2.125  -0.137  -1.266  0.00  0.00    -0.039 A 
ATOM     28  C   UNL     1      -2.882   0.993  -1.312  0.00  0.00    +0.004 A 
ATOM     29  C   UNL     1      -3.529   1.375  -2.486  0.00  0.00    +0.001 A 
ATOM     30  C   UNL     1      -3.422   0.630  -3.620  0.00  0.00    +0.008 A 
ATOM     31  C   UNL     1      -2.649  -0.543  -3.611  0.00  0.00    -0.018 A 
ATOM     32  C   UNL     1      -1.986  -0.929  -2.419  0.00  0.00    -0.015 A 
ATOM     33  C   UNL     1      -1.207  -2.099  -2.411  0.00  0.00    +0.009 A 
ATOM     34  C   UNL     1      -1.096  -2.841  -3.546  0.00  0.00    +0.001 A 
ATOM     35  C   UNL     1      -1.742  -2.458  -4.720  0.00  0.00    +0.001 A 
ATOM     36  C   UNL     1      -2.515  -1.339  -4.762  0.00  0.00    +0.008 A 
ENDBRANCH  26  27
ENDBRANCH  25  26
ENDBRANCH  23  25
ENDBRANCH   1  23
TORSDOF 8
