REMARK  Name = ZINC01182809
REMARK  7 active torsions:
REMARK  status: ('A' for Active; 'I' for Inactive)
REMARK    1  A    between atoms: C_4  and  C_7
REMARK    2  A    between atoms: C_11  and  N_16
REMARK    3  A    between atoms: N_16  and  C_17
REMARK    4  A    between atoms: C_17  and  N_19
REMARK    5  A    between atoms: C_20  and  C_22
REMARK    6  A    between atoms: C_23  and  C_24
REMARK    7  A    between atoms: C_28  and  N_30
REMARK                            x       y       z     vdW  Elec       q    Type
REMARK                         _______ _______ _______ _____ _____    ______ ____
ROOT
ATOM      1  N   UNL     1      -3.638  10.102   0.091  0.00  0.00    -0.297 N 
ATOM      2  H   UNL     1      -4.442   9.625  -0.167  0.00  0.00    +0.154 HD
ENDROOT
BRANCH   1   7
ATOM      3  C   UNL     1      -4.604  15.792  -0.809  0.00  0.00    +0.228 A 
ATOM      4  N   UNL     1      -4.889  14.643  -1.368  0.00  0.00    -0.209 NA
ATOM      5  C   UNL     1      -4.341  13.648  -0.625  0.00  0.00    +0.112 A 
ATOM      6  C   UNL     1      -4.323  12.256  -0.742  0.00  0.00    +0.054 A 
ATOM      7  C   UNL     1      -3.658  11.498   0.204  0.00  0.00    +0.035 A 
ATOM      8  C   UNL     1      -3.013  12.116   1.273  0.00  0.00    +0.027 A 
ATOM      9  C   UNL     1      -3.021  13.490   1.393  0.00  0.00    +0.050 A 
ATOM     10  C   UNL     1      -3.684  14.264   0.453  0.00  0.00    +0.156 A 
ATOM     11  O   UNL     1      -3.871  15.595   0.302  0.00  0.00    -0.435 OA
BRANCH   3  15
ATOM     12  C   UNL     1      -5.819  19.585  -2.285  0.00  0.00    +0.000 A 
ATOM     13  C   UNL     1      -5.063  19.505  -1.129  0.00  0.00    +0.001 A 
ATOM     14  C   UNL     1      -4.666  18.276  -0.644  0.00  0.00    +0.013 A 
ATOM     15  C   UNL     1      -5.027  17.112  -1.323  0.00  0.00    +0.037 A 
ATOM     16  C   UNL     1      -5.783  17.199  -2.493  0.00  0.00    +0.013 A 
ATOM     17  C   UNL     1      -6.180  18.434  -2.963  0.00  0.00    +0.001 A 
ENDBRANCH   3  15
ENDBRANCH   1   7
BRANCH   1  18
ATOM     18  C   UNL     1      -2.501   9.422   0.340  0.00  0.00    +0.141 C 
ATOM     19  S   UNL     1      -1.048  10.271   0.655  0.00  0.00    -0.018 S 
BRANCH  18  20
ATOM     20  N   UNL     1      -2.508   8.075   0.340  0.00  0.00    -0.264 N 
ATOM     21  C   UNL     1      -1.371   7.394   0.589  0.00  0.00    +0.242 C 
ATOM     22  O   UNL     1      -0.339   7.997   0.813  0.00  0.00    -0.270 OA
ATOM     23  H   UNL     1      -3.332   7.594   0.161  0.00  0.00    +0.157 HD
BRANCH  21  24
ATOM     24  C   UNL     1      -1.379   5.931   0.589  0.00  0.00    +0.068 C 
ATOM     25  C   UNL     1      -0.241   5.251   0.838  0.00  0.00    +0.013 C 
BRANCH  25  26
ATOM     26  C   UNL     1      -0.249   3.779   0.838  0.00  0.00    -0.023 A 
ATOM     27  C   UNL     1      -1.435   3.083   0.581  0.00  0.00    +0.008 A 
ATOM     28  C   UNL     1      -1.433   1.704   0.578  0.00  0.00    +0.003 A 
ATOM     29  C   UNL     1      -0.264   1.009   0.839  0.00  0.00    +0.033 A 
ATOM     30  C   UNL     1       0.912   1.691   1.095  0.00  0.00    +0.127 A 
ATOM     31  C   UNL     1       0.928   3.070   1.096  0.00  0.00    +0.040 A 
BRANCH  30  32
ATOM     32  N   UNL     1       2.158   0.939   1.368  0.00  0.00    +0.056 N 
ATOM     33  O   UNL     1       2.146  -0.279   1.367  0.00  0.00    -0.126 OA
ATOM     34  O   UNL     1       3.194   1.538   1.593  0.00  0.00    -0.126 OA
ENDBRANCH  30  32
ENDBRANCH  25  26
ENDBRANCH  21  24
ENDBRANCH  18  20
ENDBRANCH   1  18
TORSDOF 7
