REMARK  Name = ZINC36650227
REMARK  7 active torsions:
REMARK  status: ('A' for Active; 'I' for Inactive)
REMARK    1  A    between atoms: C_1  and  C_2
REMARK    2  A    between atoms: C_2  and  C_3
REMARK    3  A    between atoms: C_2  and  C_4
REMARK    4  A    between atoms: C_4  and  C_6
REMARK    5  A    between atoms: C_4  and  N_21
REMARK    6  A    between atoms: N_8  and  C_9
REMARK    7  A    between atoms: C_22  and  C_24
REMARK                            x       y       z     vdW  Elec       q    Type
REMARK                         _______ _______ _______ _____ _____    ______ ____
ROOT
ATOM      1  C   UNL     1      -2.069   0.229   0.632  0.00  0.00    +0.238 C 
ATOM      2  O   UNL     1      -2.823   1.083   0.217  0.00  0.00    -0.273 OA
ATOM      3  N   UNL     1      -2.209  -0.242   1.887  0.00  0.00    -0.284 N 
ATOM      4  H   UNL     1      -1.662  -0.984   2.191  0.00  0.00    +0.155 HD
ENDROOT
BRANCH   3   5
ATOM      5  C   UNL     1      -3.145   0.339   2.752  0.00  0.00    +0.036 A 
ATOM      6  C   UNL     1      -4.310   0.898   2.240  0.00  0.00    +0.025 A 
ATOM      7  C   UNL     1      -5.236   1.472   3.088  0.00  0.00    +0.029 A 
ATOM      8  C   UNL     1      -5.004   1.492   4.455  0.00  0.00    +0.067 A 
ATOM      9  C   UNL     1      -3.834   0.931   4.973  0.00  0.00    +0.069 A 
ATOM     10  C   UNL     1      -2.909   0.350   4.119  0.00  0.00    +0.051 A 
ATOM     11  N   UNL     1      -3.884   1.099   6.354  0.00  0.00    -0.306 N 
ATOM     12  H   UNL     1      -3.208   0.809   6.986  0.00  0.00    +0.170 HD
ATOM     13  C   UNL     1      -5.031   1.733   6.664  0.00  0.00    +0.325 A 
ATOM     14  O   UNL     1      -5.383   2.034   7.789  0.00  0.00    -0.247 OA
ATOM     15  N   UNL     1      -5.728   1.984   5.540  0.00  0.00    -0.306 N 
ATOM     16  H   UNL     1      -6.588   2.431   5.493  0.00  0.00    +0.170 HD
ENDBRANCH   3   5
BRANCH   1  17
ATOM     17  C   UNL     1      -0.975  -0.306  -0.256  0.00  0.00    +0.162 C 
BRANCH  17  18
ATOM     18  N   UNL     1      -1.370  -0.162  -1.659  0.00  0.00    -0.300 N 
ATOM     19  C   UNL     1      -0.845  -0.978  -2.595  0.00  0.00    +0.245 C 
ATOM     20  O   UNL     1      -0.043  -1.833  -2.274  0.00  0.00    -0.270 OA
ATOM     21  H   UNL     1      -2.010   0.520  -1.915  0.00  0.00    +0.150 HD
BRANCH  19  22
ATOM     22  C   UNL     1      -1.243  -0.832  -4.010  0.00  0.00    +0.037 A 
ATOM     23  C   UNL     1      -2.160   0.153  -4.382  0.00  0.00    +0.014 A 
ATOM     24  C   UNL     1      -2.527   0.284  -5.705  0.00  0.00    +0.021 A 
ATOM     25  C   UNL     1      -1.990  -0.559  -6.663  0.00  0.00    +0.041 A 
ATOM     26  C   UNL     1      -1.081  -1.539  -6.300  0.00  0.00    +0.021 A 
ATOM     27  C   UNL     1      -0.701  -1.676  -4.981  0.00  0.00    +0.014 A 
ATOM     28 CL   UNL     1      -2.459  -0.389  -8.326  0.00  0.00    -0.084 Cl
ENDBRANCH  19  22
ENDBRANCH  17  18
BRANCH  17  30
ATOM     29  C   UNL     1       1.468  -0.181  -0.764  0.00  0.00    +0.009 C 
ATOM     30  C   UNL     1       0.315   0.479  -0.006  0.00  0.00    +0.012 C 
ATOM     31  C   UNL     1       0.139   1.917  -0.495  0.00  0.00    +0.009 C 
ENDBRANCH  17  30
ENDBRANCH   1  17
TORSDOF 5
