REMARK  Name = ZINC58886903
REMARK  11 active torsions:
REMARK  status: ('A' for Active; 'I' for Inactive)
REMARK    1  A    between atoms: C_4  and  C_7
REMARK    2  A    between atoms: C_7  and  C_9
REMARK    3  A    between atoms: C_7  and  O_33
REMARK    4  A    between atoms: C_9  and  C_10
REMARK    5  A    between atoms: C_10  and  C_11
REMARK    6  A    between atoms: N_13  and  N_14
REMARK    7  A    between atoms: C_15  and  C_16
REMARK    8  A    between atoms: C_19  and  O_23
REMARK    9  A    between atoms: O_23  and  C_24
REMARK   10  A    between atoms: C_24  and  C_25
REMARK   11  A    between atoms: C_30  and  C_31
REMARK                            x       y       z     vdW  Elec       q    Type
REMARK                         _______ _______ _______ _____ _____    ______ ____
ROOT
ATOM      1  N   UNL     1       7.265  -3.317   4.318  0.00  0.00    -0.188 NA
ATOM      2  C   UNL     1       8.405  -3.891   4.556  0.00  0.00    +0.138 C 
ENDROOT
BRANCH   2   3
ATOM      3  C   UNL     1       8.730  -4.348   5.919  0.00  0.00    -0.004 A 
ATOM      4  C   UNL     1       7.811  -4.170   6.956  0.00  0.00    +0.013 A 
ATOM      5  C   UNL     1       8.119  -4.599   8.229  0.00  0.00    +0.047 A 
ATOM      6  C   UNL     1       9.341  -5.207   8.482  0.00  0.00    +0.135 A 
ATOM      7  C   UNL     1      10.259  -5.387   7.454  0.00  0.00    +0.060 A 
ATOM      8  C   UNL     1       9.956  -4.967   6.176  0.00  0.00    +0.028 A 
ATOM      9 BR   UNL     1      11.921  -6.216   7.807  0.00  0.00    -0.046 Br
BRANCH   6  10
ATOM     10  O   UNL     1       9.641  -5.628   9.739  0.00  0.00    -0.486 OA
BRANCH  10  11
ATOM     11  C   UNL     1       8.653  -5.412  10.748  0.00  0.00    +0.265 C 
BRANCH  11  12
ATOM     12  C   UNL     1       9.158  -5.939  12.067  0.00  0.00    +0.007 A 
ATOM     13  C   UNL     1      10.409  -6.514  12.148  0.00  0.00    +0.008 A 
ATOM     14  C   UNL     1      10.874  -6.999  13.357  0.00  0.00    +0.000 A 
ATOM     15  C   UNL     1      10.089  -6.910  14.493  0.00  0.00    +0.001 A 
ATOM     16  C   UNL     1       8.836  -6.337  14.427  0.00  0.00    +0.019 A 
ATOM     17  C   UNL     1       8.363  -5.840  13.210  0.00  0.00    +0.058 A 
BRANCH  17  18
ATOM     18  C   UNL     1       7.066  -5.238  13.135  0.00  0.00    +0.100 C 
ATOM     19  N   UNL     1       6.037  -4.760  13.075  0.00  0.00    -0.191 NA
ENDBRANCH  17  18
ENDBRANCH  11  12
ENDBRANCH  10  11
ENDBRANCH   6  10
ENDBRANCH   2   3
BRANCH   1  22
ATOM     20  C   UNL     1       5.773  -2.286   2.777  0.00  0.00    +0.232 C 
ATOM     21  O   UNL     1       4.975  -2.126   3.677  0.00  0.00    -0.274 OA
ATOM     22  N   UNL     1       6.956  -2.882   3.023  0.00  0.00    -0.207 N 
ATOM     23  H   UNL     1       7.594  -3.010   2.303  0.00  0.00    +0.177 HD
BRANCH  20  24
ATOM     24  C   UNL     1       5.440  -1.819   1.383  0.00  0.00    +0.100 C 
BRANCH  24  25
ATOM     25  C   UNL     1       4.049  -1.182   1.377  0.00  0.00    +0.045 C 
BRANCH  25  26
ATOM     26  C   UNL     1       3.711  -0.707  -0.038  0.00  0.00    +0.145 C 
BRANCH  26  30
ATOM     27  C   UNL     1      -0.017   1.378   0.010  0.00  0.00    +0.000 A 
ATOM     28  C   UNL     1       1.171   2.086   0.002  0.00  0.00    +0.000 A 
ATOM     29  C   UNL     1       2.377   1.411  -0.013  0.00  0.00    +0.006 A 
ATOM     30  C   UNL     1       2.396   0.029  -0.020  0.00  0.00    -0.019 A 
ATOM     31  C   UNL     1       1.208  -0.679  -0.012  0.00  0.00    +0.006 A 
ATOM     32  C   UNL     1       0.002  -0.004   0.002  0.00  0.00    +0.000 A 
ENDBRANCH  26  30
BRANCH  26  33
ATOM     33  O   UNL     1       3.614  -1.836  -0.908  0.00  0.00    -0.387 OA
ATOM     34  H   UNL     1       2.934  -2.474  -0.651  0.00  0.00    +0.210 HD
ENDBRANCH  26  33
ENDBRANCH  25  26
ENDBRANCH  24  25
ENDBRANCH  20  24
ENDBRANCH   1  22
TORSDOF 11
