REMARK  Name = ZINC15953654
REMARK  11 active torsions:
REMARK  status: ('A' for Active; 'I' for Inactive)
REMARK    1  A    between atoms: C_1  and  C_2
REMARK    2  A    between atoms: C_5  and  C_8
REMARK    3  A    between atoms: C_8  and  N_66
REMARK    4  A    between atoms: C_11  and  O_32
REMARK    5  A    between atoms: C_18  and  C_20
REMARK    6  A    between atoms: C_22  and  O_30
REMARK    7  A    between atoms: C_23  and  O_28
REMARK    8  A    between atoms: C_24  and  O_26
REMARK    9  A    between atoms: O_26  and  C_27
REMARK   10  A    between atoms: O_28  and  C_29
REMARK   11  A    between atoms: O_30  and  C_31
REMARK                            x       y       z     vdW  Elec       q    Type
REMARK                         _______ _______ _______ _____ _____    ______ ____
ROOT
ATOM      1  C   UNL     1      -0.691  -1.747  -1.954  0.00  0.00    -0.075 C 
ATOM      2  C   UNL     1      -1.007  -1.869  -3.447  0.00  0.00    +0.016 C 
ATOM      3  C   UNL     1      -2.357  -2.567  -3.618  0.00  0.00    +0.066 C 
ATOM      4  C   UNL     1      -2.719  -2.651  -5.101  0.00  0.00    +0.035 C 
ATOM      5  C   UNL     1      -4.069  -3.356  -5.253  0.00  0.00    +0.003 C 
ATOM      6  C   UNL     1      -5.147  -2.569  -4.504  0.00  0.00    +0.000 C 
ATOM      7  C   UNL     1      -4.779  -2.474  -3.021  0.00  0.00    +0.005 C 
ATOM      8  C   UNL     1      -3.432  -1.764  -2.880  0.00  0.00    +0.011 C 
ATOM      9  C   UNL     1      -3.051  -1.653  -1.403  0.00  0.00    -0.031 C 
ATOM     10  N   UNL     1      -1.752  -0.954  -1.298  0.00  0.00    +0.387 N 
ATOM     11  H   UNL     1      -1.826  -0.043  -1.767  0.00  0.00    -0.080 HD
ENDROOT
BRANCH   9  12
ATOM     12  C   UNL     1      -2.962  -3.033  -0.802  0.00  0.00    -0.053 A 
ATOM     13  C   UNL     1      -4.068  -3.862  -0.812  0.00  0.00    +0.051 A 
ATOM     14  C   UNL     1      -3.989  -5.133  -0.265  0.00  0.00    +0.165 A 
ATOM     15  C   UNL     1      -2.799  -5.570   0.305  0.00  0.00    +0.204 A 
ATOM     16  C   UNL     1      -1.690  -4.731   0.318  0.00  0.00    +0.165 A 
ATOM     17  C   UNL     1      -1.776  -3.463  -0.237  0.00  0.00    +0.051 A 
BRANCH  16  18
ATOM     18  O   UNL     1      -0.523  -5.153   0.874  0.00  0.00    -0.491 OA
ATOM     19  C   UNL     1       0.574  -4.238   0.852  0.00  0.00    +0.277 C 
ENDBRANCH  16  18
BRANCH  15  20
ATOM     20  O   UNL     1      -2.718  -6.815   0.848  0.00  0.00    -0.488 OA
ATOM     21  C   UNL     1      -3.047  -6.940   2.233  0.00  0.00    +0.277 C 
ENDBRANCH  15  20
BRANCH  14  22
ATOM     22  O   UNL     1      -5.076  -5.950  -0.280  0.00  0.00    -0.491 OA
ATOM     23  C   UNL     1      -6.266  -5.436  -0.882  0.00  0.00    +0.277 C 
ENDBRANCH  14  22
ENDBRANCH   9  12
BRANCH   3  24
ATOM     24  O   UNL     1      -2.285  -3.885  -3.068  0.00  0.00    -0.388 OA
ATOM     25  H   UNL     1      -1.618  -4.448  -3.484  0.00  0.00    +0.210 HD
ENDBRANCH   3  24
BRANCH  10  26
ATOM     26  C   UNL     1      -1.411  -0.734   0.123  0.00  0.00    -0.042 C 
BRANCH  26  31
ATOM     27  C   UNL     1       2.487   3.519   0.443  0.00  0.00    +0.044 C 
ATOM     28  C   UNL     1       1.471   2.410   0.360  0.00  0.00    -0.050 A 
ATOM     29  C   UNL     1       0.121   2.706   0.394  0.00  0.00    +0.003 A 
ATOM     30  C   UNL     1      -0.812   1.688   0.316  0.00  0.00    +0.002 A 
ATOM     31  C   UNL     1      -0.394   0.375   0.207  0.00  0.00    -0.064 A 
ATOM     32  C   UNL     1       0.956   0.079   0.175  0.00  0.00    +0.002 A 
ATOM     33  C   UNL     1       1.888   1.097   0.251  0.00  0.00    +0.003 A 
ENDBRANCH  26  31
ENDBRANCH  10  26
TORSDOF 7
