REMARK  Name = ZINC05182085
REMARK  9 active torsions:
REMARK  status: ('A' for Active; 'I' for Inactive)
REMARK    1  A    between atoms: C_1  and  O_2
REMARK    2  A    between atoms: O_2  and  C_3
REMARK    3  A    between atoms: C_7  and  C_9
REMARK    4  A    between atoms: C_16  and  N_31
REMARK    5  A    between atoms: C_17  and  C_29
REMARK    6  A    between atoms: C_18  and  C_20
REMARK    7  A    between atoms: C_23  and  O_27
REMARK    8  A    between atoms: C_24  and  O_26
REMARK    9  A    between atoms: O_27  and  C_28
REMARK                            x       y       z     vdW  Elec       q    Type
REMARK                         _______ _______ _______ _____ _____    ______ ____
ROOT
ATOM      1  C   UNL     1       1.355  -4.450   2.380  0.00  0.00    +0.074 A 
ATOM      2  C   UNL     1       2.567  -5.037   2.521  0.00  0.00    +0.054 A 
ATOM      3  C   UNL     1       2.382  -6.433   2.502  0.00  0.00    +0.245 A 
ATOM      4  N   UNL     1       1.110  -6.676   2.356  0.00  0.00    -0.135 NA
ATOM      5  N   UNL     1       0.430  -5.451   2.280  0.00  0.00    -0.273 N 
ATOM      6  H   UNL     1      -0.527  -5.335   2.174  0.00  0.00    +0.189 HD
ATOM      7  O   UNL     1       3.424  -7.300   2.621  0.00  0.00    -0.421 OA
ATOM      8  C   UNL     1       4.668  -6.799   2.486  0.00  0.00    +0.201 C 
ATOM      9  C   UNL     1       4.968  -5.483   2.502  0.00  0.00    +0.098 C 
ATOM     10  C   UNL     1       3.927  -4.406   2.679  0.00  0.00    +0.102 C 
ENDROOT
BRANCH   1  15
ATOM     11  C   UNL     1       1.592  -0.798   1.514  0.00  0.00    +0.121 A 
ATOM     12  C   UNL     1       0.566  -0.272   2.288  0.00  0.00    +0.045 A 
ATOM     13  C   UNL     1      -0.198  -1.102   3.087  0.00  0.00    +0.004 A 
ATOM     14  C   UNL     1       0.053  -2.459   3.121  0.00  0.00    +0.010 A 
ATOM     15  C   UNL     1       1.082  -2.996   2.346  0.00  0.00    +0.004 A 
ATOM     16  C   UNL     1       1.849  -2.159   1.536  0.00  0.00    +0.055 A 
BRANCH  11  18
ATOM     17  C   UNL     1       2.020   1.414   0.756  0.00  0.00    +0.277 C 
ATOM     18  O   UNL     1       2.340   0.022   0.730  0.00  0.00    -0.495 OA
ENDBRANCH  11  18
ENDBRANCH   1  15
BRANCH  10  19
ATOM     19  C   UNL     1       4.051  -3.800   4.053  0.00  0.00    -0.031 A 
ATOM     20  C   UNL     1       3.857  -4.586   5.173  0.00  0.00    +0.008 A 
ATOM     21  C   UNL     1       3.969  -4.035   6.436  0.00  0.00    +0.050 A 
ATOM     22  C   UNL     1       4.277  -2.692   6.581  0.00  0.00    +0.161 A 
ATOM     23  C   UNL     1       4.473  -1.901   5.453  0.00  0.00    +0.159 A 
ATOM     24  C   UNL     1       4.364  -2.461   4.190  0.00  0.00    +0.053 A 
BRANCH  23  25
ATOM     25  O   UNL     1       4.775  -0.582   5.590  0.00  0.00    -0.503 OA
ATOM     26  H   UNL     1       5.723  -0.399   5.640  0.00  0.00    +0.292 HD
ENDBRANCH  23  25
BRANCH  22  27
ATOM     27  O   UNL     1       4.387  -2.148   7.822  0.00  0.00    -0.491 OA
ATOM     28  C   UNL     1       4.173  -3.020   8.934  0.00  0.00    +0.277 C 
ENDBRANCH  22  27
ENDBRANCH  10  19
BRANCH   8  29
ATOM     29  N   UNL     1       5.701  -7.688   2.323  0.00  0.00    -0.328 N 
ATOM     30  H   UNL     1       5.522  -8.641   2.307  0.00  0.00    +0.145 HD
ATOM     31  H   UNL     1       6.609  -7.363   2.223  0.00  0.00    +0.145 HD
ENDBRANCH   8  29
BRANCH   9  32
ATOM     32  C   UNL     1       6.336  -5.092   2.344  0.00  0.00    +0.101 C 
ATOM     33  N   UNL     1       7.422  -4.782   2.218  0.00  0.00    -0.191 NA
ENDBRANCH   9  32
TORSDOF 7
