REMARK  Name = ZINC08765195
REMARK  6 active torsions:
REMARK  status: ('A' for Active; 'I' for Inactive)
REMARK    1  A    between atoms: C_1  and  C_2
REMARK    2  A    between atoms: C_6  and  O_28
REMARK    3  A    between atoms: C_7  and  O_27
REMARK    4  A    between atoms: C_12  and  C_13
REMARK    5  A    between atoms: C_13  and  C_14
REMARK    6  A    between atoms: N_16  and  C_17
REMARK                            x       y       z     vdW  Elec       q    Type
REMARK                         _______ _______ _______ _____ _____    ______ ____
ROOT
ATOM      1  C   UNL     1      -1.337  -0.514   2.526  0.00  0.00    +0.045 C 
ATOM      2  C   UNL     1      -2.038  -0.763   1.215  0.00  0.00    -0.029 A 
ATOM      3  C   UNL     1      -3.414  -1.264   1.182  0.00  0.00    +0.025 A 
ATOM      4  C   UNL     1      -4.115  -1.525   2.365  0.00  0.00    +0.015 A 
ATOM      5  C   UNL     1      -5.395  -1.996   2.307  0.00  0.00    +0.050 A 
ATOM      6  C   UNL     1      -6.010  -2.221   1.078  0.00  0.00    +0.162 A 
ATOM      7  C   UNL     1      -5.331  -1.968  -0.106  0.00  0.00    +0.202 A 
ATOM      8  C   UNL     1      -4.027  -1.488  -0.064  0.00  0.00    +0.184 A 
ATOM      9  O   UNL     1      -3.347  -1.236  -1.204  0.00  0.00    -0.418 OA
ATOM     10  C   UNL     1      -2.087  -0.772  -1.180  0.00  0.00    +0.341 A 
ATOM     11  O   UNL     1      -1.513  -0.559  -2.233  0.00  0.00    -0.245 OA
ATOM     12  C   UNL     1      -1.412  -0.525   0.033  0.00  0.00    +0.049 A 
ENDROOT
BRANCH   7  13
ATOM     13  O   UNL     1      -5.939  -2.190  -1.303  0.00  0.00    -0.501 OA
ATOM     14  H   UNL     1      -5.810  -3.083  -1.651  0.00  0.00    +0.292 HD
ENDBRANCH   7  13
BRANCH   6  15
ATOM     15  O   UNL     1      -7.284  -2.690   1.038  0.00  0.00    -0.503 OA
ATOM     16  H   UNL     1      -7.348  -3.655   1.025  0.00  0.00    +0.292 HD
ENDBRANCH   6  15
BRANCH  12  17
ATOM     17  C   UNL     1       0.002  -0.004   0.019  0.00  0.00    +0.138 C 
BRANCH  17  18
ATOM     18  C   UNL     1      -0.018   1.503   0.016  0.00  0.00    +0.222 C 
ATOM     19  O   UNL     1      -1.077   2.095   0.020  0.00  0.00    -0.275 OA
ATOM     20  N   UNL     1       1.139   2.192   0.003  0.00  0.00    -0.285 N 
ATOM     21  H   UNL     1       1.985   1.721   0.062  0.00  0.00    +0.155 HD
BRANCH  20  22
ATOM     22  C   UNL     1       1.122   3.584  -0.095  0.00  0.00    +0.043 A 
ATOM     23  C   UNL     1       0.115   4.311   0.504  0.00  0.00    +0.024 A 
ATOM     24  C   UNL     1       0.095   5.700   0.417  0.00  0.00    +0.004 A 
ATOM     25  C   UNL     1       1.056   6.376  -0.270  0.00  0.00    +0.028 A 
ATOM     26  C   UNL     1       2.097   5.674  -0.900  0.00  0.00    +0.073 A 
ATOM     27  C   UNL     1       2.131   4.260  -0.811  0.00  0.00    +0.022 A 
ATOM     28  C   UNL     1       3.173   3.561  -1.443  0.00  0.00    +0.013 A 
ATOM     29  C   UNL     1       4.116   4.282  -2.122  0.00  0.00    +0.020 A 
ATOM     30  C   UNL     1       4.025   5.670  -2.171  0.00  0.00    +0.111 A 
ATOM     31  N   UNL     1       3.051   6.319  -1.580  0.00  0.00    -0.255 NA
ENDBRANCH  20  22
ENDBRANCH  17  18
ENDBRANCH  12  17
TORSDOF 5
