REMARK  Name = ZINC03527663
REMARK  8 active torsions:
REMARK  status: ('A' for Active; 'I' for Inactive)
REMARK    1  A    between atoms: C_1  and  C_2
REMARK    2  A    between atoms: N_11  and  C_15
REMARK    3  A    between atoms: C_15  and  C_16
REMARK    4  A    between atoms: N_18  and  C_19
REMARK    5  A    between atoms: C_24  and  C_25
REMARK    6  A    between atoms: C_25  and  C_26
REMARK    7  A    between atoms: C_25  and  C_27
REMARK    8  A    between atoms: C_25  and  C_28
REMARK                            x       y       z     vdW  Elec       q    Type
REMARK                         _______ _______ _______ _____ _____    ______ ____
ROOT
ATOM      1  C   UNL     1       4.774   3.723   0.227  0.00  0.00    +0.214 C 
ENDROOT
BRANCH   1  11
ATOM      2  C   UNL     1       5.730  -0.549   1.066  0.00  0.00    +0.010 C 
ATOM      3  C   UNL     1       7.059  -0.104   1.679  0.00  0.00    +0.018 C 
ATOM      4  C   UNL     1       8.162  -1.086   1.276  0.00  0.00    +0.006 C 
ATOM      5  C   UNL     1       9.494  -0.629   1.873  0.00  0.00    +0.000 C 
ATOM      6  C   UNL     1       9.843   0.763   1.341  0.00  0.00    +0.003 C 
ATOM      7  C   UNL     1       8.747   1.752   1.745  0.00  0.00    +0.035 C 
ATOM      8  C   UNL     1       7.410   1.291   1.174  0.00  0.00    +0.115 C 
ATOM      9  C   UNL     1       6.321   2.276   1.532  0.00  0.00    +0.247 C 
ATOM     10  O   UNL     1       5.946   2.584   2.643  0.00  0.00    -0.273 OA
ATOM     11  N   UNL     1       5.851   2.738   0.354  0.00  0.00    -0.215 N 
ATOM     12  C   UNL     1       6.495   2.188  -0.682  0.00  0.00    +0.310 C 
ATOM     13  O   UNL     1       6.253   2.450  -1.844  0.00  0.00    -0.252 OA
ATOM     14  N   UNL     1       7.442   1.313  -0.294  0.00  0.00    -0.285 N 
ATOM     15  H   UNL     1       8.030   0.800  -0.870  0.00  0.00    +0.151 HD
ENDBRANCH   1  11
BRANCH   1  16
ATOM     16  C   UNL     1       3.449   3.010   0.146  0.00  0.00    +0.235 C 
ATOM     17  O   UNL     1       3.408   1.799   0.190  0.00  0.00    -0.274 OA
ATOM     18  N   UNL     1       2.309   3.719   0.024  0.00  0.00    -0.284 N 
ATOM     19  H   UNL     1       2.344   4.685  -0.050  0.00  0.00    +0.155 HD
BRANCH  18  20
ATOM     20  C   UNL     1       1.074   3.060   0.003  0.00  0.00    +0.037 A 
ATOM     21  C   UNL     1       1.000   1.733  -0.398  0.00  0.00    +0.023 A 
ATOM     22  C   UNL     1      -0.220   1.086  -0.417  0.00  0.00    +0.002 A 
ATOM     23  C   UNL     1      -1.367   1.760  -0.041  0.00  0.00    +0.000 A 
ATOM     24  C   UNL     1      -1.296   3.080   0.364  0.00  0.00    +0.006 A 
ATOM     25  C   UNL     1      -0.079   3.733   0.385  0.00  0.00    -0.021 A 
BRANCH  25  26
ATOM     26  C   UNL     1      -0.003   5.173   0.822  0.00  0.00    -0.011 C 
ATOM     27  C   UNL     1      -1.366   5.616   1.357  0.00  0.00    +0.015 C 
ATOM     28  C   UNL     1       1.048   5.317   1.924  0.00  0.00    +0.015 C 
ATOM     29  C   UNL     1       0.386   6.048  -0.371  0.00  0.00    +0.015 C 
ENDBRANCH  25  26
ENDBRANCH  18  20
ENDBRANCH   1  16
TORSDOF 4
