REMARK  Name = ZINC21768043
REMARK  7 active torsions:
REMARK  status: ('A' for Active; 'I' for Inactive)
REMARK    1  A    between atoms: C_6  and  S_11
REMARK    2  A    between atoms: S_11  and  N_14
REMARK    3  A    between atoms: N_14  and  C_15
REMARK    4  A    between atoms: C_15  and  C_16
REMARK    5  A    between atoms: C_16  and  C_17
REMARK    6  A    between atoms: N_19  and  N_20
REMARK    7  A    between atoms: C_21  and  C_23
REMARK                            x       y       z     vdW  Elec       q    Type
REMARK                         _______ _______ _______ _____ _____    ______ ____
ROOT
ATOM      1  C   UNL     1       3.332   8.458   4.601  0.00  0.00    +0.230 C 
ATOM      2  O   UNL     1       4.161   7.649   4.242  0.00  0.00    -0.274 OA
ATOM      3  N   UNL     1       3.480   9.096   5.779  0.00  0.00    -0.234 N 
ATOM      4  H   UNL     1       2.729   9.830   6.106  0.00  0.00    +0.173 HD
ENDROOT
BRANCH   3   5
ATOM      5  N   UNL     1       4.591   8.824   6.588  0.00  0.00    -0.229 N 
ATOM      6  C   UNL     1       4.739   9.462   7.766  0.00  0.00    +0.278 C 
ATOM      7  O   UNL     1       3.909  10.273   8.127  0.00  0.00    -0.267 OA
ATOM      8  H   UNL     1       5.343   8.090   6.262  0.00  0.00    +0.173 HD
BRANCH   6   9
ATOM      9  C   UNL     1       5.915   9.174   8.623  0.00  0.00    +0.127 A 
ATOM     10  C   UNL     1       6.056   9.852   9.843  0.00  0.00    +0.034 A 
ATOM     11  C   UNL     1       7.131   9.592  10.643  0.00  0.00    +0.012 A 
ATOM     12  C   UNL     1       8.078   8.649  10.201  0.00  0.00    +0.000 A 
ATOM     13  C   UNL     1       9.211   8.338  10.970  0.00  0.00    +0.010 A 
ATOM     14  C   UNL     1      10.105   7.420  10.511  0.00  0.00    +0.001 A 
ATOM     15  C   UNL     1       9.913   6.783   9.285  0.00  0.00    +0.002 A 
ATOM     16  C   UNL     1       8.827   7.059   8.514  0.00  0.00    +0.028 A 
ATOM     17  C   UNL     1       7.879   8.002   8.954  0.00  0.00    +0.072 A 
ATOM     18  N   UNL     1       6.807   8.292   8.217  0.00  0.00    -0.242 NA
ENDBRANCH   6   9
ENDBRANCH   3   5
BRANCH   1  19
ATOM     19  C   UNL     1       2.137   8.750   3.731  0.00  0.00    +0.114 C 
BRANCH  19  20
ATOM     20  C   UNL     1       2.210   7.899   2.462  0.00  0.00    +0.115 C 
BRANCH  20  21
ATOM     21  N   UNL     1       1.048   8.184   1.616  0.00  0.00    -0.189 NA
ATOM     22  H   UNL     1       0.120   8.566   2.066  0.00  0.00    +0.148 HD
BRANCH  21  23
ATOM     23  S   UNL     1       1.040   7.702   0.031  0.00  0.00    +0.058 S 
ATOM     24  O   UNL     1       2.275   8.128  -0.529  0.00  0.00    -0.153 OA
ATOM     25  O   UNL     1      -0.216   8.094  -0.506  0.00  0.00    -0.153 OA
BRANCH  23  31
ATOM     26  C   UNL     1      -0.013   1.076   0.008  0.00  0.00    +0.001 A 
ATOM     27  C   UNL     1      -1.235   1.746   0.017  0.00  0.00    +0.001 A 
ATOM     28  C   UNL     1      -1.288   3.106   0.030  0.00  0.00    +0.008 A 
ATOM     29  C   UNL     1      -0.096   3.849   0.023  0.00  0.00    -0.016 A 
ATOM     30  C   UNL     1      -0.111   5.254   0.030  0.00  0.00    +0.037 A 
ATOM     31  C   UNL     1       1.064   5.940   0.022  0.00  0.00    +0.106 A 
ATOM     32  C   UNL     1       2.286   5.270   0.008  0.00  0.00    +0.029 A 
ATOM     33  C   UNL     1       2.340   3.910  -0.000  0.00  0.00    +0.010 A 
ATOM     34  C   UNL     1       1.147   3.167   0.008  0.00  0.00    -0.018 A 
ATOM     35  C   UNL     1       1.163   1.762   0.000  0.00  0.00    +0.008 A 
ENDBRANCH  23  31
ENDBRANCH  21  23
ENDBRANCH  20  21
ENDBRANCH  19  20
ENDBRANCH   1  19
TORSDOF 7
