REMARK  Name = ZINC36207945
REMARK  12 active torsions:
REMARK  status: ('A' for Active; 'I' for Inactive)
REMARK    1  A    between atoms: C_1  and  C_2
REMARK    2  A    between atoms: C_2  and  C_3
REMARK    3  A    between atoms: C_3  and  N_4
REMARK    4  A    between atoms: N_4  and  C_5
REMARK    5  A    between atoms: N_4  and  C_24
REMARK    6  A    between atoms: C_5  and  C_6
REMARK    7  A    between atoms: C_12  and  C_17
REMARK    8  A    between atoms: C_24  and  C_25
REMARK    9  A    between atoms: C_25  and  C_27
REMARK   10  A    between atoms: C_25  and  O_35
REMARK   11  A    between atoms: C_27  and  O_28
REMARK   12  A    between atoms: O_28  and  C_29
REMARK                            x       y       z     vdW  Elec       q    Type
REMARK                         _______ _______ _______ _____ _____    ______ ____
ROOT
ATOM      1  C   UNL     1      -2.749  -2.558  -0.391  0.00  0.00    -0.003 C 
ENDROOT
BRANCH   1   2
ATOM      2  C   UNL     1      -3.245  -2.043  -1.718  0.00  0.00    +0.094 A 
ATOM      3  N   UNL     1      -4.464  -2.433  -2.171  0.00  0.00    -0.312 N 
ATOM      4  H   UNL     1      -5.000  -3.038  -1.635  0.00  0.00    +0.170 HD
ATOM      5  C   UNL     1      -4.944  -1.996  -3.350  0.00  0.00    +0.260 A 
ATOM      6  O   UNL     1      -6.040  -2.355  -3.744  0.00  0.00    -0.267 OA
ATOM      7  C   UNL     1      -4.147  -1.103  -4.136  0.00  0.00    +0.080 A 
ATOM      8  C   UNL     1      -4.441  -0.498  -5.429  0.00  0.00    +0.004 A 
ATOM      9  C   UNL     1      -3.523   0.327  -5.987  0.00  0.00    +0.056 A 
ATOM     10  S   UNL     1      -2.198   0.336  -4.795  0.00  0.00    -0.076 S 
ATOM     11  C   UNL     1      -2.902  -0.756  -3.586  0.00  0.00    +0.116 A 
ATOM     12  N   UNL     1      -2.497  -1.226  -2.409  0.00  0.00    -0.229 NA
BRANCH   8  13
ATOM     13  C   UNL     1      -5.722  -0.781  -6.121  0.00  0.00    -0.015 A 
ATOM     14  C   UNL     1      -6.154  -2.097  -6.283  0.00  0.00    +0.008 A 
ATOM     15  C   UNL     1      -7.346  -2.355  -6.928  0.00  0.00    +0.002 A 
ATOM     16  C   UNL     1      -8.113  -1.311  -7.413  0.00  0.00    +0.020 A 
ATOM     17  C   UNL     1      -7.690  -0.002  -7.255  0.00  0.00    +0.042 A 
ATOM     18  C   UNL     1      -6.501   0.268  -6.606  0.00  0.00    +0.028 A 
ATOM     19 CL   UNL     1      -8.658   1.302  -7.868  0.00  0.00    -0.084 Cl
ENDBRANCH   8  13
ENDBRANCH   1   2
BRANCH   1  20
ATOM     20  N   UNL     1      -1.420  -1.997  -0.114  0.00  0.00    +0.386 N 
ATOM     21  H   UNL     1      -0.800  -2.204  -0.883  0.00  0.00    -0.081 HD
BRANCH  20  22
ATOM     22  C   UNL     1      -1.528  -0.542   0.050  0.00  0.00    -0.078 C 
BRANCH  22  24
ATOM     23  C   UNL     1      -0.231   1.587   0.227  0.00  0.00    +0.002 C 
ATOM     24  C   UNL     1      -0.128   0.061   0.190  0.00  0.00    -0.022 C 
ENDBRANCH  22  24
ENDBRANCH  20  22
BRANCH  20  25
ATOM     25  C   UNL     1      -0.885  -2.591   1.119  0.00  0.00    -0.043 C 
BRANCH  25  26
ATOM     26  C   UNL     1      -0.634  -4.084   0.899  0.00  0.00    +0.135 C 
BRANCH  26  27
ATOM     27  O   UNL     1       0.312  -4.257  -0.158  0.00  0.00    -0.390 OA
ATOM     28  H   UNL     1       1.193  -3.911   0.042  0.00  0.00    +0.210 HD
ENDBRANCH  26  27
BRANCH  26  29
ATOM     29  C   UNL     1      -0.082  -4.703   2.184  0.00  0.00    +0.258 C 
BRANCH  29  30
ATOM     30  O   UNL     1       0.044  -6.117   2.016  0.00  0.00    -0.489 OA
BRANCH  30  31
ATOM     31  C   UNL     1       0.524  -6.823   3.073  0.00  0.00    +0.121 A 
ATOM     32  C   UNL     1       0.862  -6.170   4.250  0.00  0.00    +0.045 A 
ATOM     33  C   UNL     1       1.350  -6.891   5.323  0.00  0.00    +0.004 A 
ATOM     34  C   UNL     1       1.501  -8.262   5.225  0.00  0.00    +0.000 A 
ATOM     35  C   UNL     1       1.165  -8.915   4.053  0.00  0.00    +0.004 A 
ATOM     36  C   UNL     1       0.672  -8.200   2.979  0.00  0.00    +0.045 A 
ENDBRANCH  30  31
ENDBRANCH  29  30
ENDBRANCH  26  29
ENDBRANCH  25  26
ENDBRANCH  20  25
ENDBRANCH   1  20
TORSDOF 11
