REMARK  Name = ZINC02393066
REMARK  4 active torsions:
REMARK  status: ('A' for Active; 'I' for Inactive)
REMARK    1  A    between atoms: C_1  and  C_2
REMARK    2  A    between atoms: C_4  and  N_11
REMARK    3  A    between atoms: C_5  and  O_9
REMARK    4  A    between atoms: O_9  and  C_10
REMARK                            x       y       z     vdW  Elec       q    Type
REMARK                         _______ _______ _______ _____ _____    ______ ____
ROOT
ATOM      1  N   UNL     1       0.028  -2.768  -2.429  0.00  0.00    -0.206 N 
ATOM      2  C   UNL     1      -1.096  -3.137  -3.055  0.00  0.00    +0.229 C 
ATOM      3  O   UNL     1      -2.221  -2.922  -2.658  0.00  0.00    -0.275 OA
ATOM      4  C   UNL     1      -0.744  -3.864  -4.333  0.00  0.00    +0.074 C 
ATOM      5  C   UNL     1      -1.175  -3.012  -5.541  0.00  0.00    -0.054 C 
ATOM      6  C   UNL     1      -2.317  -2.071  -5.116  0.00  0.00    -0.016 C 
ATOM      7  C   UNL     1      -1.629  -0.774  -4.647  0.00  0.00    -0.020 C 
ATOM      8  C   UNL     1      -0.118  -1.041  -4.800  0.00  0.00    -0.076 C 
ATOM      9  N   UNL     1      -0.005  -2.130  -5.836  0.00  0.00    +0.395 N 
ATOM     10  C   UNL     1       1.171  -2.971  -5.560  0.00  0.00    +0.053 C 
ATOM     11  C   UNL     1       0.809  -3.849  -4.338  0.00  0.00    +0.089 C 
ATOM     12  C   UNL     1       1.155  -3.112  -3.063  0.00  0.00    +0.230 C 
ATOM     13  O   UNL     1       2.278  -2.871  -2.675  0.00  0.00    -0.275 OA
ATOM     14  C   UNL     1       1.534  -3.819  -6.747  0.00  0.00    -0.026 A 
ATOM     15  C   UNL     1       0.858  -4.778  -7.468  0.00  0.00    +0.024 A 
ATOM     16  C   UNL     1       1.474  -5.401  -8.540  0.00  0.00    +0.041 A 
ATOM     17  C   UNL     1       2.771  -5.057  -8.883  0.00  0.00    +0.022 A 
ATOM     18  C   UNL     1       3.450  -4.097  -8.163  0.00  0.00    +0.025 A 
ATOM     19  C   UNL     1       2.837  -3.466  -7.083  0.00  0.00    +0.036 A 
ATOM     20  N   UNL     1       3.310  -2.479  -6.214  0.00  0.00    -0.286 N 
ATOM     21  C   UNL     1       2.393  -2.134  -5.291  0.00  0.00    +0.212 C 
ATOM     22  O   UNL     1       2.525  -1.309  -4.412  0.00  0.00    -0.277 OA
ATOM     23 CL   UNL     1       0.625  -6.611  -9.450  0.00  0.00    -0.084 Cl
ATOM     24  H   UNL     1       4.196  -2.089  -6.270  0.00  0.00    +0.155 HD
ATOM     25  H   UNL     1      -0.019  -1.772  -6.779  0.00  0.00    -0.079 HD
ENDROOT
BRANCH   1  29
ATOM     26  C   UNL     1      -0.018   1.503   0.010  0.00  0.00    +0.045 C 
ATOM     27  C   UNL     1       0.002  -0.004   0.002  0.00  0.00    -0.030 A 
ATOM     28  C   UNL     1       0.006  -0.687  -1.200  0.00  0.00    +0.032 A 
ATOM     29  C   UNL     1       0.025  -2.073  -1.209  0.00  0.00    +0.086 A 
ATOM     30  C   UNL     1       0.040  -2.775  -0.006  0.00  0.00    +0.143 A 
ATOM     31  C   UNL     1       0.036  -2.084   1.195  0.00  0.00    +0.067 A 
ATOM     32  C   UNL     1       0.023  -0.701   1.197  0.00  0.00    +0.047 A 
ATOM     33 CL   UNL     1       0.026   0.163   2.703  0.00  0.00    -0.083 Cl
BRANCH  30  34
ATOM     34  O   UNL     1       0.058  -4.134  -0.010  0.00  0.00    -0.493 OA
ATOM     35  C   UNL     1       0.073  -4.787   1.261  0.00  0.00    +0.277 C 
ENDBRANCH  30  34
ENDBRANCH   1  29
TORSDOF 2
