REMARK  Name = ZINC20267624
REMARK  8 active torsions:
REMARK  status: ('A' for Active; 'I' for Inactive)
REMARK    1  A    between atoms: C_1  and  O_2
REMARK    2  A    between atoms: O_2  and  C_3
REMARK    3  A    between atoms: C_7  and  C_11
REMARK    4  A    between atoms: C_8  and  O_9
REMARK    5  A    between atoms: O_9  and  C_10
REMARK    6  A    between atoms: C_16  and  N_18
REMARK    7  A    between atoms: N_18  and  C_19
REMARK    8  A    between atoms: C_24  and  C_25
REMARK                            x       y       z     vdW  Elec       q    Type
REMARK                         _______ _______ _______ _____ _____    ______ ____
ROOT
ATOM      1  C   UNL     1       0.893  -4.016  -2.579  0.00  0.00    +0.032 C 
ATOM      2  C   UNL     1       1.549  -4.620  -3.602  0.00  0.00    +0.080 C 
ATOM      3  C   UNL     1       1.854  -6.053  -3.819  0.00  0.00    +0.276 C 
ATOM      4  O   UNL     1       1.513  -6.912  -3.022  0.00  0.00    -0.267 OA
ATOM      5  N   UNL     1       2.513  -6.350  -4.918  0.00  0.00    -0.152 NA
ATOM      6  C   UNL     1       2.888  -5.428  -5.791  0.00  0.00    +0.175 C 
ATOM      7  S   UNL     1       2.280  -3.910  -5.072  0.00  0.00    -0.050 S 
ENDROOT
BRANCH   1  12
ATOM      8  C   UNL     1      -0.135  -0.532  -1.608  0.00  0.00    +0.162 A 
ATOM      9  C   UNL     1       0.744   0.222  -2.369  0.00  0.00    +0.049 A 
ATOM     10  C   UNL     1       1.667  -0.400  -3.194  0.00  0.00    +0.004 A 
ATOM     11  C   UNL     1       1.721  -1.774  -3.267  0.00  0.00    +0.012 A 
ATOM     12  C   UNL     1       0.840  -2.551  -2.504  0.00  0.00    +0.022 A 
ATOM     13  C   UNL     1      -0.091  -1.920  -1.665  0.00  0.00    +0.169 A 
BRANCH   8  15
ATOM     14  C   UNL     1      -1.028   1.516  -0.791  0.00  0.00    +0.277 C 
ATOM     15  O   UNL     1      -1.038   0.087  -0.800  0.00  0.00    -0.491 OA
ENDBRANCH   8  15
BRANCH  13  16
ATOM     16  O   UNL     1      -0.947  -2.662  -0.916  0.00  0.00    -0.491 OA
ATOM     17  C   UNL     1      -2.200  -3.004  -1.511  0.00  0.00    +0.277 C 
ENDBRANCH  13  16
ENDBRANCH   1  12
BRANCH   6  18
ATOM     18  N   UNL     1       3.573  -5.599  -6.966  0.00  0.00    -0.191 NA
BRANCH  18  19
ATOM     19  C   UNL     1       3.649  -6.865  -7.554  0.00  0.00    +0.067 A 
ATOM     20  C   UNL     1       2.716  -7.841  -7.227  0.00  0.00    +0.026 A 
ATOM     21  C   UNL     1       2.794  -9.091  -7.809  0.00  0.00    +0.002 A 
ATOM     22  C   UNL     1       3.799  -9.371  -8.717  0.00  0.00    +0.001 A 
ATOM     23  C   UNL     1       4.729  -8.402  -9.044  0.00  0.00    +0.014 A 
ATOM     24  C   UNL     1       4.654  -7.148  -8.470  0.00  0.00    +0.078 A 
BRANCH  24  25
ATOM     25  C   UNL     1       5.664  -6.090  -8.833  0.00  0.00    +0.419 C 
ATOM     26  F   UNL     1       6.567  -6.608  -9.767  0.00  0.00    -0.166 F 
ATOM     27  F   UNL     1       5.005  -4.985  -9.384  0.00  0.00    -0.166 F 
ATOM     28  F   UNL     1       6.357  -5.694  -7.684  0.00  0.00    -0.166 F 
ENDBRANCH  24  25
ENDBRANCH  18  19
ENDBRANCH   6  18
TORSDOF 6
