REMARK  Name = ZINC16850844
REMARK  5 active torsions:
REMARK  status: ('A' for Active; 'I' for Inactive)
REMARK    1  A    between atoms: C_1  and  C_2
REMARK    2  A    between atoms: C_2  and  C_4
REMARK    3  A    between atoms: C_2  and  N_16
REMARK    4  A    between atoms: C_4  and  C_5
REMARK    5  A    between atoms: C_17  and  C_19
REMARK                            x       y       z     vdW  Elec       q    Type
REMARK                         _______ _______ _______ _____ _____    ______ ____
ROOT
ATOM      1  N   UNL     1      -4.880   3.017  -3.008  0.00  0.00    -0.312 N 
ATOM      2  C   UNL     1      -4.146   2.395  -2.064  0.00  0.00    +0.221 C 
ATOM      3  O   UNL     1      -4.456   2.488  -0.896  0.00  0.00    -0.275 OA
ATOM      4  H   UNL     1      -4.632   2.943  -3.943  0.00  0.00    +0.149 HD
ENDROOT
BRANCH   2   5
ATOM      5  C   UNL     1      -2.938   1.585  -2.462  0.00  0.00    +0.129 C 
ATOM      6  C   UNL     1      -2.649   0.481  -1.419  0.00  0.00    +0.137 C 
ATOM      7  C   UNL     1      -1.491   1.046  -0.616  0.00  0.00    +0.308 C 
ATOM      8  O   UNL     1      -1.255   0.832   0.549  0.00  0.00    -0.251 OA
ATOM      9  O   UNL     1      -0.776   1.829  -1.445  0.00  0.00    -0.457 OA
ATOM     10  C   UNL     1      -1.664   2.449  -2.415  0.00  0.00    +0.125 C 
ATOM     11  C   UNL     1      -1.007   2.471  -3.793  0.00  0.00    +0.049 C 
ATOM     12  C   UNL     1       0.258   3.330  -3.744  0.00  0.00    +0.004 C 
ATOM     13  C   UNL     1      -0.109   4.754  -3.320  0.00  0.00    +0.000 C 
ATOM     14  C   UNL     1      -0.751   4.723  -1.931  0.00  0.00    +0.004 C 
ATOM     15  C   UNL     1      -2.019   3.868  -1.975  0.00  0.00    +0.049 C 
ENDBRANCH   2   5
BRANCH   1  17
ATOM     16  C   UNL     1      -5.616   5.219  -2.240  0.00  0.00    +0.028 C 
ATOM     17  C   UNL     1      -6.054   3.804  -2.622  0.00  0.00    +0.074 C 
BRANCH  17  18
ATOM     18  C   UNL     1      -7.031   3.873  -3.797  0.00  0.00    +0.059 C 
BRANCH  18  19
ATOM     19  C   UNL     1      -7.557   2.492  -4.094  0.00  0.00    -0.021 A 
ATOM     20  C   UNL     1      -7.080   1.635  -5.011  0.00  0.00    +0.087 A 
ATOM     21  N   UNL     1      -7.809   0.478  -4.993  0.00  0.00    -0.360 N 
ATOM     22  H   UNL     1      -7.650  -0.290  -5.564  0.00  0.00    +0.165 HD
ATOM     23  C   UNL     1      -8.806   0.567  -4.046  0.00  0.00    +0.047 A 
ATOM     24  C   UNL     1      -8.691   1.833  -3.442  0.00  0.00    +0.004 A 
ATOM     25  C   UNL     1      -9.581   2.206  -2.433  0.00  0.00    +0.025 A 
ATOM     26  C   UNL     1     -10.566   1.330  -2.035  0.00  0.00    +0.019 A 
ATOM     27  C   UNL     1     -10.678   0.081  -2.632  0.00  0.00    +0.017 A 
ATOM     28  C   UNL     1      -9.808  -0.302  -3.629  0.00  0.00    +0.027 A 
ATOM     29 BR   UNL     1     -11.773   1.831  -0.668  0.00  0.00    -0.050 Br
ENDBRANCH  18  19
ENDBRANCH  17  18
ENDBRANCH   1  17
TORSDOF 4
