REMARK  Name = ZINC61782240
REMARK  11 active torsions:
REMARK  status: ('A' for Active; 'I' for Inactive)
REMARK    1  A    between atoms: C_1  and  N_2
REMARK    2  A    between atoms: C_3  and  C_5
REMARK    3  A    between atoms: C_5  and  C_6
REMARK    4  A    between atoms: C_11  and  N_12
REMARK    5  A    between atoms: C_13  and  C_15
REMARK    6  A    between atoms: N_17  and  C_18
REMARK    7  A    between atoms: C_18  and  C_19
REMARK    8  A    between atoms: C_19  and  C_20
REMARK    9  A    between atoms: C_19  and  N_26
REMARK   10  A    between atoms: N_26  and  C_27
REMARK   11  A    between atoms: N_26  and  C_28
REMARK                            x       y       z     vdW  Elec       q    Type
REMARK                         _______ _______ _______ _____ _____    ______ ____
ROOT
ATOM      1  N   UNL     1       3.441  -2.671  -1.137  0.00  0.00    -0.277 N 
ATOM      2  C   UNL     1       4.778  -2.845  -1.110  0.00  0.00    +0.303 C 
ATOM      3  O   UNL     1       5.356  -3.262  -2.093  0.00  0.00    -0.265 OA
ATOM      4  H   UNL     1       2.987  -2.286  -0.372  0.00  0.00    +0.155 HD
ENDROOT
BRANCH   1  10
ATOM      5  C   UNL     1       1.427  -3.560  -2.127  0.00  0.00    -0.017 A 
ATOM      6  C   UNL     1       0.706  -3.925  -3.247  0.00  0.00    +0.006 A 
ATOM      7  C   UNL     1       1.262  -3.787  -4.505  0.00  0.00    +0.000 A 
ATOM      8  C   UNL     1       2.542  -3.284  -4.648  0.00  0.00    +0.002 A 
ATOM      9  C   UNL     1       3.269  -2.917  -3.533  0.00  0.00    +0.023 A 
ATOM     10  C   UNL     1       2.711  -3.048  -2.267  0.00  0.00    +0.037 A 
BRANCH   5  11
ATOM     11  C   UNL     1       0.820  -3.710  -0.756  0.00  0.00    +0.132 C 
BRANCH  11  14
ATOM     12  C   UNL     1      -1.032  -1.037   1.263  0.00  0.00    +0.128 C 
ATOM     13  N   UNL     1      -0.419  -2.305   0.859  0.00  0.00    -0.318 N 
ATOM     14  C   UNL     1       0.189  -2.407  -0.340  0.00  0.00    +0.217 C 
ATOM     15  O   UNL     1       0.229  -1.449  -1.083  0.00  0.00    -0.275 OA
ATOM     16  H   UNL     1      -0.450  -3.070   1.453  0.00  0.00    +0.148 HD
ENDBRANCH  11  14
ENDBRANCH   5  11
ENDBRANCH   1  10
BRANCH   2  17
ATOM     17  C   UNL     1       5.548  -2.523   0.129  0.00  0.00    +0.299 C 
ATOM     18  O   UNL     1       4.970  -2.105   1.111  0.00  0.00    -0.265 OA
ATOM     19  N   UNL     1       6.884  -2.696   0.155  0.00  0.00    -0.309 N 
ATOM     20  H   UNL     1       7.346  -3.030  -0.630  0.00  0.00    +0.149 HD
BRANCH  19  21
ATOM     21  C   UNL     1       7.639  -2.380   1.370  0.00  0.00    +0.094 C 
BRANCH  21  22
ATOM     22  C   UNL     1       9.136  -2.542   1.097  0.00  0.00    -0.021 C 
BRANCH  22  23
ATOM     23  C   UNL     1       9.562  -1.561   0.036  0.00  0.00    -0.059 A 
ATOM     24  C   UNL     1       9.807  -0.242   0.372  0.00  0.00    +0.002 A 
ATOM     25  C   UNL     1      10.197   0.658  -0.601  0.00  0.00    +0.000 A 
ATOM     26  C   UNL     1      10.344   0.240  -1.911  0.00  0.00    +0.000 A 
ATOM     27  C   UNL     1      10.100  -1.078  -2.247  0.00  0.00    +0.000 A 
ATOM     28  C   UNL     1       9.713  -1.980  -1.273  0.00  0.00    +0.002 A 
ENDBRANCH  22  23
BRANCH  22  29
ATOM     29  N   UNL     1       9.890  -2.287   2.332  0.00  0.00    +0.382 N 
ATOM     30  C   UNL     1       9.549  -3.305   3.333  0.00  0.00    -0.096 C 
ATOM     31  C   UNL     1      11.330  -2.343   2.047  0.00  0.00    -0.096 C 
ATOM     32  H   UNL     1       9.653  -1.373   2.687  0.00  0.00    -0.082 HD
ENDBRANCH  22  29
ENDBRANCH  21  22
ENDBRANCH  19  21
ENDBRANCH   2  17
TORSDOF 8
