REMARK  Name = ZINC20082204
REMARK  10 active torsions:
REMARK  status: ('A' for Active; 'I' for Inactive)
REMARK    1  A    between atoms: C_1  and  C_2
REMARK    2  A    between atoms: C_9  and  C_14
REMARK    3  A    between atoms: C_14  and  C_16
REMARK    4  A    between atoms: C_14  and  N_28
REMARK    5  A    between atoms: N_20  and  C_21
REMARK    6  A    between atoms: C_21  and  C_22
REMARK    7  A    between atoms: N_28  and  C_29
REMARK    8  A    between atoms: N_28  and  C_36
REMARK    9  A    between atoms: C_29  and  C_30
REMARK   10  A    between atoms: C_36  and  C_37
REMARK                            x       y       z     vdW  Elec       q    Type
REMARK                         _______ _______ _______ _____ _____    ______ ____
ROOT
ATOM      1  C   UNL     1      -0.177   1.061  -0.827  0.00  0.00    +0.163 C 
ENDROOT
BRANCH   1  10
ATOM      2  C   UNL     1       7.183   0.103  -1.555  0.00  0.00    +0.044 C 
ATOM      3  C   UNL     1       5.949   0.956  -1.694  0.00  0.00    -0.050 A 
ATOM      4  C   UNL     1       6.058   2.246  -2.196  0.00  0.00    +0.005 A 
ATOM      5  C   UNL     1       4.942   3.044  -2.333  0.00  0.00    +0.026 A 
ATOM      6  C   UNL     1       3.694   2.554  -1.963  0.00  0.00    +0.049 A 
ATOM      7  C   UNL     1       3.588   1.245  -1.455  0.00  0.00    -0.001 A 
ATOM      8  C   UNL     1       4.734   0.453  -1.326  0.00  0.00    +0.013 A 
ATOM      9  C   UNL     1       2.270   0.740  -1.064  0.00  0.00    +0.021 A 
ATOM     10  C   UNL     1       1.194   1.552  -1.216  0.00  0.00    +0.042 A 
ATOM     11  C   UNL     1       1.355   2.856  -1.730  0.00  0.00    +0.254 A 
ATOM     12  O   UNL     1       0.375   3.571  -1.855  0.00  0.00    -0.268 OA
ATOM     13  N   UNL     1       2.561   3.330  -2.088  0.00  0.00    -0.322 N 
ATOM     14  H   UNL     1       2.637   4.353  -2.484  0.00  0.00    +0.169 HD
ENDBRANCH   1  10
BRANCH   1  15
ATOM     15  C   UNL     1      -1.060   1.022  -2.047  0.00  0.00    +0.173 A 
ATOM     16  N   UNL     1      -1.535   2.052  -2.703  0.00  0.00    -0.111 NA
ATOM     17  N   UNL     1      -2.243   1.607  -3.684  0.00  0.00    -0.023 NA
ATOM     18  N   UNL     1      -2.238   0.320  -3.666  0.00  0.00    -0.044 NA
ATOM     19  N   UNL     1      -1.519  -0.079  -2.671  0.00  0.00    -0.223 N 
BRANCH  19  20
ATOM     20  C   UNL     1      -1.254  -1.469  -2.292  0.00  0.00    +0.182 C 
BRANCH  20  21
ATOM     21  C   UNL     1      -2.393  -1.987  -1.454  0.00  0.00    -0.026 A 
ATOM     22  C   UNL     1      -2.363  -1.840  -0.080  0.00  0.00    +0.005 A 
ATOM     23  C   UNL     1      -3.411  -2.311   0.689  0.00  0.00    +0.000 A 
ATOM     24  C   UNL     1      -4.484  -2.939   0.085  0.00  0.00    +0.000 A 
ATOM     25  C   UNL     1      -4.511  -3.092  -1.288  0.00  0.00    +0.000 A 
ATOM     26  C   UNL     1      -3.466  -2.616  -2.058  0.00  0.00    +0.005 A 
ENDBRANCH  20  21
ENDBRANCH  19  20
ENDBRANCH   1  15
BRANCH   1  27
ATOM     27  N   UNL     1      -0.758   1.971   0.169  0.00  0.00    -0.277 NA
BRANCH  27  28
ATOM     28  C   UNL     1       0.083   2.043   1.371  0.00  0.00    +0.121 C 
BRANCH  28  29
ATOM     29  C   UNL     1       1.054   3.188   1.237  0.00  0.00    -0.033 A 
ATOM     30  C   UNL     1       2.353   2.949   0.829  0.00  0.00    +0.005 A 
ATOM     31  C   UNL     1       3.241   4.000   0.701  0.00  0.00    +0.000 A 
ATOM     32  C   UNL     1       2.834   5.289   0.993  0.00  0.00    +0.000 A 
ATOM     33  C   UNL     1       1.537   5.527   1.407  0.00  0.00    +0.000 A 
ATOM     34  C   UNL     1       0.647   4.476   1.529  0.00  0.00    +0.005 A 
ENDBRANCH  28  29
ENDBRANCH  27  28
BRANCH  27  35
ATOM     35  C   UNL     1      -2.130   1.571   0.510  0.00  0.00    +0.160 C 
BRANCH  35  36
ATOM     36  C   UNL     1      -3.078   2.082  -0.544  0.00  0.00    +0.119 A 
ATOM     37  C   UNL     1      -3.675   1.339  -1.493  0.00  0.00    +0.046 A 
ATOM     38  C   UNL     1      -4.474   2.217  -2.260  0.00  0.00    +0.041 A 
ATOM     39  C   UNL     1      -4.318   3.445  -1.734  0.00  0.00    +0.195 A 
ATOM     40  O   UNL     1      -3.476   3.357  -0.692  0.00  0.00    -0.467 OA
ENDBRANCH  35  36
ENDBRANCH  27  35
ENDBRANCH   1  27
TORSDOF 9
