REMARK  Name = ZINC36054049
REMARK  12 active torsions:
REMARK  status: ('A' for Active; 'I' for Inactive)
REMARK    1  A    between atoms: C_1  and  C_2
REMARK    2  A    between atoms: C_2  and  C_3
REMARK    3  A    between atoms: C_2  and  C_4
REMARK    4  A    between atoms: C_2  and  C_5
REMARK    5  A    between atoms: C_8  and  C_11
REMARK    6  A    between atoms: C_11  and  N_12
REMARK    7  A    between atoms: N_12  and  C_13
REMARK    8  A    between atoms: N_12  and  C_25
REMARK    9  A    between atoms: C_13  and  C_14
REMARK   10  A    between atoms: C_14  and  C_15
REMARK   11  A    between atoms: C_25  and  C_26
REMARK   12  A    between atoms: C_28  and  C_31
REMARK                            x       y       z     vdW  Elec       q    Type
REMARK                         _______ _______ _______ _____ _____    ______ ____
ROOT
ATOM      1  N   UNK     1       2.218  -1.316  -6.745  0.00  0.00    +0.388 N 
ATOM      2  H   UNK     1       2.461  -0.370  -6.492  0.00  0.00    -0.081 HD
ENDROOT
BRANCH   1   3
ATOM      3  C   UNK     1       2.361  -2.190  -5.573  0.00  0.00    -0.042 C 
BRANCH   3   7
ATOM      4  C   UNK     1       6.293  -1.772  -3.957  0.00  0.00    -0.042 A 
ATOM      5  C   UNK     1       5.303  -0.873  -3.607  0.00  0.00    +0.004 A 
ATOM      6  C   UNK     1       4.031  -1.008  -4.130  0.00  0.00    +0.002 A 
ATOM      7  C   UNK     1       3.749  -2.042  -5.004  0.00  0.00    -0.064 A 
ATOM      8  C   UNK     1       4.739  -2.940  -5.354  0.00  0.00    +0.002 A 
ATOM      9  C   UNK     1       6.013  -2.803  -4.834  0.00  0.00    +0.004 A 
BRANCH   4  11
ATOM     10  C   UNK     1       8.665  -1.311  -4.515  0.00  0.00    +0.015 C 
ATOM     11  C   UNK     1       7.680  -1.625  -3.386  0.00  0.00    -0.013 C 
ATOM     12  C   UNK     1       8.090  -2.929  -2.699  0.00  0.00    +0.015 C 
ATOM     13  C   UNK     1       7.694  -0.484  -2.366  0.00  0.00    +0.015 C 
ENDBRANCH   4  11
ENDBRANCH   3   7
ENDBRANCH   1   3
BRANCH   1  14
ATOM     14  C   UNK     1       3.111  -1.781  -7.815  0.00  0.00    -0.073 C 
BRANCH  14  15
ATOM     15  C   UNK     1       3.054  -0.800  -8.989  0.00  0.00    +0.019 C 
BRANCH  15  16
ATOM     16  C   UNK     1       3.970  -1.277 -10.086  0.00  0.00    -0.024 A 
ATOM     17  C   UNK     1       5.242  -0.897 -10.286  0.00  0.00    +0.087 A 
ATOM     18  N   UNK     1       5.755  -1.541 -11.379  0.00  0.00    -0.360 N 
ATOM     19  H   UNK     1       6.657  -1.428 -11.719  0.00  0.00    +0.165 HD
ATOM     20  C   UNK     1       4.802  -2.372 -11.923  0.00  0.00    +0.047 A 
ATOM     21  C   UNK     1       3.644  -2.248 -11.134  0.00  0.00    +0.003 A 
ATOM     22  C   UNK     1       2.503  -2.987 -11.450  0.00  0.00    +0.010 A 
ATOM     23  C   UNK     1       2.518  -3.832 -12.524  0.00  0.00    +0.001 A 
ATOM     24  C   UNK     1       3.659  -3.961 -13.303  0.00  0.00    +0.002 A 
ATOM     25  C   UNK     1       4.793  -3.233 -13.015  0.00  0.00    +0.026 A 
ENDBRANCH  15  16
ENDBRANCH  14  15
ENDBRANCH   1  14
BRANCH   1  26
ATOM     26  C   UNK     1       0.827  -1.355  -7.217  0.00  0.00    +0.017 C 
BRANCH  26  27
ATOM     27  C   UNK     1      -0.075  -0.749  -6.173  0.00  0.00    +0.158 A 
ATOM     28  N   UNK     1      -0.466   0.489  -6.144  0.00  0.00    -0.323 N 
ATOM     29  C   UNK     1      -1.267   0.663  -5.058  0.00  0.00    +0.166 A 
ATOM     30  C   UNK     1      -1.345  -0.540  -4.422  0.00  0.00    +0.230 A 
ATOM     31  O   UNK     1      -0.605  -1.405  -5.130  0.00  0.00    -0.451 OA
ATOM     32  H   UNK     1      -0.227   1.174  -6.788  0.00  0.00    +0.169 HD
BRANCH  29  33
ATOM     33  C   UNK     1      -1.924   1.913  -4.647  0.00  0.00    +0.406 C 
ATOM     34  O   UNK     1      -1.847   2.906  -5.357  0.00  0.00    -0.239 OA
ATOM     35  O   UNK     1      -2.547   1.960  -3.595  0.00  0.00    -0.239 OA
ENDBRANCH  29  33
ENDBRANCH  26  27
ENDBRANCH   1  26
TORSDOF 9
