REMARK  Name = ZINC12076788
REMARK  9 active torsions:
REMARK  status: ('A' for Active; 'I' for Inactive)
REMARK    1  A    between atoms: C_1  and  C_2
REMARK    2  A    between atoms: C_7  and  C_8
REMARK    3  A    between atoms: C_8  and  C_9
REMARK    4  A    between atoms: C_9  and  C_10
REMARK    5  A    between atoms: C_17  and  C_19
REMARK    6  A    between atoms: C_19  and  C_20
REMARK    7  A    between atoms: C_20  and  C_21
REMARK    8  A    between atoms: C_22  and  C_27
REMARK    9  A    between atoms: C_25  and  C_26
REMARK                            x       y       z     vdW  Elec       q    Type
REMARK                         _______ _______ _______ _____ _____    ______ ____
ROOT
ATOM      1  C   UNL     1      -0.110  -2.038  -1.445  0.00  0.00    +0.007 C 
ATOM      2  C   UNL     1      -0.367  -2.544  -2.866  0.00  0.00    +0.006 C 
ATOM      3  C   UNL     1      -0.379  -4.075  -2.869  0.00  0.00    +0.019 C 
ATOM      4  C   UNL     1       0.988  -4.593  -2.411  0.00  0.00    +0.108 C 
ATOM      5  N   UNL     1       1.308  -3.995  -1.108  0.00  0.00    -0.301 N 
ATOM      6  C   UNL     1       1.260  -2.533  -0.971  0.00  0.00    +0.111 C 
ATOM      7  C   UNL     1       1.639  -4.773  -0.058  0.00  0.00    +0.216 C 
ATOM      8  O   UNL     1       1.901  -4.268   1.013  0.00  0.00    -0.276 OA
ENDROOT
BRANCH   1   9
ATOM      9  C   UNL     1      -0.130  -0.508  -1.437  0.00  0.00    +0.010 C 
BRANCH   9  10
ATOM     10  C   UNL     1       0.002  -0.004   0.002  0.00  0.00    +0.036 C 
BRANCH  10  17
ATOM     11  C   UNL     1      -2.519   1.406   0.022  0.00  0.00    +0.044 C 
ATOM     12  C   UNL     1      -1.225   2.178   0.020  0.00  0.00    -0.047 A 
ATOM     13  C   UNL     1      -1.243   3.560   0.032  0.00  0.00    +0.003 A 
ATOM     14  C   UNL     1      -0.056   4.267   0.025  0.00  0.00    +0.000 A 
ATOM     15  C   UNL     1       1.151   3.592   0.010  0.00  0.00    +0.000 A 
ATOM     16  C   UNL     1       1.169   2.210   0.003  0.00  0.00    +0.004 A 
ATOM     17  C   UNL     1      -0.018   1.503   0.010  0.00  0.00    -0.044 A 
ENDBRANCH  10  17
ENDBRANCH   9  10
ENDBRANCH   1   9
BRANCH   7  18
ATOM     18  C   UNL     1       1.683  -6.271  -0.215  0.00  0.00    +0.101 C 
BRANCH  18  19
ATOM     19  C   UNL     1       2.083  -6.912   1.116  0.00  0.00    +0.049 C 
BRANCH  19  20
ATOM     20  C   UNL     1       2.127  -8.410   0.959  0.00  0.00    +0.018 A 
ATOM     21  C   UNL     1       3.226  -9.213   0.576  0.00  0.00    +0.084 A 
ATOM     22  N   UNL     1       2.800 -10.443   0.577  0.00  0.00    -0.083 NA
ATOM     23  O   UNL     1       1.635 -10.511   0.894  0.00  0.00    -0.359 OA
ATOM     24  C   UNL     1       1.125  -9.299   1.158  0.00  0.00    +0.138 A 
ATOM     25  C   UNL     1      -0.285  -8.989   1.588  0.00  0.00    +0.089 C 
ATOM     26  C   UNL     1       4.615  -8.739   0.235  0.00  0.00    +0.069 C 
ENDBRANCH  19  20
ENDBRANCH  18  19
ENDBRANCH   7  18
TORSDOF 6
