REMARK  Name = ZINC01709026
REMARK  7 active torsions:
REMARK  status: ('A' for Active; 'I' for Inactive)
REMARK    1  A    between atoms: C_1  and  C_2
REMARK    2  A    between atoms: C_2  and  C_3
REMARK    3  A    between atoms: C_4  and  C_13
REMARK    4  A    between atoms: C_13  and  C_14
REMARK    5  A    between atoms: C_13  and  C_26
REMARK    6  A    between atoms: C_23  and  C_24
REMARK    7  A    between atoms: C_24  and  C_25
REMARK                            x       y       z     vdW  Elec       q    Type
REMARK                         _______ _______ _______ _____ _____    ______ ____
ROOT
ATOM      1  C   UNL     1      -1.751   4.029   1.573  0.00  0.00    +0.064 C 
ENDROOT
BRANCH   1   3
ATOM      2  C   UNL     1      -0.740   3.019   3.679  0.00  0.00    +0.021 A 
ATOM      3  C   UNL     1      -0.704   3.289   2.365  0.00  0.00    -0.011 A 
ATOM      4  C   UNL     1       0.543   2.722   1.845  0.00  0.00    +0.004 A 
ATOM      5  C   UNL     1       1.140   2.685   0.583  0.00  0.00    +0.010 A 
ATOM      6  C   UNL     1       2.348   2.067   0.423  0.00  0.00    +0.001 A 
ATOM      7  C   UNL     1       2.990   1.482   1.506  0.00  0.00    +0.002 A 
ATOM      8  C   UNL     1       2.422   1.512   2.760  0.00  0.00    +0.026 A 
ATOM      9  C   UNL     1       1.193   2.136   2.946  0.00  0.00    +0.047 A 
ATOM     10  N   UNL     1       0.385   2.330   4.045  0.00  0.00    -0.358 N 
ATOM     11  H   UNL     1       0.584   2.025   4.944  0.00  0.00    +0.166 HD
BRANCH   2  13
ATOM     12  C   UNL     1      -3.058   2.498   4.389  0.00  0.00    +0.010 C 
ATOM     13  C   UNL     1      -1.853   3.415   4.614  0.00  0.00    +0.050 C 
ENDBRANCH   2  13
ENDBRANCH   1   3
BRANCH   1  14
ATOM     14  C   UNL     1      -1.542   5.513   1.729  0.00  0.00    -0.011 A 
ATOM     15  C   UNL     1      -0.287   6.243   1.530  0.00  0.00    +0.004 A 
ATOM     16  C   UNL     1       1.005   5.867   1.156  0.00  0.00    +0.010 A 
ATOM     17  C   UNL     1       1.983   6.815   1.050  0.00  0.00    +0.001 A 
ATOM     18  C   UNL     1       1.701   8.151   1.304  0.00  0.00    +0.002 A 
ATOM     19  C   UNL     1       0.432   8.544   1.669  0.00  0.00    +0.026 A 
ATOM     20  C   UNL     1      -0.579   7.595   1.783  0.00  0.00    +0.047 A 
ATOM     21  N   UNL     1      -1.913   7.667   2.119  0.00  0.00    -0.358 N 
ATOM     22  H   UNL     1      -2.386   8.482   2.348  0.00  0.00    +0.166 HD
ATOM     23  C   UNL     1      -2.470   6.418   2.081  0.00  0.00    +0.021 A 
BRANCH  23  24
ATOM     24  C   UNL     1      -3.911   6.104   2.389  0.00  0.00    +0.050 C 
ATOM     25  C   UNL     1      -4.123   6.116   3.905  0.00  0.00    +0.010 C 
ENDBRANCH  23  24
ENDBRANCH   1  14
BRANCH   1  26
ATOM     26  C   UNL     1      -1.635   3.650   0.095  0.00  0.00    +0.067 C 
ATOM     27  C   UNL     1      -1.710   2.127  -0.052  0.00  0.00    +0.012 C 
ATOM     28  C   UNL     1      -1.734   1.761  -1.538  0.00  0.00    +0.001 C 
ATOM     29  C   UNL     1      -3.002   2.318  -2.187  0.00  0.00    +0.008 C 
ATOM     30  C   UNL     1      -2.978   3.849  -2.119  0.00  0.00    +0.074 C 
ATOM     31  C   UNL     1      -2.782   4.263  -0.678  0.00  0.00    +0.137 C 
ATOM     32  O   UNL     1      -3.521   5.064  -0.158  0.00  0.00    -0.297 OA
ENDBRANCH   1  26
TORSDOF 5
