REMARK  Name = ZINC39533611
REMARK  15 active torsions:
REMARK  status: ('A' for Active; 'I' for Inactive)
REMARK    1  A    between atoms: C_1  and  C_2
REMARK    2  A    between atoms: C_2  and  C_3
REMARK    3  A    between atoms: C_2  and  C_4
REMARK    4  A    between atoms: C_4  and  C_5
REMARK    5  A    between atoms: C_8  and  C_11
REMARK    6  A    between atoms: C_11  and  C_13
REMARK    7  A    between atoms: C_11  and  N_25
REMARK    8  A    between atoms: C_13  and  N_14
REMARK    9  A    between atoms: N_14  and  S_15
REMARK   10  A    between atoms: S_15  and  O_18
REMARK   11  A    between atoms: O_18  and  C_19
REMARK   12  A    between atoms: C_29  and  S_32
REMARK   13  A    between atoms: S_32  and  C_35
REMARK   14  A    between atoms: C_35  and  C_36
REMARK   15  A    between atoms: C_35  and  C_37
REMARK                            x       y       z     vdW  Elec       q    Type
REMARK                         _______ _______ _______ _____ _____    ______ ____
ROOT
ATOM      1  C   UNL     1      -4.265   0.922  -4.653  0.00  0.00    +0.065 C 
ENDROOT
BRANCH   1   2
ATOM      2  N   UNL     1      -4.832  -0.222  -5.381  0.00  0.00    -0.293 NA
ATOM      3  C   UNL     1      -3.787  -0.947  -6.116  0.00  0.00    +0.100 C 
ATOM      4  C   UNL     1      -4.402  -2.174  -6.794  0.00  0.00    +0.098 C 
ATOM      5  N   UNL     1      -5.476  -1.742  -7.700  0.00  0.00    -0.293 NA
ATOM      6  C   UNL     1      -6.521  -1.016  -6.964  0.00  0.00    +0.212 C 
ATOM      7  C   UNL     1      -5.906   0.210  -6.286  0.00  0.00    +0.127 C 
ATOM      8  H   UNL     1      -5.109  -1.182  -8.454  0.00  0.00    +0.124 HD
BRANCH   6   9
ATOM      9  S   UNL     1      -7.815  -0.485  -8.119  0.00  0.00    -0.012 S 
ATOM     10  O   UNL     1      -8.900   0.040  -7.367  0.00  0.00    -0.173 OA
ATOM     11  O   UNL     1      -7.217   0.322  -9.124  0.00  0.00    -0.173 OA
BRANCH   9  12
ATOM     12  C   UNL     1      -8.343  -2.046  -8.876  0.00  0.00    +0.126 C 
ATOM     13  C   UNL     1      -8.894  -2.977  -7.793  0.00  0.00    +0.031 C 
ATOM     14  C   UNL     1      -9.434  -1.768  -9.912  0.00  0.00    +0.031 C 
ENDBRANCH   9  12
ENDBRANCH   6   9
ENDBRANCH   1   2
BRANCH   1  18
ATOM     15  C   UNL     1      -2.604  -0.425  -0.955  0.00  0.00    -0.047 A 
ATOM     16  C   UNL     1      -2.771   0.927  -1.186  0.00  0.00    +0.004 A 
ATOM     17  C   UNL     1      -3.308   1.363  -2.383  0.00  0.00    +0.005 A 
ATOM     18  C   UNL     1      -3.679   0.447  -3.349  0.00  0.00    -0.032 A 
ATOM     19  C   UNL     1      -3.511  -0.906  -3.119  0.00  0.00    +0.005 A 
ATOM     20  C   UNL     1      -2.970  -1.342  -1.923  0.00  0.00    +0.004 A 
BRANCH  15  21
ATOM     21  C   UNL     1      -2.018  -0.900   0.349  0.00  0.00    +0.038 C 
BRANCH  21  23
ATOM     22  C   UNL     1       0.080   0.412   0.007  0.00  0.00    +0.007 C 
ATOM     23  C   UNL     1      -0.496  -0.989   0.223  0.00  0.00    -0.013 C 
ATOM     24  C   UNL     1       0.088  -1.589   1.503  0.00  0.00    +0.007 C 
ENDBRANCH  21  23
ENDBRANCH  15  21
ENDBRANCH   1  18
BRANCH   1  25
ATOM     25  C   UNL     1      -3.169   1.572  -5.499  0.00  0.00    -0.087 C 
BRANCH  25  26
ATOM     26  N   UNL     1      -3.721   1.964  -6.798  0.00  0.00    +0.494 NA
BRANCH  26  27
ATOM     27  S   UNL     1      -2.752   2.697  -7.923  0.00  0.00    +0.067 S 
ATOM     28  O   UNL     1      -2.391   3.962  -7.386  0.00  0.00    -0.159 OA
ATOM     29  O   UNL     1      -1.786   1.732  -8.316  0.00  0.00    -0.159 OA
BRANCH  27  30
ATOM     30  O   UNL     1      -3.614   2.973  -9.147  0.00  0.00    -0.362 OA
BRANCH  30  31
ATOM     31  C   UNL     1      -4.471   4.017  -8.995  0.00  0.00    +0.154 A 
ATOM     32  C   UNL     1      -5.746   3.801  -8.492  0.00  0.00    +0.048 A 
ATOM     33  C   UNL     1      -6.615   4.863  -8.338  0.00  0.00    +0.004 A 
ATOM     34  C   UNL     1      -6.216   6.141  -8.685  0.00  0.00    +0.000 A 
ATOM     35  C   UNL     1      -4.947   6.358  -9.188  0.00  0.00    +0.004 A 
ATOM     36  C   UNL     1      -4.071   5.300  -9.338  0.00  0.00    +0.048 A 
ENDBRANCH  30  31
ENDBRANCH  27  30
ENDBRANCH  26  27
ENDBRANCH  25  26
ENDBRANCH   1  25
TORSDOF 11
