REMARK  Name = ZINC35745826
REMARK  13 active torsions:
REMARK  status: ('A' for Active; 'I' for Inactive)
REMARK    1  A    between atoms: C_1  and  C_2
REMARK    2  A    between atoms: C_7  and  C_8
REMARK    3  A    between atoms: C_17  and  C_19
REMARK    4  A    between atoms: C_19  and  N_20
REMARK    5  A    between atoms: N_20  and  C_21
REMARK    6  A    between atoms: N_20  and  C_30
REMARK    7  A    between atoms: C_21  and  C_22
REMARK    8  A    between atoms: C_22  and  C_24
REMARK    9  A    between atoms: C_22  and  O_29
REMARK   10  A    between atoms: C_24  and  O_25
REMARK   11  A    between atoms: O_25  and  C_26
REMARK   12  A    between atoms: C_26  and  C_27
REMARK   13  A    between atoms: C_26  and  C_28
REMARK                            x       y       z     vdW  Elec       q    Type
REMARK                         _______ _______ _______ _____ _____    ______ ____
ROOT
ATOM      1  C   UNL     1       0.064  -0.645   3.532  0.00  0.00    +0.004 A 
ATOM      2  C   UNL     1       0.933  -0.773   4.564  0.00  0.00    +0.056 A 
ATOM      3  S   UNL     1       0.307   0.377   5.774  0.00  0.00    -0.076 S 
ATOM      4  C   UNL     1      -1.091   0.996   4.876  0.00  0.00    +0.116 A 
ATOM      5  C   UNL     1      -1.038   0.302   3.656  0.00  0.00    +0.080 A 
ATOM      6  C   UNL     1      -2.071   0.618   2.717  0.00  0.00    +0.260 A 
ATOM      7  O   UNL     1      -2.112   0.063   1.632  0.00  0.00    -0.267 OA
ATOM      8  N   UNL     1      -2.997   1.536   3.050  0.00  0.00    -0.312 N 
ATOM      9  H   UNL     1      -3.700   1.754   2.418  0.00  0.00    +0.170 HD
ATOM     10  C   UNL     1      -2.968   2.162   4.255  0.00  0.00    +0.094 A 
ATOM     11  N   UNL     1      -2.043   1.889   5.136  0.00  0.00    -0.229 NA
ENDROOT
BRANCH   1  18
ATOM     12  C   UNL     1       0.677   0.681   1.034  0.00  0.00    +0.044 C 
ATOM     13  C   UNL     1       0.530  -0.818   1.089  0.00  0.00    -0.043 A 
ATOM     14  C   UNL     1       0.693  -1.571  -0.056  0.00  0.00    +0.004 A 
ATOM     15  C   UNL     1       0.559  -2.946  -0.008  0.00  0.00    +0.000 A 
ATOM     16  C   UNL     1       0.260  -3.576   1.188  0.00  0.00    +0.001 A 
ATOM     17  C   UNL     1       0.094  -2.834   2.339  0.00  0.00    +0.009 A 
ATOM     18  C   UNL     1       0.235  -1.447   2.297  0.00  0.00    -0.014 A 
ENDBRANCH   1  18
BRANCH  10  19
ATOM     19  C   UNL     1      -4.026   3.184   4.584  0.00  0.00    -0.003 C 
BRANCH  19  20
ATOM     20  N   UNL     1      -3.695   3.838   5.857  0.00  0.00    +0.388 N 
ATOM     21  H   UNL     1      -3.285   3.163   6.486  0.00  0.00    -0.081 HD
BRANCH  20  22
ATOM     22  C   UNL     1      -2.739   4.926   5.615  0.00  0.00    -0.068 C 
ATOM     23  C   UNL     1      -1.473   4.358   4.970  0.00  0.00    -0.015 C 
ATOM     24  C   UNL     1      -0.477   5.492   4.718  0.00  0.00    -0.002 C 
ATOM     25  C   UNL     1      -1.106   6.525   3.782  0.00  0.00    -0.000 C 
ATOM     26  C   UNL     1      -2.372   7.093   4.427  0.00  0.00    -0.002 C 
ATOM     27  C   UNL     1      -3.369   5.960   4.679  0.00  0.00    -0.015 C 
ENDBRANCH  20  22
BRANCH  20  28
ATOM     28  C   UNL     1      -4.919   4.386   6.458  0.00  0.00    -0.044 C 
BRANCH  28  29
ATOM     29  C   UNL     1      -4.601   4.937   7.850  0.00  0.00    +0.124 C 
BRANCH  29  30
ATOM     30  O   UNL     1      -4.097   3.885   8.675  0.00  0.00    -0.391 OA
ATOM     31  H   UNL     1      -4.713   3.149   8.793  0.00  0.00    +0.210 HD
ENDBRANCH  29  30
BRANCH  29  32
ATOM     32  C   UNL     1      -5.874   5.510   8.475  0.00  0.00    +0.189 C 
BRANCH  32  33
ATOM     33  O   UNL     1      -5.556   6.128   9.723  0.00  0.00    -0.375 OA
BRANCH  33  34
ATOM     34  C   UNL     1      -6.682   6.698  10.393  0.00  0.00    +0.112 C 
ATOM     35  C   UNL     1      -7.314   5.650  11.311  0.00  0.00    +0.037 C 
ATOM     36  C   UNL     1      -6.226   7.897  11.226  0.00  0.00    +0.037 C 
ENDBRANCH  33  34
ENDBRANCH  32  33
ENDBRANCH  29  32
ENDBRANCH  28  29
ENDBRANCH  20  28
ENDBRANCH  19  20
ENDBRANCH  10  19
TORSDOF 10
