REMARK  Name = ZINC09884193
REMARK  5 active torsions:
REMARK  status: ('A' for Active; 'I' for Inactive)
REMARK    1  A    between atoms: C_1  and  C_2
REMARK    2  A    between atoms: C_5  and  N_8
REMARK    3  A    between atoms: C_12  and  C_15
REMARK    4  A    between atoms: C_18  and  C_20
REMARK    5  A    between atoms: C_20  and  C_21
REMARK                            x       y       z     vdW  Elec       q    Type
REMARK                         _______ _______ _______ _____ _____    ______ ____
ROOT
ATOM      1  N   UNL     1       0.972 -10.142  -1.792  0.00  0.00    -0.293 N 
ATOM      2  C   UNL     1       0.595  -8.827  -1.646  0.00  0.00    +0.180 C 
ATOM      3  N   UNL     1      -0.037  -8.439  -0.564  0.00  0.00    -0.127 NA
ATOM      4  N   UNL     1      -0.436  -7.254  -0.337  0.00  0.00    -0.150 NA
ATOM      5  C   UNL     1      -0.658  -6.324  -1.209  0.00  0.00    +0.087 C 
ATOM      6  C   UNL     1      -0.471  -6.556  -2.688  0.00  0.00    +0.135 C 
ATOM      7  S   UNL     1       0.957  -7.653  -2.915  0.00  0.00    -0.082 S 
ATOM      8  H   UNL     1       1.370 -10.443  -2.624  0.00  0.00    +0.154 HD
ENDROOT
BRANCH   1  13
ATOM      9  C   UNL     1       0.205 -13.803   2.472  0.00  0.00    +0.044 C 
ATOM     10  C   UNL     1       0.409 -12.830   1.339  0.00  0.00    -0.050 A 
ATOM     11  C   UNL     1       0.316 -13.266   0.030  0.00  0.00    +0.005 A 
ATOM     12  C   UNL     1       0.502 -12.377  -1.010  0.00  0.00    +0.023 A 
ATOM     13  C   UNL     1       0.783 -11.044  -0.741  0.00  0.00    +0.033 A 
ATOM     14  C   UNL     1       0.882 -10.611   0.575  0.00  0.00    +0.023 A 
ATOM     15  C   UNL     1       0.689 -11.504   1.611  0.00  0.00    +0.005 A 
ENDBRANCH   1  13
BRANCH   5  16
ATOM     16  C   UNL     1      -1.099  -5.008  -0.746  0.00  0.00    +0.036 A 
ATOM     17  C   UNL     1      -1.334  -4.570   0.548  0.00  0.00    +0.018 A 
ATOM     18  C   UNL     1      -1.742  -3.269   0.733  0.00  0.00    +0.012 A 
ATOM     19  C   UNL     1      -1.909  -2.465  -0.349  0.00  0.00    -0.001 A 
ATOM     20  S   UNL     1      -1.472  -3.546  -1.700  0.00  0.00    -0.091 S 
BRANCH  19  21
ATOM     21  C   UNL     1      -2.346  -1.023  -0.395  0.00  0.00    +0.138 C 
BRANCH  21  22
ATOM     22  C   UNL     1      -1.137  -0.128  -0.305  0.00  0.00    +0.215 C 
ATOM     23  O   UNL     1      -0.030  -0.613  -0.211  0.00  0.00    -0.276 OA
ATOM     24  N   UNL     1      -1.287   1.211  -0.327  0.00  0.00    -0.329 N 
ATOM     25  H   UNL     1      -0.509   1.787  -0.269  0.00  0.00    +0.145 HD
ATOM     26  H   UNL     1      -2.173   1.599  -0.406  0.00  0.00    +0.145 HD
ENDBRANCH  21  22
ENDBRANCH  19  21
ENDBRANCH   5  16
TORSDOF 4
