REMARK  Name = ZINC14464404
REMARK  7 active torsions:
REMARK  status: ('A' for Active; 'I' for Inactive)
REMARK    1  A    between atoms: C_1  and  C_2
REMARK    2  A    between atoms: C_2  and  O_3
REMARK    3  A    between atoms: O_3  and  C_4
REMARK    4  A    between atoms: C_4  and  C_5
REMARK    5  A    between atoms: C_5  and  O_6
REMARK    6  A    between atoms: O_6  and  C_7
REMARK    7  A    between atoms: C_20  and  C_23
REMARK                            x       y       z     vdW  Elec       q    Type
REMARK                         _______ _______ _______ _____ _____    ______ ____
ROOT
ATOM      1  C   UNL     1      -4.313  10.120   0.009  0.00  0.00    +0.121 A 
ATOM      2  C   UNL     1      -3.298  10.358  -0.906  0.00  0.00    +0.047 A 
ATOM      3  C   UNL     1      -2.274   9.442  -1.043  0.00  0.00    +0.027 A 
ATOM      4  C   UNL     1      -2.261   8.291  -0.266  0.00  0.00    +0.032 A 
ATOM      5  C   UNL     1      -3.271   8.048   0.651  0.00  0.00    -0.016 A 
ATOM      6  C   UNL     1      -4.298   8.973   0.782  0.00  0.00    +0.051 A 
ATOM      7  C   UNL     1      -3.295   6.823   1.510  0.00  0.00    +0.049 C 
ATOM      8  C   UNL     1      -4.329   5.833   1.028  0.00  0.00    -0.023 C 
ATOM      9  C   UNL     1      -3.894   4.608   1.189  0.00  0.00    -0.030 C 
ATOM     10  C   UNL     1      -2.509   4.613   1.807  0.00  0.00    +0.033 C 
ATOM     11  C   UNL     1      -1.971   6.036   1.476  0.00  0.00    +0.029 C 
ATOM     12  C   UNL     1      -1.422   5.996   0.047  0.00  0.00    +0.105 C 
ATOM     13  N   UNL     1      -1.214   7.371  -0.420  0.00  0.00    -0.336 N 
ATOM     14  H   UNL     1      -0.374   7.637  -0.825  0.00  0.00    +0.147 HD
ENDROOT
BRANCH  12  15
ATOM     15  C   UNL     1      -0.111   5.253   0.031  0.00  0.00    -0.019 A 
ATOM     16  C   UNL     1       0.561   5.026   1.192  0.00  0.00    +0.006 A 
ATOM     17  C   UNL     1       1.775   4.341   1.196  0.00  0.00    +0.001 A 
ATOM     18  C   UNL     1       2.322   3.879   0.039  0.00  0.00    +0.008 A 
ATOM     19  C   UNL     1       1.657   4.094  -1.179  0.00  0.00    -0.018 A 
ATOM     20  C   UNL     1       0.423   4.791  -1.184  0.00  0.00    -0.013 A 
ATOM     21  C   UNL     1      -0.242   5.006  -2.403  0.00  0.00    +0.009 A 
ATOM     22  C   UNL     1       0.308   4.550  -3.561  0.00  0.00    +0.001 A 
ATOM     23  C   UNL     1       1.519   3.859  -3.556  0.00  0.00    +0.001 A 
ATOM     24  C   UNL     1       2.192   3.632  -2.394  0.00  0.00    +0.008 A 
ENDBRANCH  12  15
BRANCH   1  25
ATOM     25  O   UNL     1      -5.326  11.018   0.147  0.00  0.00    -0.490 OA
BRANCH  25  26
ATOM     26  C   UNL     1      -5.279  12.181  -0.682  0.00  0.00    +0.257 C 
BRANCH  26  27
ATOM     27  C   UNL     1      -6.492  13.066  -0.387  0.00  0.00    +0.200 C 
BRANCH  27  28
ATOM     28  O   UNL     1      -6.410  13.554   0.954  0.00  0.00    -0.377 OA
BRANCH  28  30
ATOM     29  C   UNL     1      -7.310  14.858   2.779  0.00  0.00    +0.034 C 
ATOM     30  C   UNL     1      -7.501  14.396   1.333  0.00  0.00    +0.156 C 
ENDBRANCH  28  30
ENDBRANCH  27  28
ENDBRANCH  26  27
ENDBRANCH  25  26
ENDBRANCH   1  25
TORSDOF 6
