REMARK  Name = ZINC51000890
REMARK  4 active torsions:
REMARK  status: ('A' for Active; 'I' for Inactive)
REMARK    1  A    between atoms: C_2  and  C_3
REMARK    2  A    between atoms: C_3  and  N_4
REMARK    3  A    between atoms: C_6  and  C_12
REMARK    4  A    between atoms: C_8  and  C_9
REMARK                            x       y       z     vdW  Elec       q    Type
REMARK                         _______ _______ _______ _____ _____    ______ ____
ROOT
ATOM      1  N   UNL     1      -1.318  -1.700  -1.126  0.00  0.00    -0.275 N 
ATOM      2  C   UNL     1      -1.805  -1.398  -2.379  0.00  0.00    +0.101 C 
ATOM      3  C   UNL     1      -1.607  -2.670  -3.181  0.00  0.00    +0.174 C 
ATOM      4  N   UNL     1      -0.991  -3.599  -2.222  0.00  0.00    -0.363 N 
ATOM      5  C   UNL     1      -0.855  -2.985  -1.099  0.00  0.00    +0.080 C 
ATOM      6  N   UNL     1      -2.317  -0.281  -2.781  0.00  0.00    -0.388 N 
ATOM      7  H   UNL     1      -2.390   0.467  -2.168  0.00  0.00    +0.157 HD
ATOM      8  H   UNL     1      -2.628  -0.191  -3.695  0.00  0.00    +0.157 HD
ATOM      9  H   UNL     1      -0.728  -4.514  -2.405  0.00  0.00    +0.162 HD
ENDROOT
BRANCH   3  10
ATOM     10  C   UNL     1      -2.932  -3.205  -3.660  0.00  0.00    +0.000 A 
ATOM     11  C   UNL     1      -3.593  -4.171  -2.924  0.00  0.00    +0.009 A 
ATOM     12  C   UNL     1      -4.809  -4.663  -3.362  0.00  0.00    +0.020 A 
ATOM     13  C   UNL     1      -5.364  -4.188  -4.537  0.00  0.00    +0.042 A 
ATOM     14  C   UNL     1      -4.704  -3.221  -5.273  0.00  0.00    +0.040 A 
ATOM     15  C   UNL     1      -3.489  -2.726  -4.832  0.00  0.00    +0.048 A 
ATOM     16 CL   UNL     1      -2.662  -1.508  -5.752  0.00  0.00    -0.083 Cl
ATOM     17 CL   UNL     1      -6.890  -4.806  -5.087  0.00  0.00    -0.083 Cl
ENDBRANCH   3  10
BRANCH   5  18
ATOM     18  C   UNL     1      -0.251  -3.623   0.125  0.00  0.00    +0.051 C 
ATOM     19  C   UNL     1       1.018  -4.455  -0.065  0.00  0.00    +0.011 C 
ATOM     20  C   UNL     1      -0.314  -5.148   0.231  0.00  0.00    +0.011 C 
ENDBRANCH   5  18
BRANCH   1  21
ATOM     21  C   UNL     1      -1.293  -0.775   0.010  0.00  0.00    +0.140 C 
BRANCH  21  23
ATOM     22  C   UNL     1      -0.016   1.306   0.009  0.00  0.00    +0.005 C 
ATOM     23  C   UNL     1       0.002  -0.004   0.002  0.00  0.00    -0.015 C 
ENDBRANCH  21  23
ENDBRANCH   1  21
TORSDOF 4
