REMARK  Name = ZINC06135454
REMARK  13 active torsions:
REMARK  status: ('A' for Active; 'I' for Inactive)
REMARK    1  A    between atoms: C_1  and  C_2
REMARK    2  A    between atoms: C_2  and  C_3
REMARK    3  A    between atoms: C_8  and  N_9
REMARK    4  A    between atoms: N_9  and  C_10
REMARK    5  A    between atoms: C_10  and  N_12
REMARK    6  A    between atoms: N_12  and  C_13
REMARK    7  A    between atoms: N_12  and  C_18
REMARK    8  A    between atoms: C_13  and  C_14
REMARK    9  A    between atoms: C_14  and  C_15
REMARK   10  A    between atoms: C_15  and  N_66
REMARK   11  A    between atoms: C_16  and  N_66
REMARK   12  A    between atoms: C_17  and  N_66
REMARK   13  A    between atoms: C_18  and  C_19
REMARK                            x       y       z     vdW  Elec       q    Type
REMARK                         _______ _______ _______ _____ _____    ______ ____
ROOT
ATOM      1  N   UNL     1       0.005   0.065  -0.328  0.00  0.00    -0.308 N 
ENDROOT
BRANCH   1   2
ATOM      2  C   UNL     1       0.133   1.406  -0.334  0.00  0.00    +0.137 C 
ATOM      3  S   UNL     1       1.619   2.123  -0.792  0.00  0.00    -0.018 S 
BRANCH   2   4
ATOM      4  N   UNL     1      -0.910   2.184   0.016  0.00  0.00    -0.297 N 
ATOM      5  H   UNL     1      -1.729   1.779   0.344  0.00  0.00    +0.154 HD
BRANCH   4  11
ATOM      6  C   UNL     1      -1.884   4.312  -0.582  0.00  0.00    -0.026 A 
ATOM      7  C   UNL     1      -1.785   5.685  -0.687  0.00  0.00    +0.005 A 
ATOM      8  C   UNL     1      -0.621   6.327  -0.307  0.00  0.00    +0.000 A 
ATOM      9  C   UNL     1       0.447   5.597   0.180  0.00  0.00    +0.002 A 
ATOM     10  C   UNL     1       0.353   4.224   0.294  0.00  0.00    +0.023 A 
ATOM     11  C   UNL     1      -0.813   3.575  -0.093  0.00  0.00    +0.036 A 
BRANCH   6  13
ATOM     12  C   UNL     1      -4.045   3.406   0.230  0.00  0.00    +0.009 C 
ATOM     13  C   UNL     1      -3.154   3.613  -0.996  0.00  0.00    +0.033 C 
ENDBRANCH   6  13
ENDBRANCH   4  11
ENDBRANCH   2   4
ENDBRANCH   1   2
BRANCH   1  14
ATOM     14  C   UNL     1      -1.229  -0.551   0.167  0.00  0.00    +0.105 C 
BRANCH  14  15
ATOM     15  C   UNL     1      -2.214  -0.719  -0.991  0.00  0.00    +0.000 C 
BRANCH  15  16
ATOM     16  C   UNL     1      -3.503  -1.362  -0.475  0.00  0.00    -0.078 C 
BRANCH  16  19
ATOM     17  C   UNL     1      -5.598  -2.347  -1.186  0.00  0.00    -0.097 C 
ATOM     18  C   UNL     1      -4.890  -0.217  -2.096  0.00  0.00    -0.097 C 
ATOM     19  N   UNL     1      -4.436  -1.537  -1.609  0.00  0.00    +0.376 N 
ATOM     20  H   UNL     1      -3.949  -2.024  -2.370  0.00  0.00    -0.083 HD
ENDBRANCH  16  19
ENDBRANCH  15  16
ENDBRANCH  14  15
ENDBRANCH   1  14
BRANCH   1  21
ATOM     21  C   UNL     1       1.100  -0.778  -0.815  0.00  0.00    +0.147 C 
BRANCH  21  22
ATOM     22  C   UNL     1       1.970  -1.192   0.344  0.00  0.00    +0.035 A 
ATOM     23  C   UNL     1       3.079  -0.472   0.648  0.00  0.00    +0.020 A 
ATOM     24  C   UNL     1       3.899  -0.897   1.782  0.00  0.00    +0.003 A 
ATOM     25  C   UNL     1       5.053  -0.191   2.145  0.00  0.00    +0.059 A 
ATOM     26  C   UNL     1       5.809  -0.618   3.216  0.00  0.00    +0.163 A 
ATOM     27  C   UNL     1       5.428  -1.752   3.939  0.00  0.00    +0.164 A 
ATOM     28  C   UNL     1       4.289  -2.457   3.587  0.00  0.00    +0.075 A 
ATOM     29  C   UNL     1       3.517  -2.041   2.510  0.00  0.00    +0.053 A 
ATOM     30  N   UNL     1       2.380  -2.732   2.145  0.00  0.00    -0.322 N 
ATOM     31  H   UNL     1       2.109  -3.544   2.662  0.00  0.00    +0.169 HD
ATOM     32  C   UNL     1       1.630  -2.330   1.104  0.00  0.00    +0.254 A 
ATOM     33  O   UNL     1       0.632  -2.965   0.810  0.00  0.00    -0.268 OA
ATOM     34  O   UNL     1       6.166  -2.178   5.000  0.00  0.00    -0.485 OA
ATOM     35  C   UNL     1       7.502  -1.673   5.098  0.00  0.00    +0.270 C 
ATOM     36  C   UNL     1       7.463  -0.158   4.862  0.00  0.00    +0.270 C 
ATOM     37  O   UNL     1       6.929   0.078   3.554  0.00  0.00    -0.485 OA
ENDBRANCH  21  22
ENDBRANCH   1  21
TORSDOF 10
