REMARK  Name = ZINC64889904
REMARK  4 active torsions:
REMARK  status: ('A' for Active; 'I' for Inactive)
REMARK    1  A    between atoms: C_6  and  C_7
REMARK    2  A    between atoms: C_7  and  C_8
REMARK    3  A    between atoms: N_13  and  S_16
REMARK    4  A    between atoms: S_16  and  C_19
REMARK                            x       y       z     vdW  Elec       q    Type
REMARK                         _______ _______ _______ _____ _____    ______ ____
ROOT
ATOM      1  C   UNL     1      -1.738  -1.024  -1.407  0.00  0.00    +0.220 C 
ATOM      2  O   UNL     1      -1.070  -0.616  -2.333  0.00  0.00    -0.275 OA
ATOM      3  N   UNL     1      -2.880  -1.701  -1.646  0.00  0.00    -0.299 N 
ATOM      4  C   UNL     1      -3.702  -2.196  -0.533  0.00  0.00    +0.125 C 
ATOM      5  C   UNL     1      -5.127  -1.652  -0.698  0.00  0.00    +0.128 C 
ATOM      6  N   UNL     1      -5.571  -1.908  -2.075  0.00  0.00    -0.174 NA
ATOM      7  C   UNL     1      -4.748  -1.413  -3.188  0.00  0.00    +0.128 C 
ATOM      8  C   UNL     1      -3.326  -1.951  -3.023  0.00  0.00    +0.125 C 
ENDROOT
BRANCH   6   9
ATOM      9  S   UNL     1      -6.973  -2.739  -2.368  0.00  0.00    +0.061 S 
ATOM     10  O   UNL     1      -6.849  -3.298  -3.669  0.00  0.00    -0.153 OA
ATOM     11  O   UNL     1      -7.222  -3.535  -1.217  0.00  0.00    -0.153 OA
BRANCH   9  12
ATOM     12  C   UNL     1      -8.274  -1.554  -2.452  0.00  0.00    +0.107 A 
ATOM     13  C   UNL     1      -8.958  -1.199  -1.304  0.00  0.00    +0.032 A 
ATOM     14  C   UNL     1      -9.980  -0.269  -1.360  0.00  0.00    +0.049 A 
ATOM     15  C   UNL     1     -10.319   0.310  -2.571  0.00  0.00    +0.142 A 
ATOM     16  C   UNL     1      -9.630  -0.048  -3.728  0.00  0.00    +0.078 A 
ATOM     17  C   UNL     1      -8.603  -0.976  -3.664  0.00  0.00    +0.055 A 
ATOM     18  N   UNL     1      -9.985   0.544  -4.949  0.00  0.00    -0.280 N 
ATOM     19  C   UNL     1     -10.751   1.656  -4.938  0.00  0.00    +0.255 C 
ATOM     20  O   UNL     1     -11.097   2.168  -5.982  0.00  0.00    -0.272 OA
ATOM     21  C   UNL     1     -11.175   2.260  -3.623  0.00  0.00    +0.325 C 
ATOM     22  O   UNL     1     -11.321   1.226  -2.645  0.00  0.00    -0.481 OA
ATOM     23  H   UNL     1      -9.684   0.161  -5.788  0.00  0.00    +0.155 HD
ENDBRANCH   9  12
ENDBRANCH   6   9
BRANCH   1  24
ATOM     24  C   UNL     1      -1.293  -0.775   0.011  0.00  0.00    +0.131 C 
BRANCH  24  30
ATOM     25  C   UNL     1      -0.017   1.378   0.010  0.00  0.00    +0.005 A 
ATOM     26  C   UNL     1       1.171   2.086   0.002  0.00  0.00    +0.020 A 
ATOM     27  C   UNL     1       2.378   1.410  -0.013  0.00  0.00    +0.041 A 
ATOM     28  C   UNL     1       2.396   0.027  -0.021  0.00  0.00    +0.020 A 
ATOM     29  C   UNL     1       1.208  -0.679  -0.013  0.00  0.00    +0.005 A 
ATOM     30  C   UNL     1       0.002  -0.004   0.002  0.00  0.00    -0.039 A 
ATOM     31 CL   UNL     1       3.870   2.298  -0.023  0.00  0.00    -0.084 Cl
ENDBRANCH  24  30
ENDBRANCH   1  24
TORSDOF 4
