REMARK  Name = ZINC27578614
REMARK  13 active torsions:
REMARK  status: ('A' for Active; 'I' for Inactive)
REMARK    1  A    between atoms: C_1  and  C_2
REMARK    2  A    between atoms: C_2  and  N_3
REMARK    3  A    between atoms: N_3  and  C_4
REMARK    4  A    between atoms: N_3  and  C_6
REMARK    5  A    between atoms: C_4  and  C_5
REMARK    6  A    between atoms: C_6  and  C_8
REMARK    7  A    between atoms: C_6  and  C_28
REMARK    8  A    between atoms: C_8  and  N_9
REMARK    9  A    between atoms: C_10  and  C_12
REMARK   10  A    between atoms: C_12  and  N_13
REMARK   11  A    between atoms: C_16  and  C_20
REMARK   12  A    between atoms: C_16  and  C_21
REMARK   13  A    between atoms: C_24  and  C_27
REMARK                            x       y       z     vdW  Elec       q    Type
REMARK                         _______ _______ _______ _____ _____    ______ ____
ROOT
ATOM      1  N   UNL     1      -2.886   3.419   0.706  0.00  0.00    -0.315 N 
ATOM      2  C   UNL     1      -1.716   2.753   0.641  0.00  0.00    +0.231 C 
ATOM      3  O   UNL     1      -1.001   2.687   1.619  0.00  0.00    -0.274 OA
ATOM      4  H   UNL     1      -3.558   3.435  -0.165  0.00  0.00    +0.149 HD
ENDROOT
BRANCH   1   5
ATOM      5  C   UNL     1      -3.263   4.121   1.935  0.00  0.00    +0.093 C 
BRANCH   5   6
ATOM      6  C   UNL     1      -4.602   4.830   1.728  0.00  0.00    -0.019 C 
BRANCH   6   7
ATOM      7  C   UNL     1      -4.712   5.987   2.688  0.00  0.00    -0.041 A 
ATOM      8  C   UNL     1      -4.777   5.752   4.048  0.00  0.00    +0.003 A 
ATOM      9  C   UNL     1      -4.879   6.813   4.929  0.00  0.00    +0.000 A 
ATOM     10  C   UNL     1      -4.914   8.109   4.450  0.00  0.00    +0.001 A 
ATOM     11  C   UNL     1      -4.849   8.345   3.090  0.00  0.00    +0.020 A 
ATOM     12  C   UNL     1      -4.742   7.284   2.208  0.00  0.00    +0.043 A 
ATOM     13 CL   UNL     1      -4.653   7.580   0.500  0.00  0.00    -0.083 Cl
ENDBRANCH   6   7
BRANCH   6  14
ATOM     14  N   UNL     1      -5.700   3.885   1.972  0.00  0.00    +0.385 N 
ATOM     15  H   UNL     1      -5.708   3.647   3.046  0.00  0.00    -0.081 HD
BRANCH  14  17
ATOM     16  C   UNL     1      -7.525   5.270   2.836  0.00  0.00    -0.017 C 
ATOM     17  C   UNL     1      -6.997   4.486   1.633  0.00  0.00    -0.081 C 
ENDBRANCH  14  17
BRANCH  14  18
ATOM     18  C   UNL     1      -5.490   2.633   1.233  0.00  0.00    -0.081 C 
ATOM     19  C   UNL     1      -5.578   1.450   2.199  0.00  0.00    -0.017 C 
ENDBRANCH  14  18
ENDBRANCH   6  14
ENDBRANCH   5   6
ENDBRANCH   1   5
BRANCH   2  20
ATOM     20  C   UNL     1      -1.296   2.090  -0.645  0.00  0.00    +0.213 C 
BRANCH  20  21
ATOM     21  N   UNL     1       0.054   1.544  -0.495  0.00  0.00    -0.215 N 
ATOM     22  C   UNL     1       0.323   0.296  -0.060  0.00  0.00    +0.251 C 
ATOM     23  O   UNL     1      -0.478  -0.551   0.272  0.00  0.00    -0.272 OA
ATOM     24  C   UNL     1       1.833   0.174  -0.073  0.00  0.00    +0.135 C 
ATOM     25  N   UNL     1       2.283   1.490  -0.559  0.00  0.00    -0.281 N 
ATOM     26  C   UNL     1       1.174   2.219  -0.777  0.00  0.00    +0.310 C 
ATOM     27  O   UNL     1       1.188   3.364  -1.185  0.00  0.00    -0.252 OA
ATOM     28  C   UNL     1       2.275  -0.936  -1.029  0.00  0.00    +0.047 C 
ATOM     29  H   UNL     1       3.358   1.696  -0.673  0.00  0.00    +0.152 HD
BRANCH  24  30
ATOM     30  C   UNL     1       2.356  -0.086   1.316  0.00  0.00    -0.015 A 
ATOM     31  C   UNL     1       1.576  -0.766   2.232  0.00  0.00    +0.006 A 
ATOM     32  C   UNL     1       2.057  -1.008   3.505  0.00  0.00    +0.004 A 
ATOM     33  C   UNL     1       3.314  -0.561   3.866  0.00  0.00    -0.050 A 
ATOM     34  C   UNL     1       4.093   0.125   2.951  0.00  0.00    +0.004 A 
ATOM     35  C   UNL     1       3.613   0.363   1.677  0.00  0.00    +0.006 A 
ATOM     36  C   UNL     1       3.837  -0.820   5.255  0.00  0.00    +0.044 C 
ENDBRANCH  24  30
ENDBRANCH  20  21
ENDBRANCH   2  20
TORSDOF 9
