REMARK  Name = ZINC34923366
REMARK  13 active torsions:
REMARK  status: ('A' for Active; 'I' for Inactive)
REMARK    1  A    between atoms: C_1  and  C_2
REMARK    2  A    between atoms: C_5  and  C_8
REMARK    3  A    between atoms: C_10  and  C_31
REMARK    4  A    between atoms: C_11  and  C_30
REMARK    5  A    between atoms: C_15  and  C_18
REMARK    6  A    between atoms: C_19  and  N_21
REMARK    7  A    between atoms: N_21  and  C_22
REMARK    8  A    between atoms: C_22  and  C_23
REMARK    9  A    between atoms: C_23  and  N_24
REMARK   10  A    between atoms: C_31  and  O_33
REMARK   11  A    between atoms: O_33  and  C_34
REMARK   12  A    between atoms: C_34  and  C_35
REMARK   13  A    between atoms: C_34  and  C_36
REMARK                            x       y       z     vdW  Elec       q    Type
REMARK                         _______ _______ _______ _____ _____    ______ ____
ROOT
ATOM      1  C   UNL     1       0.313  -4.348  -0.218  0.00  0.00    +0.150 C 
ATOM      2  C   UNL     1      -1.143  -4.670   0.032  0.00  0.00    +0.082 C 
ATOM      3  C   UNL     1      -1.479  -5.235   1.248  0.00  0.00    +0.053 C 
ATOM      4  N   UNL     1      -0.546  -5.480   2.154  0.00  0.00    -0.230 NA
ATOM      5  C   UNL     1       0.737  -5.224   1.999  0.00  0.00    +0.166 C 
ATOM      6  N   UNL     1       1.273  -4.667   0.873  0.00  0.00    -0.267 N 
ATOM      7  C   UNL     1       2.638  -4.461   0.865  0.00  0.00    +0.048 C 
ATOM      8  C   UNL     1       3.333  -4.823   1.966  0.00  0.00    +0.072 C 
ATOM      9  S   UNL     1       2.048  -5.461   3.020  0.00  0.00    -0.060 S 
ATOM     10  C   UNL     1      -2.917  -5.574   1.544  0.00  0.00    +0.066 C 
ENDROOT
BRANCH   1  15
ATOM     11  C   UNL     1       0.715   1.305  -1.346  0.00  0.00    +0.044 C 
ATOM     12  C   UNL     1       0.610  -0.169  -1.052  0.00  0.00    -0.050 A 
ATOM     13  C   UNL     1       0.625  -1.084  -2.088  0.00  0.00    +0.004 A 
ATOM     14  C   UNL     1       0.529  -2.436  -1.818  0.00  0.00    +0.006 A 
ATOM     15  C   UNL     1       0.419  -2.874  -0.512  0.00  0.00    -0.022 A 
ATOM     16  C   UNL     1       0.405  -1.960   0.525  0.00  0.00    +0.006 A 
ATOM     17  C   UNL     1       0.505  -0.608   0.255  0.00  0.00    +0.004 A 
ENDBRANCH   1  15
BRANCH   7  18
ATOM     18  C   UNL     1       3.312  -3.868  -0.299  0.00  0.00    +0.091 C 
ATOM     19  C   UNL     1       4.615  -3.537  -0.227  0.00  0.00    +0.239 C 
ATOM     20  O   UNL     1       5.335  -3.854   0.877  0.00  0.00    -0.271 OA
BRANCH  19  21
ATOM     21  N   UNL     1       5.220  -2.872  -1.280  0.00  0.00    -0.314 N 
ATOM     22  H   UNL     1       4.690  -2.578  -2.037  0.00  0.00    +0.149 HD
BRANCH  21  23
ATOM     23  C   UNL     1       6.661  -2.611  -1.250  0.00  0.00    +0.086 C 
BRANCH  23  24
ATOM     24  C   UNL     1       7.051  -1.762  -2.462  0.00  0.00    -0.060 C 
BRANCH  24  25
ATOM     25  N   UNL     1       8.496  -1.501  -2.433  0.00  0.00    +0.381 N 
ATOM     26  C   UNL     1       8.820  -0.684  -1.257  0.00  0.00    -0.079 C 
ATOM     27  C   UNL     1      10.334  -0.477  -1.177  0.00  0.00    -0.019 C 
ATOM     28  C   UNL     1      10.814   0.237  -2.443  0.00  0.00    -0.004 C 
ATOM     29  C   UNL     1      10.405  -0.587  -3.668  0.00  0.00    -0.019 C 
ATOM     30  C   UNL     1       8.889  -0.790  -3.656  0.00  0.00    -0.079 C 
ATOM     31  H   UNL     1       8.995  -2.377  -2.379  0.00  0.00    -0.082 HD
ENDBRANCH  24  25
ENDBRANCH  23  24
ENDBRANCH  21  23
ENDBRANCH  19  21
ENDBRANCH   7  18
BRANCH   2  32
ATOM     32  C   UNL     1      -2.119  -4.404  -0.936  0.00  0.00    +0.339 C 
ATOM     33  O   UNL     1      -3.289  -4.660  -0.708  0.00  0.00    -0.245 OA
BRANCH  32  34
ATOM     34  O   UNL     1      -1.764  -3.863  -2.122  0.00  0.00    -0.459 OA
BRANCH  34  35
ATOM     35  C   UNL     1      -2.812  -3.619  -3.063  0.00  0.00    +0.171 C 
ATOM     36  C   UNL     1      -3.369  -2.209  -2.851  0.00  0.00    +0.052 C 
ATOM     37  C   UNL     1      -2.260  -3.740  -4.484  0.00  0.00    +0.052 C 
ENDBRANCH  34  35
ENDBRANCH  32  34
ENDBRANCH   2  32
TORSDOF 9
