REMARK  Name = ZINC15018094
REMARK  5 active torsions:
REMARK  status: ('A' for Active; 'I' for Inactive)
REMARK    1  A    between atoms: C_1  and  C_2
REMARK    2  A    between atoms: C_4  and  C_27
REMARK    3  A    between atoms: C_16  and  C_19
REMARK    4  A    between atoms: C_24  and  O_25
REMARK    5  A    between atoms: O_25  and  C_26
REMARK                            x       y       z     vdW  Elec       q    Type
REMARK                         _______ _______ _______ _____ _____    ______ ____
ROOT
ATOM      1  C   UNL     1      -2.418   0.861   0.183  0.00  0.00    +0.044 C 
ATOM      2  C   UNL     1      -1.137   1.656   0.175  0.00  0.00    -0.050 A 
ATOM      3  C   UNL     1       0.081   1.009   0.284  0.00  0.00    +0.008 A 
ATOM      4  C   UNL     1       1.251   1.736   0.267  0.00  0.00    -0.029 A 
ATOM      5  C   UNL     1       1.219   3.127   0.145  0.00  0.00    +0.036 A 
ATOM      6  C   UNL     1      -0.003   3.768   0.049  0.00  0.00    +0.003 A 
ATOM      7  C   UNL     1      -1.177   3.031   0.063  0.00  0.00    +0.011 A 
ATOM      8  C   UNL     1      -0.108   5.272  -0.059  0.00  0.00    +0.155 C 
ATOM      9  C   UNL     1       1.242   5.830  -0.506  0.00  0.00    +0.047 C 
ATOM     10  C   UNL     1       1.263   7.353  -0.402  0.00  0.00    +0.011 C 
ATOM     11  C   UNL     1       0.836   7.800   0.999  0.00  0.00    +0.028 C 
ATOM     12  C   UNL     1      -0.546   7.209   1.301  0.00  0.00    +0.160 C 
ATOM     13  O   UNL     1      -0.469   5.786   1.226  0.00  0.00    -0.372 OA
ATOM     14  C   UNL     1       2.332   5.226   0.381  0.00  0.00    +0.110 C 
ATOM     15  N   UNL     1       2.440   3.799   0.116  0.00  0.00    -0.336 N 
ATOM     16  C   UNL     1       2.575   1.025   0.381  0.00  0.00    +0.045 C 
ATOM     17  H   UNL     1       3.112   3.354   0.723  0.00  0.00    +0.147 HD
ENDROOT
BRANCH  14  18
ATOM     18  C   UNL     1       3.647   5.907   0.102  0.00  0.00    +0.015 A 
ATOM     19  C   UNL     1       4.166   6.806   1.013  0.00  0.00    +0.009 A 
ATOM     20  C   UNL     1       5.372   7.432   0.758  0.00  0.00    +0.001 A 
ATOM     21  C   UNL     1       6.062   7.159  -0.410  0.00  0.00    +0.004 A 
ATOM     22  C   UNL     1       5.547   6.261  -1.324  0.00  0.00    +0.046 A 
ATOM     23  C   UNL     1       4.339   5.628  -1.067  0.00  0.00    +0.125 A 
BRANCH  23  24
ATOM     24  O   UNL     1       3.832   4.740  -1.963  0.00  0.00    -0.495 OA
ATOM     25  C   UNL     1       4.599   4.501  -3.144  0.00  0.00    +0.277 C 
ENDBRANCH  23  24
ENDBRANCH  14  18
TORSDOF 2
