REMARK  Name = ZINC37191317
REMARK  5 active torsions:
REMARK  status: ('A' for Active; 'I' for Inactive)
REMARK    1  A    between atoms: C_3  and  S_8
REMARK    2  A    between atoms: C_6  and  N_7
REMARK    3  A    between atoms: S_8  and  C_9
REMARK    4  A    between atoms: C_9  and  C_10
REMARK    5  A    between atoms: N_12  and  C_13
REMARK                            x       y       z     vdW  Elec       q    Type
REMARK                         _______ _______ _______ _____ _____    ______ ____
ROOT
ATOM      1  C   UNL     1       6.779   0.658  -1.124  0.00  0.00    +0.227 C 
ATOM      2  O   UNL     1       7.101   1.228  -2.145  0.00  0.00    -0.275 OA
ATOM      3  N   UNL     1       7.615   0.643  -0.067  0.00  0.00    -0.283 N 
ATOM      4  H   UNL     1       7.330   0.252   0.773  0.00  0.00    +0.155 HD
ENDROOT
BRANCH   3   5
ATOM      5  C   UNL     1       8.898   1.194  -0.182  0.00  0.00    +0.062 A 
ATOM      6  C   UNL     1       9.113   2.529   0.136  0.00  0.00    +0.041 A 
ATOM      7  C   UNL     1      10.380   3.070   0.022  0.00  0.00    +0.032 A 
ATOM      8  C   UNL     1      11.433   2.283  -0.409  0.00  0.00    +0.020 A 
ATOM      9  C   UNL     1      11.222   0.953  -0.727  0.00  0.00    +0.032 A 
ATOM     10  C   UNL     1       9.958   0.405  -0.610  0.00  0.00    +0.041 A 
ATOM     11 BR   UNL     1       9.672  -1.415  -1.037  0.00  0.00    -0.048 Br
ATOM     12 BR   UNL     1      13.165   3.026  -0.564  0.00  0.00    -0.050 Br
ATOM     13 BR   UNL     1       7.674   3.606   0.725  0.00  0.00    -0.048 Br
ENDBRANCH   3   5
BRANCH   1  14
ATOM     14  C   UNL     1       5.443  -0.034  -1.036  0.00  0.00    +0.171 C 
BRANCH  14  15
ATOM     15  S   UNL     1       4.556   0.163  -2.606  0.00  0.00    -0.097 S 
BRANCH  15  18
ATOM     16  C   UNL     1       0.903  -1.411  -3.154  0.00  0.00    +0.027 A 
ATOM     17  C   UNL     1       2.093  -0.740  -3.368  0.00  0.00    +0.036 A 
ATOM     18  C   UNL     1       3.035  -0.689  -2.347  0.00  0.00    +0.097 A 
ATOM     19  N   UNL     1       2.803  -1.273  -1.181  0.00  0.00    -0.247 NA
ATOM     20  C   UNL     1       1.679  -1.921  -0.943  0.00  0.00    +0.134 A 
ATOM     21  C   UNL     1       0.693  -2.014  -1.915  0.00  0.00    +0.043 A 
BRANCH  21  22
ATOM     22  N   UNL     1      -0.497  -2.703  -1.654  0.00  0.00    -0.357 N 
ATOM     23  H   UNL     1      -1.183  -2.764  -2.337  0.00  0.00    +0.142 HD
ATOM     24  H   UNL     1      -0.637  -3.120  -0.789  0.00  0.00    +0.142 HD
ENDBRANCH  21  22
ENDBRANCH  15  18
ENDBRANCH  14  15
ENDBRANCH   1  14
TORSDOF 5
