REMARK  Name = ZINC05346393
REMARK  8 active torsions:
REMARK  status: ('A' for Active; 'I' for Inactive)
REMARK    1  A    between atoms: C_1  and  C_2
REMARK    2  A    between atoms: C_16  and  C_18
REMARK    3  A    between atoms: C_18  and  C_19
REMARK    4  A    between atoms: C_18  and  C_20
REMARK    5  A    between atoms: N_23  and  C_26
REMARK    6  A    between atoms: C_26  and  C_27
REMARK    7  A    between atoms: C_26  and  C_28
REMARK    8  A    between atoms: C_26  and  C_29
REMARK                            x       y       z     vdW  Elec       q    Type
REMARK                         _______ _______ _______ _____ _____    ______ ____
ROOT
ATOM      1  C   UNL     1       0.224  -2.950   0.453  0.00  0.00    +0.045 C 
ATOM      2  C   UNL     1       1.308  -1.906   0.525  0.00  0.00    -0.029 A 
ATOM      3  C   UNL     1       2.614  -2.284   0.760  0.00  0.00    +0.005 A 
ATOM      4  C   UNL     1       3.615  -1.334   0.828  0.00  0.00    +0.001 A 
ATOM      5  C   UNL     1       3.307   0.005   0.658  0.00  0.00    +0.004 A 
ATOM      6  C   UNL     1       2.005   0.387   0.424  0.00  0.00    -0.027 A 
ATOM      7  C   UNL     1       0.988  -0.561   0.355  0.00  0.00    +0.039 A 
ATOM      8  N   UNL     1      -0.238   0.062   0.112  0.00  0.00    -0.286 N 
ATOM      9  C   UNL     1      -0.116   1.400   0.006  0.00  0.00    +0.211 C 
ATOM     10  O   UNL     1      -1.007   2.194  -0.207  0.00  0.00    -0.277 OA
ATOM     11  C   UNL     1       1.343   1.717   0.197  0.00  0.00    +0.050 C 
ATOM     12  C   UNL     1       1.925   2.432  -1.028  0.00  0.00    +0.088 C 
ATOM     13  C   UNL     1       1.905   3.939  -0.646  0.00  0.00    +0.073 C 
ATOM     14  C   UNL     1       1.298   3.981   0.772  0.00  0.00    -0.055 C 
ATOM     15  C   UNL     1       3.372   4.299  -0.573  0.00  0.00    +0.224 C 
ATOM     16  O   UNL     1       3.811   5.394  -0.292  0.00  0.00    -0.275 OA
ATOM     17  N   UNL     1       4.109   3.223  -0.867  0.00  0.00    -0.236 N 
ATOM     18  C   UNL     1       3.401   2.122  -1.142  0.00  0.00    +0.225 C 
ATOM     19  O   UNL     1       3.869   1.043  -1.436  0.00  0.00    -0.275 OA
ATOM     20  H   UNL     1      -1.079  -0.412   0.030  0.00  0.00    +0.155 HD
ATOM     21  N   UNL     1       1.542   2.637   1.302  0.00  0.00    +0.394 N 
ATOM     22  H   UNL     1       2.504   2.565   1.655  0.00  0.00    -0.083 HD
ATOM     23  H   UNL     1       0.883   2.430   2.061  0.00  0.00    -0.083 HD
ENDROOT
BRANCH  17  24
ATOM     24  C   UNL     1       5.574   3.248  -0.887  0.00  0.00    +0.036 C 
ATOM     25  C   UNL     1       6.065   4.652  -0.530  0.00  0.00    +0.031 C 
ATOM     26  C   UNL     1       6.115   2.243   0.132  0.00  0.00    +0.031 C 
ATOM     27  C   UNL     1       6.071   2.874  -2.285  0.00  0.00    +0.031 C 
ENDBRANCH  17  24
BRANCH  14  28
ATOM     28  C   UNL     1       1.993   5.050   1.617  0.00  0.00    -0.031 C 
ATOM     29  C   UNL     1       1.689   6.434   1.040  0.00  0.00    +0.005 C 
ATOM     30  C   UNL     1       1.481   4.974   3.057  0.00  0.00    +0.005 C 
ENDBRANCH  14  28
TORSDOF 2
