REMARK  Name = ZINC64002187
REMARK  4 active torsions:
REMARK  status: ('A' for Active; 'I' for Inactive)
REMARK    1  A    between atoms: C_8  and  C_16
REMARK    2  A    between atoms: N_18  and  C_19
REMARK    3  A    between atoms: C_19  and  C_20
REMARK    4  A    between atoms: C_27  and  C_30
REMARK                            x       y       z     vdW  Elec       q    Type
REMARK                         _______ _______ _______ _____ _____    ______ ____
ROOT
ATOM      1  C   UNL     1       5.158  -3.121   0.866  0.00  0.00    +0.219 C 
ATOM      2  O   UNL     1       5.742  -2.639  -0.081  0.00  0.00    -0.275 OA
ATOM      3  N   UNL     1       5.834  -3.853   1.774  0.00  0.00    -0.311 N 
ATOM      4  H   UNL     1       5.366  -4.239   2.531  0.00  0.00    +0.149 HD
ENDROOT
BRANCH   1  11
ATOM      5  C   UNL     1      -0.016   1.347   0.009  0.00  0.00    +0.001 A 
ATOM      6  C   UNL     1       1.165   2.101   0.002  0.00  0.00    +0.002 A 
ATOM      7  C   UNL     1       2.390   1.534  -0.016  0.00  0.00    +0.026 A 
ATOM      8  C   UNL     1       2.529   0.120  -0.029  0.00  0.00    +0.043 A 
ATOM      9  N   UNL     1       3.592  -0.653  -0.026  0.00  0.00    -0.377 N 
ATOM     10  C   UNL     1       3.154  -2.043  -0.127  0.00  0.00    +0.118 C 
ATOM     11  C   UNL     1       3.676  -2.901   1.028  0.00  0.00    +0.101 C 
ATOM     12  C   UNL     1       2.946  -4.248   1.003  0.00  0.00    +0.015 C 
ATOM     13  C   UNL     1       1.455  -4.072   1.288  0.00  0.00    +0.005 C 
ATOM     14  C   UNL     1       0.801  -3.240   0.172  0.00  0.00    +0.033 C 
ATOM     15  C   UNL     1       1.639  -1.997  -0.017  0.00  0.00    -0.038 C 
ATOM     16  C   UNL     1       1.294  -0.702  -0.014  0.00  0.00    -0.001 A 
ATOM     17  C   UNL     1       0.002  -0.004   0.002  0.00  0.00    +0.010 A 
ATOM     18  H   UNL     1       4.512  -0.352   0.034  0.00  0.00    +0.160 HD
ENDBRANCH   1  11
BRANCH   3  19
ATOM     19  C   UNL     1       7.274  -4.067   1.616  0.00  0.00    +0.149 C 
BRANCH  19  20
ATOM     20  C   UNL     1       7.792  -4.926   2.772  0.00  0.00    +0.195 C 
ATOM     21  C   UNL     1       9.323  -5.119   2.668  0.00  0.00    +0.088 C 
ATOM     22  C   UNL     1       9.493  -6.544   3.159  0.00  0.00    +0.034 A 
ATOM     23  C   UNL     1      10.600  -7.253   3.578  0.00  0.00    +0.130 A 
ATOM     24  C   UNL     1      10.470  -8.572   3.990  0.00  0.00    +0.039 A 
ATOM     25  C   UNL     1       9.230  -9.175   3.982  0.00  0.00    +0.018 A 
ATOM     26  C   UNL     1       8.108  -8.467   3.557  0.00  0.00    +0.061 A 
ATOM     27  C   UNL     1       8.238  -7.133   3.136  0.00  0.00    +0.138 A 
ATOM     28  O   UNL     1       7.291  -6.269   2.673  0.00  0.00    -0.486 OA
ATOM     29  F   UNL     1      11.815  -6.662   3.585  0.00  0.00    -0.205 F 
BRANCH  26  30
ATOM     30  C   UNL     1       6.779  -9.121   3.550  0.00  0.00    +0.163 A 
ATOM     31  N   UNL     1       5.722  -8.434   3.138  0.00  0.00    -0.236 NA
ATOM     32  C   UNL     1       4.522  -8.988   3.119  0.00  0.00    +0.114 A 
ATOM     33  C   UNL     1       4.377 -10.302   3.537  0.00  0.00    +0.039 A 
ATOM     34  C   UNL     1       5.502 -10.992   3.962  0.00  0.00    +0.114 A 
ATOM     35  N   UNL     1       6.675 -10.381   3.951  0.00  0.00    -0.236 NA
ENDBRANCH  26  30
ENDBRANCH  19  20
ENDBRANCH   3  19
TORSDOF 4
