REMARK  Name = ZINC05803637
REMARK  8 active torsions:
REMARK  status: ('A' for Active; 'I' for Inactive)
REMARK    1  A    between atoms: C_1  and  C_2
REMARK    2  A    between atoms: C_2  and  C_4
REMARK    3  A    between atoms: C_2  and  O_10
REMARK    4  A    between atoms: O_10  and  C_11
REMARK    5  A    between atoms: C_11  and  C_13
REMARK    6  A    between atoms: C_18  and  C_19
REMARK    7  A    between atoms: C_19  and  S_20
REMARK    8  A    between atoms: S_20  and  C_21
REMARK                            x       y       z     vdW  Elec       q    Type
REMARK                         _______ _______ _______ _____ _____    ______ ____
ROOT
ATOM      1  C   UNL     1       2.926  -2.342   0.662  0.00  0.00    +0.063 A 
ATOM      2  C   UNL     1       4.004  -1.675   0.076  0.00  0.00    +0.015 A 
ATOM      3  C   UNL     1       5.294  -2.033   0.407  0.00  0.00    +0.001 A 
ATOM      4  C   UNL     1       5.522  -3.050   1.317  0.00  0.00    +0.000 A 
ATOM      5  C   UNL     1       4.459  -3.714   1.902  0.00  0.00    +0.005 A 
ATOM      6  C   UNL     1       3.163  -3.363   1.584  0.00  0.00    -0.023 A 
ENDROOT
BRANCH   1   7
ATOM      7  C   UNL     1       1.541  -1.963   0.313  0.00  0.00    +0.340 C 
ATOM      8  O   UNL     1       0.608  -2.614   0.739  0.00  0.00    -0.245 OA
BRANCH   7   9
ATOM      9  O   UNL     1       1.313  -0.897  -0.477  0.00  0.00    -0.449 OA
BRANCH   9  11
ATOM     10  C   UNL     1      -0.498  -1.323  -2.048  0.00  0.00    +0.062 C 
ATOM     11  C   UNL     1      -0.072  -0.584  -0.778  0.00  0.00    +0.259 C 
BRANCH  11  12
ATOM     12  C   UNL     1      -0.217   0.901  -0.990  0.00  0.00    +0.261 C 
ATOM     13  O   UNL     1       0.764   1.613  -0.986  0.00  0.00    -0.271 OA
ATOM     14  N   UNL     1      -1.438   1.438  -1.189  0.00  0.00    -0.237 N 
ATOM     15  C   UNL     1      -1.567   2.766  -1.378  0.00  0.00    +0.303 C 
ATOM     16  O   UNL     1      -0.584   3.480  -1.369  0.00  0.00    -0.253 OA
ATOM     17  N   UNL     1      -2.788   3.302  -1.577  0.00  0.00    -0.313 N 
ATOM     18  H   UNL     1      -2.223   0.868  -1.196  0.00  0.00    +0.159 HD
ATOM     19  H   UNL     1      -3.572   2.732  -1.584  0.00  0.00    +0.146 HD
ATOM     20  H   UNL     1      -2.881   4.258  -1.713  0.00  0.00    +0.146 HD
ENDBRANCH  11  12
ENDBRANCH   9  11
ENDBRANCH   7   9
ENDBRANCH   1   7
BRANCH   6  21
ATOM     21  C   UNL     1       2.006  -4.084   2.226  0.00  0.00    +0.114 C 
BRANCH  21  22
ATOM     22  S   UNL     1       1.422  -5.394   1.121  0.00  0.00    -0.062 S 
BRANCH  22  23
ATOM     23  C   UNL     1       0.108  -6.051   2.093  0.00  0.00    +0.258 A 
ATOM     24  N   UNL     1      -0.661  -7.049   1.738  0.00  0.00    -0.203 NA
ATOM     25  C   UNL     1      -1.561  -7.282   2.733  0.00  0.00    +0.110 A 
ATOM     26  C   UNL     1      -2.598  -8.201   2.898  0.00  0.00    +0.031 A 
ATOM     27  C   UNL     1      -3.350  -8.183   4.052  0.00  0.00    +0.002 A 
ATOM     28  C   UNL     1      -3.081  -7.258   5.050  0.00  0.00    +0.004 A 
ATOM     29  C   UNL     1      -2.058  -6.343   4.899  0.00  0.00    +0.048 A 
ATOM     30  C   UNL     1      -1.292  -6.348   3.744  0.00  0.00    +0.156 A 
ATOM     31  O   UNL     1      -0.247  -5.606   3.312  0.00  0.00    -0.431 OA
ENDBRANCH  22  23
ENDBRANCH  21  22
ENDBRANCH   6  21
TORSDOF 7
