REMARK  Name = ZINC14672562
REMARK  8 active torsions:
REMARK  status: ('A' for Active; 'I' for Inactive)
REMARK    1  A    between atoms: C_1  and  C_2
REMARK    2  A    between atoms: N_10  and  N_14
REMARK    3  A    between atoms: C_15  and  C_17
REMARK    4  A    between atoms: C_17  and  O_18
REMARK    5  A    between atoms: O_18  and  C_19
REMARK    6  A    between atoms: C_19  and  C_21
REMARK    7  A    between atoms: C_21  and  N_22
REMARK    8  A    between atoms: C_23  and  C_25
REMARK                            x       y       z     vdW  Elec       q    Type
REMARK                         _______ _______ _______ _____ _____    ______ ____
ROOT
ATOM      1  C   UNL     1       1.280   1.980   0.001  0.00  0.00    +0.329 C 
ENDROOT
BRANCH   1   3
ATOM      2  N   UNL     1      -1.191   1.867   0.018  0.00  0.00    -0.221 N 
ATOM      3  C   UNL     1      -0.014   1.209   0.009  0.00  0.00    +0.267 C 
ATOM      4  O   UNL     1       0.002  -0.004   0.002  0.00  0.00    -0.271 OA
ATOM      5  H   UNL     1      -1.204   2.837   0.023  0.00  0.00    +0.174 HD
BRANCH   2  15
ATOM      6  C   UNL     1      -8.066  -2.056   0.588  0.00  0.00    +0.007 C 
ATOM      7  C   UNL     1      -6.893  -1.208   1.083  0.00  0.00    -0.014 C 
ATOM      8  C   UNL     1      -5.589  -1.988   0.906  0.00  0.00    +0.006 C 
ATOM      9  C   UNL     1      -4.418  -1.143   1.412  0.00  0.00    +0.035 C 
ATOM     10  C   UNL     1      -4.357   0.167   0.633  0.00  0.00    +0.114 C 
ATOM     11  C   UNL     1      -5.660   0.944   0.781  0.00  0.00    +0.035 C 
ATOM     12  C   UNL     1      -6.827   0.090   0.276  0.00  0.00    +0.006 C 
ATOM     13  C   UNL     1      -3.188   1.004   1.101  0.00  0.00    +0.263 C 
ATOM     14  O   UNL     1      -3.004   1.451   2.212  0.00  0.00    -0.271 OA
ATOM     15  N   UNL     1      -2.394   1.150   0.020  0.00  0.00    -0.137 N 
ATOM     16  C   UNL     1      -2.902   0.529  -1.052  0.00  0.00    +0.326 C 
ATOM     17  O   UNL     1      -2.369   0.522  -2.145  0.00  0.00    -0.251 OA
ATOM     18  N   UNL     1      -4.067  -0.090  -0.783  0.00  0.00    -0.284 N 
ATOM     19  H   UNL     1      -4.611  -0.601  -1.404  0.00  0.00    +0.151 HD
ENDBRANCH   2  15
ENDBRANCH   1   3
BRANCH   1  20
ATOM     20  O   UNL     1       2.397   1.051  -0.015  0.00  0.00    -0.454 OA
BRANCH  20  21
ATOM     21  C   UNL     1       3.630   1.581  -0.024  0.00  0.00    +0.325 C 
ATOM     22  O   UNL     1       3.772   2.781  -0.019  0.00  0.00    -0.249 OA
BRANCH  21  23
ATOM     23  C   UNL     1       4.837   0.680  -0.041  0.00  0.00    +0.225 C 
BRANCH  23  24
ATOM     24  N   UNL     1       6.055   1.494  -0.048  0.00  0.00    -0.300 N 
ATOM     25  C   UNL     1       7.264   0.899  -0.062  0.00  0.00    +0.253 C 
ATOM     26  O   UNL     1       7.344  -0.315  -0.070  0.00  0.00    -0.270 OA
ATOM     27  H   UNL     1       5.991   2.462  -0.042  0.00  0.00    +0.150 HD
BRANCH  25  28
ATOM     28  C   UNL     1       8.484   1.715  -0.070  0.00  0.00    +0.093 A 
ATOM     29  C   UNL     1       9.781   1.302  -0.079  0.00  0.00    +0.068 A 
ATOM     30  C   UNL     1      10.819   2.252  -0.089  0.00  0.00    +0.008 A 
ATOM     31  C   UNL     1      12.219   2.022  -0.104  0.00  0.00    +0.010 A 
ATOM     32  C   UNL     1      13.094   3.061  -0.106  0.00  0.00    +0.001 A 
ATOM     33  C   UNL     1      12.658   4.381  -0.095  0.00  0.00    +0.001 A 
ATOM     34  C   UNL     1      11.304   4.649  -0.081  0.00  0.00    +0.016 A 
ATOM     35  C   UNL     1      10.404   3.604  -0.078  0.00  0.00    +0.021 A 
ATOM     36  S   UNL     1       8.633   3.493  -0.061  0.00  0.00    -0.082 S 
ATOM     37 CL   UNL     1      10.153  -0.394  -0.082  0.00  0.00    -0.082 Cl
ENDBRANCH  25  28
ENDBRANCH  23  24
ENDBRANCH  21  23
ENDBRANCH  20  21
ENDBRANCH   1  20
TORSDOF 7
