REMARK  Name = ZINC07182092
REMARK  10 active torsions:
REMARK  status: ('A' for Active; 'I' for Inactive)
REMARK    1  A    between atoms: C_1  and  C_2
REMARK    2  A    between atoms: C_4  and  O_12
REMARK    3  A    between atoms: C_5  and  C_9
REMARK    4  A    between atoms: C_9  and  C_10
REMARK    5  A    between atoms: C_9  and  C_11
REMARK    6  A    between atoms: O_12  and  C_13
REMARK    7  A    between atoms: C_13  and  C_14
REMARK    8  A    between atoms: C_14  and  O_16
REMARK    9  A    between atoms: O_16  and  C_17
REMARK   10  A    between atoms: C_17  and  C_18
REMARK                            x       y       z     vdW  Elec       q    Type
REMARK                         _______ _______ _______ _____ _____    ______ ____
ROOT
ATOM      1  C   UNL     1      -3.998  -1.172   3.804  0.00  0.00    +0.346 C 
ATOM      2  O   UNL     1      -4.448  -0.700   2.787  0.00  0.00    -0.247 OA
ENDROOT
BRANCH   1   3
ATOM      3  C   UNL     1      -2.568  -0.901   4.192  0.00  0.00    +0.349 C 
BRANCH   3   4
ATOM      4  O   UNL     1      -1.956  -0.068   3.206  0.00  0.00    -0.481 OA
BRANCH   4   8
ATOM      5  C   UNL     1       2.070  -0.333   5.952  0.00  0.00    +0.045 C 
ATOM      6  C   UNL     1       1.339   0.164   4.732  0.00  0.00    -0.029 A 
ATOM      7  C   UNL     1       0.018  -0.189   4.527  0.00  0.00    +0.050 A 
ATOM      8  C   UNL     1      -0.656   0.273   3.406  0.00  0.00    +0.125 A 
ATOM      9  C   UNL     1       0.000   1.080   2.488  0.00  0.00    -0.002 A 
ATOM     10  C   UNL     1       1.320   1.430   2.696  0.00  0.00    +0.027 A 
ATOM     11  C   UNL     1       1.989   0.972   3.817  0.00  0.00    +0.044 A 
ATOM     12 CL   UNL     1       3.648   1.414   4.077  0.00  0.00    -0.083 Cl
BRANCH   9  13
ATOM     13  C   UNL     1      -0.729   1.579   1.267  0.00  0.00    +0.016 C 
ATOM     14  C   UNL     1      -0.013   1.086   0.008  0.00  0.00    +0.012 C 
ATOM     15  C   UNL     1      -0.750   3.109   1.275  0.00  0.00    +0.012 C 
ENDBRANCH   9  13
ENDBRANCH   4   8
ENDBRANCH   3   4
ENDBRANCH   1   3
BRANCH   1  16
ATOM     16  O   UNL     1      -4.773  -1.938   4.588  0.00  0.00    -0.454 OA
BRANCH  16  17
ATOM     17  C   UNL     1      -6.141  -2.157   4.152  0.00  0.00    +0.308 C 
BRANCH  17  18
ATOM     18  C   UNL     1      -6.852  -3.033   5.151  0.00  0.00    +0.173 A 
ATOM     19  N   UNL     1      -6.835  -4.347   5.005  0.00  0.00    -0.196 NA
ATOM     20  C   UNL     1      -7.458  -5.125   5.887  0.00  0.00    +0.217 A 
ATOM     21  N   UNL     1      -8.107  -4.578   6.910  0.00  0.00    -0.181 NA
ATOM     22  C   UNL     1      -8.127  -3.257   7.050  0.00  0.00    +0.217 A 
ATOM     23  N   UNL     1      -7.497  -2.486   6.167  0.00  0.00    -0.196 NA
ATOM     24  N   UNL     1      -8.800  -2.685   8.110  0.00  0.00    -0.327 N 
ATOM     25  N   UNL     1      -7.435  -6.496   5.737  0.00  0.00    -0.327 N 
ATOM     26  H   UNL     1      -8.814  -1.721   8.212  0.00  0.00    +0.145 HD
ATOM     27  H   UNL     1      -9.259  -3.248   8.754  0.00  0.00    +0.145 HD
ATOM     28  H   UNL     1      -7.893  -7.062   6.378  0.00  0.00    +0.145 HD
ATOM     29  H   UNL     1      -6.961  -6.894   4.990  0.00  0.00    +0.145 HD
ENDBRANCH  17  18
ENDBRANCH  16  17
ENDBRANCH   1  16
TORSDOF 7
