REMARK  Name = ZINC34941645
REMARK  7 active torsions:
REMARK  status: ('A' for Active; 'I' for Inactive)
REMARK    1  A    between atoms: C_10  and  C_11
REMARK    2  A    between atoms: C_12  and  C_13
REMARK    3  A    between atoms: N_15  and  C_16
REMARK    4  A    between atoms: C_16  and  N_18
REMARK    5  A    between atoms: N_18  and  C_19
REMARK    6  A    between atoms: C_21  and  N_26
REMARK    7  A    between atoms: C_24  and  O_25
REMARK                            x       y       z     vdW  Elec       q    Type
REMARK                         _______ _______ _______ _____ _____    ______ ____
ROOT
ATOM      1  C   UNL     1       7.428   0.049  -0.546  0.00  0.00    +0.242 C 
ATOM      2  O   UNL     1       7.418   1.243  -0.777  0.00  0.00    -0.270 OA
ATOM      3  N   UNL     1       8.595  -0.583  -0.315  0.00  0.00    -0.264 N 
ATOM      4  H   UNL     1       8.603  -1.536  -0.130  0.00  0.00    +0.157 HD
ENDROOT
BRANCH   1   6
ATOM      5  C   UNL     1       5.002  -0.067  -0.751  0.00  0.00    +0.013 C 
ATOM      6  C   UNL     1       6.173  -0.701  -0.519  0.00  0.00    +0.068 C 
BRANCH   5  16
ATOM      7  C   UNL     1       0.016   1.058  -1.435  0.00  0.00    +0.001 A 
ATOM      8  C   UNL     1       1.190   1.807  -1.469  0.00  0.00    +0.001 A 
ATOM      9  C   UNL     1       2.401   1.222  -1.243  0.00  0.00    +0.009 A 
ATOM     10  C   UNL     1       2.466  -0.150  -0.973  0.00  0.00    -0.011 A 
ATOM     11  C   UNL     1       1.275  -0.914  -0.938  0.00  0.00    -0.017 A 
ATOM     12  C   UNL     1       0.044  -0.279  -1.176  0.00  0.00    +0.008 A 
ATOM     13  C   UNL     1       1.345  -2.291  -0.666  0.00  0.00    +0.008 A 
ATOM     14  C   UNL     1       2.545  -2.895  -0.438  0.00  0.00    +0.001 A 
ATOM     15  C   UNL     1       3.737  -2.187  -0.461  0.00  0.00    +0.008 A 
ATOM     16  C   UNL     1       3.743  -0.820  -0.724  0.00  0.00    -0.017 A 
ENDBRANCH   5  16
ENDBRANCH   1   6
BRANCH   3  17
ATOM     17  C   UNL     1       9.752   0.108  -0.339  0.00  0.00    +0.141 C 
ATOM     18  S   UNL     1       9.738   1.789  -0.664  0.00  0.00    -0.018 S 
BRANCH  17  19
ATOM     19  N   UNL     1      10.920  -0.524  -0.108  0.00  0.00    -0.294 N 
ATOM     20  H   UNL     1      10.923  -1.462   0.138  0.00  0.00    +0.154 HD
BRANCH  19  21
ATOM     21  C   UNL     1      12.129   0.175  -0.223  0.00  0.00    +0.077 A 
ATOM     22  C   UNL     1      12.272   1.420   0.372  0.00  0.00    +0.059 A 
ATOM     23  C   UNL     1      13.466   2.107   0.258  0.00  0.00    +0.128 A 
ATOM     24  C   UNL     1      14.519   1.557  -0.448  0.00  0.00    +0.036 A 
ATOM     25  C   UNL     1      14.384   0.316  -1.044  0.00  0.00    +0.049 A 
ATOM     26  C   UNL     1      13.193  -0.382  -0.929  0.00  0.00    +0.138 A 
BRANCH  23  27
ATOM     27  N   UNL     1      13.616   3.436   0.893  0.00  0.00    +0.056 N 
ATOM     28  O   UNL     1      12.696   3.918   1.511  0.00  0.00    -0.126 OA
ATOM     29  O   UNL     1      14.660   4.038   0.794  0.00  0.00    -0.126 OA
ENDBRANCH  23  27
BRANCH  26  30
ATOM     30  O   UNL     1      13.060  -1.604  -1.509  0.00  0.00    -0.505 OA
ATOM     31  H   UNL     1      12.730  -1.575  -2.418  0.00  0.00    +0.292 HD
ENDBRANCH  26  30
ENDBRANCH  19  21
ENDBRANCH  17  19
ENDBRANCH   3  17
TORSDOF 7
