REMARK  Name = ZINC62230828
REMARK  6 active torsions:
REMARK  status: ('A' for Active; 'I' for Inactive)
REMARK    1  A    between atoms: N_11  and  C_12
REMARK    2  A    between atoms: C_12  and  C_13
REMARK    3  A    between atoms: N_15  and  C_16
REMARK    4  A    between atoms: C_16  and  C_17
REMARK    5  A    between atoms: N_21  and  C_23
REMARK    6  A    between atoms: C_23  and  C_24
REMARK                            x       y       z     vdW  Elec       q    Type
REMARK                         _______ _______ _______ _____ _____    ______ ____
ROOT
ATOM      1  C   UNL     1       3.006  -0.154   1.393  0.00  0.00    +0.231 C 
ATOM      2  O   UNL     1       2.273  -0.425   2.321  0.00  0.00    -0.274 OA
ATOM      3  N   UNL     1       4.256   0.292   1.629  0.00  0.00    -0.314 N 
ATOM      4  H   UNL     1       4.842   0.508   0.887  0.00  0.00    +0.149 HD
ENDROOT
BRANCH   1   5
ATOM      5  C   UNL     1       2.519  -0.317  -0.024  0.00  0.00    +0.209 C 
BRANCH   5  16
ATOM      6  C   UNL     1      -0.016   1.332   0.009  0.00  0.00    +0.034 C 
ATOM      7  C   UNL     1       0.002  -0.004   0.002  0.00  0.00    +0.038 C 
ATOM      8  C   UNL     1      -1.178  -0.890   0.002  0.00  0.00    +0.008 A 
ATOM      9  C   UNL     1      -2.550  -0.669   0.009  0.00  0.00    +0.010 A 
ATOM     10  C   UNL     1      -3.418  -1.743   0.008  0.00  0.00    +0.001 A 
ATOM     11  C   UNL     1      -2.930  -3.041  -0.002  0.00  0.00    +0.001 A 
ATOM     12  C   UNL     1      -1.571  -3.280  -0.008  0.00  0.00    +0.014 A 
ATOM     13  C   UNL     1      -0.681  -2.209  -0.007  0.00  0.00    +0.046 A 
ATOM     14  C   UNL     1       0.787  -2.109  -0.013  0.00  0.00    +0.252 C 
ATOM     15  O   UNL     1       1.558  -3.050  -0.021  0.00  0.00    -0.270 OA
ATOM     16  N   UNL     1       1.140  -0.811  -0.013  0.00  0.00    -0.259 N 
ENDBRANCH   5  16
ENDBRANCH   1   5
BRANCH   3  17
ATOM     17  C   UNL     1       4.729   0.449   3.007  0.00  0.00    +0.106 C 
BRANCH  17  18
ATOM     18  C   UNL     1       6.169   0.966   2.995  0.00  0.00    -0.011 C 
ATOM     19  C   UNL     1       6.202   2.375   2.397  0.00  0.00    +0.001 C 
ATOM     20  C   UNL     1       7.635   2.913   2.462  0.00  0.00    -0.018 C 
ATOM     21  C   UNL     1       8.118   2.888   3.914  0.00  0.00    -0.078 C 
ATOM     22  N   UNL     1       8.087   1.510   4.420  0.00  0.00    +0.383 N 
ATOM     23  C   UNL     1       6.706   1.012   4.427  0.00  0.00    -0.073 C 
ATOM     24  H   UNL     1       8.652   0.922   3.825  0.00  0.00    -0.081 HD
BRANCH  22  25
ATOM     25  C   UNL     1       8.625   1.479   5.786  0.00  0.00    -0.043 C 
BRANCH  25  26
ATOM     26  C   UNL     1      10.082   1.864   5.762  0.00  0.00    -0.064 A 
ATOM     27  C   UNL     1      11.051   0.891   5.601  0.00  0.00    +0.002 A 
ATOM     28  C   UNL     1      12.387   1.244   5.578  0.00  0.00    +0.000 A 
ATOM     29  C   UNL     1      12.755   2.569   5.716  0.00  0.00    +0.000 A 
ATOM     30  C   UNL     1      11.786   3.542   5.876  0.00  0.00    +0.000 A 
ATOM     31  C   UNL     1      10.449   3.190   5.894  0.00  0.00    +0.002 A 
ENDBRANCH  25  26
ENDBRANCH  22  25
ENDBRANCH  17  18
ENDBRANCH   3  17
TORSDOF 6
