REMARK  Name = ZINC02594558
REMARK  13 active torsions:
REMARK  status: ('A' for Active; 'I' for Inactive)
REMARK    1  A    between atoms: C_1  and  C_2
REMARK    2  A    between atoms: C_2  and  C_3
REMARK    3  A    between atoms: C_3  and  C_5
REMARK    4  A    between atoms: C_3  and  C_6
REMARK    5  A    between atoms: C_11  and  O_12
REMARK    6  A    between atoms: O_12  and  C_13
REMARK    7  A    between atoms: C_13  and  C_14
REMARK    8  A    between atoms: C_14  and  C_15
REMARK    9  A    between atoms: C_15  and  N_16
REMARK   10  A    between atoms: C_18  and  C_25
REMARK   11  A    between atoms: C_27  and  O_40
REMARK   12  A    between atoms: N_31  and  C_34
REMARK   13  A    between atoms: C_34  and  C_35
REMARK                            x       y       z     vdW  Elec       q    Type
REMARK                         _______ _______ _______ _____ _____    ______ ____
ROOT
ATOM      1  N   UNL     1       7.485  -0.647   0.882  0.00  0.00    -0.346 N 
ATOM      2  C   UNL     1       8.300  -0.153  -0.067  0.00  0.00    +0.094 A 
ATOM      3  C   UNL     1       9.461   0.323   0.521  0.00  0.00    +0.001 A 
ATOM      4  C   UNL     1       9.313   0.084   1.971  0.00  0.00    +0.007 A 
ATOM      5  C   UNL     1       8.056  -0.519   2.134  0.00  0.00    +0.050 A 
ATOM      6  C   UNL     1       7.626  -0.862   3.411  0.00  0.00    +0.026 A 
ATOM      7  C   UNL     1       8.431  -0.606   4.500  0.00  0.00    +0.002 A 
ATOM      8  C   UNL     1       9.671  -0.008   4.337  0.00  0.00    +0.001 A 
ATOM      9  C   UNL     1      10.118   0.333   3.078  0.00  0.00    +0.010 A 
ENDROOT
BRANCH   3  10
ATOM     10  C   UNL     1      10.559   0.915  -0.132  0.00  0.00    +0.028 C 
ATOM     11  C   UNL     1      11.069   0.343  -1.294  0.00  0.00    +0.097 C 
ATOM     12  C   UNL     1      12.046   1.015  -2.082  0.00  0.00    +0.218 C 
ATOM     13  N   UNL     1      12.502   0.433  -3.177  0.00  0.00    -0.127 NA
ATOM     14  C   UNL     1      12.076  -0.765  -3.571  0.00  0.00    +0.336 C 
ATOM     15  O   UNL     1      12.540  -1.242  -4.592  0.00  0.00    -0.250 OA
ATOM     16  N   UNL     1      11.158  -1.472  -2.892  0.00  0.00    -0.213 N 
ATOM     17  C   UNL     1      10.623  -0.984  -1.753  0.00  0.00    +0.259 C 
ATOM     18  O   UNL     1       9.794  -1.618  -1.126  0.00  0.00    -0.269 OA
BRANCH  12  19
ATOM     19  O   UNL     1      12.502   2.232  -1.714  0.00  0.00    -0.493 OA
ATOM     20  H   UNL     1      13.163   2.602  -2.315  0.00  0.00    +0.294 HD
ENDBRANCH  12  19
BRANCH  16  21
ATOM     21  C   UNL     1      10.739  -2.785  -3.388  0.00  0.00    +0.192 C 
BRANCH  21  22
ATOM     22  C   UNL     1      11.629  -3.851  -2.802  0.00  0.00    +0.123 A 
ATOM     23  C   UNL     1      11.412  -4.510  -1.650  0.00  0.00    +0.046 A 
ATOM     24  C   UNL     1      12.488  -5.413  -1.486  0.00  0.00    +0.041 A 
ATOM     25  C   UNL     1      13.297  -5.252  -2.548  0.00  0.00    +0.195 A 
ATOM     26  O   UNL     1      12.769  -4.309  -3.345  0.00  0.00    -0.466 OA
ENDBRANCH  21  22
ENDBRANCH  16  21
ENDBRANCH   3  10
BRANCH   1  27
ATOM     27  C   UNL     1       6.169  -1.235   0.625  0.00  0.00    +0.125 C 
BRANCH  27  28
ATOM     28  C   UNL     1       5.088  -0.167   0.809  0.00  0.00    +0.062 C 
BRANCH  28  29
ATOM     29  C   UNL     1       3.713  -0.781   0.540  0.00  0.00    +0.231 C 
BRANCH  29  30
ATOM     30  O   UNL     1       2.704   0.216   0.713  0.00  0.00    -0.492 OA
BRANCH  30  36
ATOM     31  C   UNL     1       0.386   0.749   0.660  0.00  0.00    -0.003 A 
ATOM     32  C   UNL     1      -0.923   0.355   0.458  0.00  0.00    +0.007 A 
ATOM     33  C   UNL     1      -1.205  -0.950   0.096  0.00  0.00    +0.001 A 
ATOM     34  C   UNL     1      -0.180  -1.865  -0.054  0.00  0.00    +0.004 A 
ATOM     35  C   UNL     1       1.130  -1.478   0.152  0.00  0.00    +0.046 A 
ATOM     36  C   UNL     1       1.416  -0.168   0.510  0.00  0.00    +0.124 A 
BRANCH  31  37
ATOM     37  C   UNL     1       0.694   2.172   1.049  0.00  0.00    +0.019 C 
ATOM     38  C   UNL     1      -0.005   2.502   2.369  0.00  0.00    +0.012 C 
BRANCH  37  40
ATOM     39  C   UNL     1       0.615   4.551   0.290  0.00  0.00    +0.004 C 
ATOM     40  C   UNL     1       0.193   3.119  -0.044  0.00  0.00    +0.004 C 
ENDBRANCH  37  40
ENDBRANCH  31  37
ENDBRANCH  30  36
ENDBRANCH  29  30
ENDBRANCH  28  29
ENDBRANCH  27  28
ENDBRANCH   1  27
TORSDOF 11
