REMARK  Name = ZINC63581887
REMARK  4 active torsions:
REMARK  status: ('A' for Active; 'I' for Inactive)
REMARK    1  A    between atoms: C_1  and  C_2
REMARK    2  A    between atoms: N_4  and  N_5
REMARK    3  A    between atoms: C_6  and  C_8
REMARK    4  A    between atoms: C_10  and  C_19
REMARK                            x       y       z     vdW  Elec       q    Type
REMARK                         _______ _______ _______ _____ _____    ______ ____
ROOT
ATOM      1  C   UNL     1      -2.268  -4.303  -0.122  0.00  0.00    +0.199 C 
ATOM      2  C   UNL     1      -2.096  -4.918   1.250  0.00  0.00    -0.000 C 
ATOM      3  C   UNL     1      -3.235  -5.673   1.468  0.00  0.00    +0.005 A 
ATOM      4  C   UNL     1      -3.658  -6.475   2.556  0.00  0.00    +0.025 A 
ATOM      5  C   UNL     1      -4.851  -7.115   2.495  0.00  0.00    +0.019 A 
ATOM      6  C   UNL     1      -5.687  -7.006   1.377  0.00  0.00    +0.017 A 
ATOM      7  C   UNL     1      -5.349  -6.258   0.301  0.00  0.00    +0.027 A 
ATOM      8  C   UNL     1      -4.114  -5.555   0.288  0.00  0.00    +0.044 A 
ATOM      9  N   UNL     1      -3.564  -4.776  -0.619  0.00  0.00    -0.370 N 
ATOM     10 BR   UNL     1      -5.399  -8.183   3.956  0.00  0.00    -0.050 Br
ATOM     11  H   UNL     1      -3.953  -4.550  -1.478  0.00  0.00    +0.161 HD
ENDROOT
BRANCH   2  12
ATOM     12  C   UNL     1      -0.959  -4.749   2.157  0.00  0.00    -0.019 A 
ATOM     13  C   UNL     1      -1.123  -4.944   3.536  0.00  0.00    +0.008 A 
ATOM     14  C   UNL     1      -0.047  -4.784   4.383  0.00  0.00    +0.001 A 
ATOM     15  C   UNL     1       1.192  -4.431   3.875  0.00  0.00    +0.000 A 
ATOM     16  C   UNL     1       1.363  -4.236   2.515  0.00  0.00    +0.001 A 
ATOM     17  C   UNL     1       0.301  -4.398   1.652  0.00  0.00    +0.008 A 
ENDBRANCH   2  12
BRANCH   1  19
ATOM     18  N   UNL     1      -1.115  -2.115  -0.150  0.00  0.00    -0.232 N 
ATOM     19  C   UNL     1      -2.269  -2.800  -0.021  0.00  0.00    +0.256 C 
ATOM     20  O   UNL     1      -3.308  -2.205   0.178  0.00  0.00    -0.272 OA
ATOM     21  H   UNL     1      -0.276  -2.592  -0.243  0.00  0.00    +0.173 HD
BRANCH  18  25
ATOM     22  C   UNL     1       0.011   1.478  -0.281  0.00  0.00    +0.110 C 
ATOM     23  C   UNL     1       0.025  -0.029  -0.281  0.00  0.00    +0.226 C 
ATOM     24  O   UNL     1       1.075  -0.626  -0.397  0.00  0.00    -0.275 OA
ATOM     25  N   UNL     1      -1.128  -0.714  -0.151  0.00  0.00    -0.235 N 
ATOM     26  H   UNL     1      -1.968  -0.237  -0.058  0.00  0.00    +0.173 HD
ENDBRANCH  18  25
ENDBRANCH   1  19
TORSDOF 3
