REMARK  Name = ZINC00197531
REMARK  3 active torsions:
REMARK  status: ('A' for Active; 'I' for Inactive)
REMARK    1  A    between atoms: C_1  and  C_2
REMARK    2  A    between atoms: C_6  and  N_8
REMARK    3  A    between atoms: C_10  and  C_20
REMARK                            x       y       z     vdW  Elec       q    Type
REMARK                         _______ _______ _______ _____ _____    ______ ____
ROOT
ATOM      1  N   UNL     1      -1.208   2.064   0.019  0.00  0.00    -0.213 NA
ATOM      2  C   UNL     1      -1.224   3.375   0.126  0.00  0.00    +0.233 A 
ATOM      3  C   UNL     1      -2.497   4.113   0.248  0.00  0.00    +0.099 A 
ATOM      4  C   UNL     1      -2.458   5.337   0.903  0.00  0.00    +0.030 A 
ATOM      5  C   UNL     1      -1.161   5.786   1.413  0.00  0.00    +0.020 A 
ATOM      6  C   UNL     1      -1.075   6.860   2.306  0.00  0.00    +0.031 A 
ATOM      7  C   UNL     1       0.157   7.261   2.773  0.00  0.00    +0.042 A 
ATOM      8  C   UNL     1       1.311   6.605   2.363  0.00  0.00    +0.023 A 
ATOM      9  C   UNL     1       1.241   5.545   1.482  0.00  0.00    +0.048 A 
ATOM     10  C   UNL     1       0.011   5.126   0.998  0.00  0.00    +0.138 A 
ATOM     11  O   UNL     1      -0.071   4.090   0.132  0.00  0.00    -0.437 OA
ATOM     12 CL   UNL     1       0.270   8.593   3.881  0.00  0.00    -0.084 Cl
ENDROOT
BRANCH   1  18
ATOM     13  C   UNL     1       2.440  -0.036   2.517  0.00  0.00    +0.044 C 
ATOM     14  C   UNL     1       1.786   0.351   1.216  0.00  0.00    -0.048 A 
ATOM     15  C   UNL     1       2.390   0.022   0.015  0.00  0.00    +0.003 A 
ATOM     16  C   UNL     1       1.797   0.374  -1.184  0.00  0.00    +0.002 A 
ATOM     17  C   UNL     1       0.598   1.057  -1.191  0.00  0.00    +0.028 A 
ATOM     18  C   UNL     1      -0.017   1.392   0.018  0.00  0.00    +0.068 A 
ATOM     19  C   UNL     1       0.588   1.034   1.225  0.00  0.00    +0.031 A 
ENDBRANCH   1  18
BRANCH   3  20
ATOM     20  C   UNL     1      -3.754   3.574  -0.300  0.00  0.00    +0.247 C 
ATOM     21  O   UNL     1      -3.758   2.499  -0.868  0.00  0.00    -0.270 OA
ATOM     22  N   UNL     1      -4.899   4.273  -0.172  0.00  0.00    -0.325 N 
ATOM     23  H   UNL     1      -4.896   5.130   0.282  0.00  0.00    +0.145 HD
ATOM     24  H   UNL     1      -5.727   3.918  -0.532  0.00  0.00    +0.145 HD
ENDBRANCH   3  20
TORSDOF 2
