REMARK  Name = ZINC08854663
REMARK  7 active torsions:
REMARK  status: ('A' for Active; 'I' for Inactive)
REMARK    1  A    between atoms: C_1  and  C_2
REMARK    2  A    between atoms: C_6  and  N_9
REMARK    3  A    between atoms: C_7  and  C_8
REMARK    4  A    between atoms: C_19  and  C_22
REMARK    5  A    between atoms: N_23  and  N_24
REMARK    6  A    between atoms: C_25  and  C_26
REMARK    7  A    between atoms: C_29  and  O_32
REMARK                            x       y       z     vdW  Elec       q    Type
REMARK                         _______ _______ _______ _____ _____    ______ ____
ROOT
ATOM      1  N   UNL     1      -7.191   4.984  -0.140  0.00  0.00    -0.283 N 
ATOM      2  C   UNL     1      -7.233   3.638  -0.450  0.00  0.00    +0.225 A 
ATOM      3  N   UNL     1      -6.109   2.984  -0.724  0.00  0.00    -0.179 NA
ATOM      4  C   UNL     1      -6.150   1.690  -1.027  0.00  0.00    +0.241 A 
ATOM      5  N   UNL     1      -7.314   1.048  -1.047  0.00  0.00    -0.180 NA
ATOM      6  C   UNL     1      -8.438   1.701  -0.768  0.00  0.00    +0.224 A 
ATOM      7  N   UNL     1      -8.397   2.996  -0.470  0.00  0.00    -0.181 NA
ATOM      8  N   UNL     1      -9.646   1.035  -0.788  0.00  0.00    -0.299 N 
ATOM      9  C   UNL     1     -10.593   1.690  -1.700  0.00  0.00    +0.108 C 
ATOM     10  C   UNL     1     -11.962   1.015  -1.588  0.00  0.00    +0.022 C 
ATOM     11  C   UNL     1     -11.824  -0.468  -1.944  0.00  0.00    -0.011 C 
ATOM     12  C   UNL     1     -10.797  -1.116  -1.011  0.00  0.00    +0.022 C 
ATOM     13  C   UNL     1      -9.462  -0.379  -1.140  0.00  0.00    +0.108 C 
ATOM     14  C   UNL     1     -13.178  -1.162  -1.775  0.00  0.00    +0.007 C 
ATOM     15  N   UNL     1      -4.982   1.012  -1.317  0.00  0.00    -0.205 N 
ATOM     16  H   UNL     1      -7.996   5.439   0.152  0.00  0.00    +0.155 HD
ATOM     17  H   UNL     1      -4.146   1.496  -1.392  0.00  0.00    +0.177 HD
ENDROOT
BRANCH   1  23
ATOM     18  C   UNL     1      -4.449   8.881   1.068  0.00  0.00    +0.044 C 
ATOM     19  C   UNL     1      -4.632   7.581   0.328  0.00  0.00    -0.046 A 
ATOM     20  C   UNL     1      -3.609   7.085  -0.460  0.00  0.00    +0.004 A 
ATOM     21  C   UNL     1      -3.773   5.893  -1.141  0.00  0.00    +0.002 A 
ATOM     22  C   UNL     1      -4.959   5.193  -1.037  0.00  0.00    +0.023 A 
ATOM     23  C   UNL     1      -5.989   5.689  -0.247  0.00  0.00    +0.037 A 
ATOM     24  C   UNL     1      -5.823   6.889   0.432  0.00  0.00    -0.026 A 
ATOM     25  C   UNL     1      -6.939   7.434   1.286  0.00  0.00    +0.046 C 
ENDBRANCH   1  23
BRANCH  15  26
ATOM     26  N   UNL     1      -5.007  -0.377  -1.502  0.00  0.00    -0.188 NA
ATOM     27  C   UNL     1      -3.898  -1.027  -1.683  0.00  0.00    +0.138 C 
BRANCH  27  28
ATOM     28  C   UNL     1      -3.931  -2.468  -1.993  0.00  0.00    -0.005 A 
ATOM     29  C   UNL     1      -2.738  -3.170  -2.187  0.00  0.00    +0.013 A 
ATOM     30  C   UNL     1      -2.773  -4.519  -2.471  0.00  0.00    +0.046 A 
ATOM     31  C   UNL     1      -3.991  -5.178  -2.570  0.00  0.00    +0.117 A 
ATOM     32  C   UNL     1      -5.179  -4.483  -2.383  0.00  0.00    +0.046 A 
ATOM     33  C   UNL     1      -5.154  -3.135  -2.099  0.00  0.00    +0.013 A 
BRANCH  31  34
ATOM     34  O   UNL     1      -4.021  -6.507  -2.849  0.00  0.00    -0.507 OA
ATOM     35  H   UNL     1      -4.001  -7.074  -2.066  0.00  0.00    +0.292 HD
ENDBRANCH  31  34
ENDBRANCH  27  28
ENDBRANCH  15  26
TORSDOF 4
