REMARK  Name = ZINC64057955
REMARK  11 active torsions:
REMARK  status: ('A' for Active; 'I' for Inactive)
REMARK    1  A    between atoms: C_1  and  C_2
REMARK    2  A    between atoms: C_4  and  C_13
REMARK    3  A    between atoms: C_13  and  C_14
REMARK    4  A    between atoms: C_14  and  N_15
REMARK    5  A    between atoms: C_16  and  C_18
REMARK    6  A    between atoms: C_18  and  C_19
REMARK    7  A    between atoms: C_19  and  C_20
REMARK    8  A    between atoms: C_20  and  C_26
REMARK    9  A    between atoms: C_26  and  C_27
REMARK   10  A    between atoms: C_29  and  O_34
REMARK   11  A    between atoms: O_34  and  C_35
REMARK                            x       y       z     vdW  Elec       q    Type
REMARK                         _______ _______ _______ _____ _____    ______ ____
ROOT
ATOM      1  C   UNL     1       1.458  -0.423  -7.638  0.00  0.00    +0.098 C 
ENDROOT
BRANCH   1   3
ATOM      2  N   UNL     1       1.128   0.519  -5.375  0.00  0.00    -0.315 N 
ATOM      3  C   UNL     1       1.766  -0.368  -6.164  0.00  0.00    +0.213 C 
ATOM      4  O   UNL     1       2.587  -1.123  -5.688  0.00  0.00    -0.276 OA
ATOM      5  H   UNL     1       0.471   1.122  -5.755  0.00  0.00    +0.149 HD
BRANCH   2   6
ATOM      6  C   UNL     1       1.427   0.572  -3.941  0.00  0.00    +0.108 C 
BRANCH   6   7
ATOM      7  C   UNL     1       0.574   1.657  -3.282  0.00  0.00    +0.052 C 
BRANCH   7  10
ATOM      8  C   UNL     1       0.559   4.095  -1.145  0.00  0.00    +0.035 C 
ATOM      9  C   UNL     1       0.265   2.638  -0.783  0.00  0.00    +0.103 C 
ATOM     10  C   UNL     1       0.881   1.711  -1.808  0.00  0.00    -0.037 C 
ATOM     11  C   UNL     1       1.765   0.942  -1.133  0.00  0.00    +0.001 A 
ATOM     12  C   UNL     1       2.670  -0.135  -1.553  0.00  0.00    +0.030 A 
ATOM     13  C   UNL     1       3.454  -0.733  -0.626  0.00  0.00    +0.042 A 
ATOM     14  C   UNL     1       3.424  -0.349   0.723  0.00  0.00    +0.022 A 
ATOM     15  C   UNL     1       2.619   0.631   1.184  0.00  0.00    +0.027 A 
ATOM     16  C   UNL     1       1.752   1.327   0.297  0.00  0.00    +0.043 A 
ATOM     17  N   UNL     1       0.893   2.298   0.498  0.00  0.00    -0.378 N 
ATOM     18 CL   UNL     1       4.525  -2.007  -1.119  0.00  0.00    -0.084 Cl
ATOM     19  H   UNL     1       0.704   2.721   1.351  0.00  0.00    +0.160 HD
ENDBRANCH   7  10
ENDBRANCH   6   7
ENDBRANCH   2   6
ENDBRANCH   1   3
BRANCH   1  20
ATOM     20  C   UNL     1       2.311  -1.508  -8.297  0.00  0.00    +0.035 C 
BRANCH  20  21
ATOM     21  C   UNL     1       1.952  -1.608  -9.781  0.00  0.00    +0.039 C 
ATOM     22  C   UNL     1       2.936  -2.551 -10.507  0.00  0.00    +0.035 C 
ATOM     23  C   UNL     1       3.995  -1.557 -11.035  0.00  0.00    +0.098 C 
ATOM     24  C   UNL     1       3.252  -0.243 -11.138  0.00  0.00    +0.214 C 
ATOM     25  O   UNL     1       3.631   0.722 -11.767  0.00  0.00    -0.276 OA
ATOM     26  N   UNL     1       2.110  -0.302 -10.431  0.00  0.00    -0.309 N 
ATOM     27  H   UNL     1       1.472   0.426 -10.361  0.00  0.00    +0.149 HD
BRANCH  21  28
ATOM     28  C   UNL     1       0.516  -2.110  -9.944  0.00  0.00    +0.064 C 
BRANCH  28  29
ATOM     29  C   UNL     1       0.136  -2.079 -11.402  0.00  0.00    -0.007 A 
ATOM     30  C   UNL     1       0.301  -3.208 -12.183  0.00  0.00    +0.052 A 
ATOM     31  C   UNL     1      -0.049  -3.179 -13.524  0.00  0.00    +0.121 A 
ATOM     32  C   UNL     1      -0.565  -2.018 -14.081  0.00  0.00    +0.048 A 
ATOM     33  C   UNL     1      -0.730  -0.892 -13.299  0.00  0.00    +0.042 A 
ATOM     34  C   UNL     1      -0.384  -0.923 -11.958  0.00  0.00    +0.127 A 
ATOM     35  F   UNL     1      -0.551   0.178 -11.192  0.00  0.00    -0.205 F 
BRANCH  31  36
ATOM     36  O   UNL     1       0.113  -4.289 -14.294  0.00  0.00    -0.495 OA
ATOM     37  C   UNL     1      -0.269  -4.188 -15.667  0.00  0.00    +0.277 C 
ENDBRANCH  31  36
ENDBRANCH  28  29
ENDBRANCH  21  28
ENDBRANCH  20  21
ENDBRANCH   1  20
TORSDOF 9
