REMARK  Name = ZINC35993453
REMARK  14 active torsions:
REMARK  status: ('A' for Active; 'I' for Inactive)
REMARK    1  A    between atoms: C_1  and  C_2
REMARK    2  A    between atoms: C_2  and  O_3
REMARK    3  A    between atoms: O_3  and  C_4
REMARK    4  A    between atoms: C_4  and  C_6
REMARK    5  A    between atoms: C_7  and  C_22
REMARK    6  A    between atoms: N_8  and  C_21
REMARK    7  A    between atoms: C_12  and  C_14
REMARK    8  A    between atoms: C_19  and  C_20
REMARK    9  A    between atoms: C_22  and  N_23
REMARK   10  A    between atoms: C_27  and  C_30
REMARK   11  A    between atoms: N_33  and  C_34
REMARK   12  A    between atoms: C_34  and  C_35
REMARK   13  A    between atoms: C_34  and  C_36
REMARK   14  A    between atoms: C_34  and  C_37
REMARK                            x       y       z     vdW  Elec       q    Type
REMARK                         _______ _______ _______ _____ _____    ______ ____
ROOT
ATOM      1  C   UNL     1       1.522  -3.717   2.842  0.00  0.00    +0.080 C 
ATOM      2  C   UNL     1       1.871  -4.986   3.143  0.00  0.00    +0.041 C 
ATOM      3  N   UNL     1       2.795  -5.252   4.113  0.00  0.00    -0.260 N 
ATOM      4  C   UNL     1       3.415  -4.304   4.827  0.00  0.00    +0.307 C 
ATOM      5  O   UNL     1       4.224  -4.639   5.671  0.00  0.00    -0.252 OA
ATOM      6  N   UNL     1       3.171  -2.992   4.642  0.00  0.00    -0.288 N 
ATOM      7  C   UNL     1       2.194  -2.599   3.613  0.00  0.00    +0.144 C 
ATOM      8  C   UNL     1       3.127  -6.652   4.387  0.00  0.00    +0.139 C 
ATOM      9  H   UNL     1       3.631  -2.322   5.171  0.00  0.00    +0.151 HD
ENDROOT
BRANCH   7  10
ATOM     10  C   UNL     1       1.118  -1.787   4.287  0.00  0.00    -0.020 A 
ATOM     11  C   UNL     1       0.729  -2.092   5.579  0.00  0.00    +0.006 A 
ATOM     12  C   UNL     1      -0.258  -1.347   6.197  0.00  0.00    +0.000 A 
ATOM     13  C   UNL     1      -0.856  -0.298   5.524  0.00  0.00    +0.000 A 
ATOM     14  C   UNL     1      -0.467   0.007   4.234  0.00  0.00    +0.004 A 
ATOM     15  C   UNL     1       0.523  -0.735   3.617  0.00  0.00    -0.045 A 
ATOM     16  C   UNL     1       0.951  -0.399   2.211  0.00  0.00    +0.044 C 
ENDBRANCH   7  10
BRANCH   1  17
ATOM     17  C   UNL     1       0.565  -3.440   1.837  0.00  0.00    +0.339 C 
ATOM     18  O   UNL     1       0.930  -3.159   0.711  0.00  0.00    -0.245 OA
BRANCH  17  19
ATOM     19  O   UNL     1      -0.752  -3.488   2.128  0.00  0.00    -0.462 OA
BRANCH  19  21
ATOM     20  C   UNL     1      -3.095  -3.508   1.538  0.00  0.00    +0.048 C 
ATOM     21  C   UNL     1      -1.663  -3.299   1.044  0.00  0.00    +0.229 C 
ENDBRANCH  19  21
ENDBRANCH  17  19
ENDBRANCH   1  17
BRANCH   2  22
ATOM     22  C   UNL     1       1.231  -6.128   2.396  0.00  0.00    +0.136 C 
BRANCH  22  23
ATOM     23  N   UNL     1       2.248  -6.821   1.595  0.00  0.00    -0.294 NA
ATOM     24  C   UNL     1       2.767  -5.947   0.533  0.00  0.00    +0.104 C 
ATOM     25  C   UNL     1       3.946  -6.638  -0.161  0.00  0.00    +0.125 C 
ATOM     26  N   UNL     1       3.510  -7.969  -0.609  0.00  0.00    -0.280 N 
ATOM     27  C   UNL     1       2.855  -8.852   0.368  0.00  0.00    +0.088 C 
ATOM     28  C   UNL     1       1.719  -8.074   1.042  0.00  0.00    +0.107 C 
ATOM     29  C   UNL     1       2.289 -10.080  -0.348  0.00  0.00    +0.029 C 
ATOM     30  C   UNL     1       3.706  -8.369  -1.881  0.00  0.00    +0.303 C 
ATOM     31  O   UNL     1       3.264  -9.438  -2.257  0.00  0.00    -0.253 OA
ATOM     32  N   UNL     1       4.393  -7.586  -2.736  0.00  0.00    -0.294 N 
ATOM     33  H   UNL     1       4.807  -6.768  -2.418  0.00  0.00    +0.151 HD
BRANCH  32  34
ATOM     34  C   UNL     1       4.513  -7.968  -4.144  0.00  0.00    +0.028 C 
ATOM     35  C   UNL     1       3.119  -8.063  -4.768  0.00  0.00    +0.031 C 
ATOM     36  C   UNL     1       5.335  -6.915  -4.891  0.00  0.00    +0.031 C 
ATOM     37  C   UNL     1       5.210  -9.326  -4.247  0.00  0.00    +0.031 C 
ENDBRANCH  32  34
ENDBRANCH  22  23
ENDBRANCH   2  22
TORSDOF 7
