REMARK  Name = ZINC28696639
REMARK  10 active torsions:
REMARK  status: ('A' for Active; 'I' for Inactive)
REMARK    1  A    between atoms: C_1  and  C_2
REMARK    2  A    between atoms: C_2  and  C_3
REMARK    3  A    between atoms: C_3  and  C_4
REMARK    4  A    between atoms: C_13  and  O_15
REMARK    5  A    between atoms: O_15  and  C_16
REMARK    6  A    between atoms: C_16  and  C_17
REMARK    7  A    between atoms: C_19  and  O_20
REMARK    8  A    between atoms: C_29  and  O_31
REMARK    9  A    between atoms: O_31  and  C_32
REMARK   10  A    between atoms: C_32  and  C_33
REMARK                            x       y       z     vdW  Elec       q    Type
REMARK                         _______ _______ _______ _____ _____    ______ ____
ROOT
ATOM      1  C   UNL     1       2.486   1.113   0.008  0.00  0.00    +0.007 A 
ATOM      2  C   UNL     1       3.609   1.856   0.187  0.00  0.00    +0.095 A 
ATOM      3  C   UNL     1       3.507   3.250   0.374  0.00  0.00    +0.285 A 
ATOM      4  O   UNL     1       2.319   3.875   0.381  0.00  0.00    -0.425 OA
ATOM      5  C   UNL     1       1.164   3.196   0.208  0.00  0.00    +0.141 A 
ATOM      6  C   UNL     1       1.193   1.802   0.016  0.00  0.00    +0.024 A 
ATOM      7  C   UNL     1      -0.001   1.094  -0.165  0.00  0.00    +0.014 A 
ATOM      8  C   UNL     1      -1.192   1.760  -0.159  0.00  0.00    +0.024 A 
ATOM      9  C   UNL     1      -1.228   3.141   0.037  0.00  0.00    +0.040 A 
ATOM     10  C   UNL     1      -0.054   3.857   0.217  0.00  0.00    +0.070 A 
ATOM     11  N   UNL     1      -2.454   3.807   0.045  0.00  0.00    -0.251 N 
ATOM     12  C   UNL     1      -2.543   5.061  -0.441  0.00  0.00    +0.405 C 
ATOM     13  O   UNL     1      -1.580   5.575  -0.975  0.00  0.00    -0.226 OA
ATOM     14  H   UNL     1      -3.348   3.309   0.449  0.00  0.00    +0.158 HD
ENDROOT
BRANCH   3  15
ATOM     15  O   UNL     1       4.522   3.903   0.534  0.00  0.00    -0.480 OA
ATOM     16  H   UNL     1       4.458   4.991   0.682  0.00  0.00    +0.295 HD
ENDBRANCH   3  15
BRANCH   1  17
ATOM     17  C   UNL     1       2.567  -0.378  -0.194  0.00  0.00    +0.265 C 
BRANCH  17  18
ATOM     18  O   UNL     1       3.935  -0.789  -0.158  0.00  0.00    -0.487 OA
BRANCH  18  28
ATOM     19  C   UNL     1       4.956  -6.239  -0.846  0.00  0.00    -0.030 A 
ATOM     20  C   UNL     1       6.252  -6.646  -0.815  0.00  0.00    +0.096 A 
ATOM     21  C   UNL     1       7.279  -5.701  -0.614  0.00  0.00    +0.337 A 
ATOM     22  O   UNL     1       8.437  -6.079  -0.588  0.00  0.00    -0.245 OA
ATOM     23  O   UNL     1       7.014  -4.396  -0.450  0.00  0.00    -0.422 OA
ATOM     24  C   UNL     1       5.748  -3.925  -0.471  0.00  0.00    +0.143 A 
ATOM     25  C   UNL     1       4.674  -4.814  -0.667  0.00  0.00    +0.021 A 
ATOM     26  C   UNL     1       3.361  -4.330  -0.690  0.00  0.00    +0.015 A 
ATOM     27  C   UNL     1       3.126  -2.997  -0.515  0.00  0.00    +0.046 A 
ATOM     28  C   UNL     1       4.185  -2.113  -0.325  0.00  0.00    +0.125 A 
ATOM     29  C   UNL     1       5.492  -2.574  -0.300  0.00  0.00    +0.092 A 
BRANCH  19  30
ATOM     30  C   UNL     1       3.840  -7.228  -1.059  0.00  0.00    +0.036 C 
BRANCH  30  32
ATOM     31  C   UNL     1       2.340  -8.277  -2.761  0.00  0.00    +0.004 C 
ATOM     32  C   UNL     1       3.474  -7.273  -2.544  0.00  0.00    +0.001 C 
ENDBRANCH  30  32
ENDBRANCH  19  30
ENDBRANCH  18  28
ENDBRANCH  17  18
ENDBRANCH   1  17
BRANCH  12  33
ATOM     33  O   UNL     1      -3.699   5.743  -0.336  0.00  0.00    -0.450 OA
BRANCH  33  34
ATOM     34  C   UNL     1      -3.722   7.088  -0.882  0.00  0.00    +0.230 C 
ATOM     35  C   UNL     1      -5.108   7.701  -0.671  0.00  0.00    +0.048 C 
ENDBRANCH  33  34
ENDBRANCH  12  33
TORSDOF 8
