REMARK  Name = ZINC06149217
REMARK  11 active torsions:
REMARK  status: ('A' for Active; 'I' for Inactive)
REMARK    1  A    between atoms: C_1  and  C_2
REMARK    2  A    between atoms: C_2  and  C_3
REMARK    3  A    between atoms: C_3  and  C_4
REMARK    4  A    between atoms: C_3  and  C_5
REMARK    5  A    between atoms: C_3  and  N_6
REMARK    6  A    between atoms: C_7  and  C_11
REMARK    7  A    between atoms: C_11  and  C_13
REMARK    8  A    between atoms: C_11  and  N_67
REMARK    9  A    between atoms: C_17  and  O_25
REMARK   10  A    between atoms: O_25  and  C_26
REMARK   11  A    between atoms: C_26  and  C_27
REMARK                            x       y       z     vdW  Elec       q    Type
REMARK                         _______ _______ _______ _____ _____    ______ ____
ROOT
ATOM      1  C   UNL     1      -2.550   0.937   0.062  0.00  0.00    +0.039 C 
ENDROOT
BRANCH   1   2
ATOM      2  C   UNL     1      -1.378   1.868   0.236  0.00  0.00    +0.011 A 
ATOM      3  C   UNL     1      -0.116   1.370   0.244  0.00  0.00    +0.017 A 
ATOM      4  C   UNL     1       1.002   2.301   0.408  0.00  0.00    +0.002 A 
ATOM      5  C   UNL     1       2.325   1.845   0.417  0.00  0.00    +0.055 A 
ATOM      6  C   UNL     1       3.356   2.750   0.575  0.00  0.00    +0.121 A 
ATOM      7  C   UNL     1       3.083   4.108   0.724  0.00  0.00    +0.047 A 
ATOM      8  C   UNL     1       1.785   4.568   0.717  0.00  0.00    +0.030 A 
ATOM      9  C   UNL     1       0.731   3.674   0.559  0.00  0.00    +0.049 A 
ATOM     10  N   UNL     1      -0.576   4.115   0.548  0.00  0.00    -0.322 N 
ATOM     11  H   UNL     1      -0.768   5.091   0.655  0.00  0.00    +0.169 HD
ATOM     12  C   UNL     1      -1.596   3.253   0.396  0.00  0.00    +0.251 A 
ATOM     13  O   UNL     1      -2.739   3.678   0.392  0.00  0.00    -0.268 OA
BRANCH   6  14
ATOM     14  O   UNL     1       4.643   2.313   0.584  0.00  0.00    -0.492 OA
BRANCH  14  15
ATOM     15  C   UNL     1       5.662   3.302   0.750  0.00  0.00    +0.225 C 
ATOM     16  C   UNL     1       7.035   2.626   0.736  0.00  0.00    +0.048 C 
ENDBRANCH  14  15
ENDBRANCH   6  14
ENDBRANCH   1   2
BRANCH   1  26
ATOM     17  C   UNL     1      -2.876   0.710   2.453  0.00  0.00    -0.072 C 
ATOM     18  C   UNL     1      -3.732   1.252   3.598  0.00  0.00    +0.017 C 
ATOM     19  C   UNL     1      -5.178   0.890   3.375  0.00  0.00    -0.048 A 
ATOM     20  C   UNL     1      -6.054   0.974   4.447  0.00  0.00    +0.004 A 
ATOM     21  C   UNL     1      -7.388   0.656   4.285  0.00  0.00    +0.000 A 
ATOM     22  C   UNL     1      -7.852   0.251   3.048  0.00  0.00    +0.000 A 
ATOM     23  C   UNL     1      -6.981   0.165   1.981  0.00  0.00    +0.002 A 
ATOM     24  C   UNL     1      -5.641   0.484   2.142  0.00  0.00    -0.061 A 
ATOM     25  C   UNL     1      -4.729   0.370   0.949  0.00  0.00    -0.041 C 
ATOM     26  N   UNL     1      -3.496   1.141   1.183  0.00  0.00    +0.392 N 
ATOM     27  H   UNL     1      -3.730   2.138   1.246  0.00  0.00    -0.080 HD
ENDBRANCH   1  26
BRANCH   1  29
ATOM     28  N   UNL     1      -3.276   0.475  -2.339  0.00  0.00    -0.225 N 
ATOM     29  C   UNL     1      -3.249   1.247  -1.236  0.00  0.00    +0.143 A 
ATOM     30  N   UNL     1      -3.953   2.318  -1.510  0.00  0.00    -0.115 NA
ATOM     31  N   UNL     1      -4.384   2.213  -2.720  0.00  0.00    -0.023 NA
ATOM     32  N   UNL     1      -3.979   1.100  -3.223  0.00  0.00    -0.043 NA
BRANCH  28  33
ATOM     33  C   UNL     1      -2.630  -0.829  -2.503  0.00  0.00    +0.061 C 
ATOM     34  C   UNL     1      -1.128  -0.691  -2.244  0.00  0.00    +0.036 C 
ATOM     35  C   UNL     1      -3.230  -1.825  -1.509  0.00  0.00    +0.036 C 
BRANCH  33  37
ATOM     36  C   UNL     1      -2.181  -2.696  -4.102  0.00  0.00    +0.006 C 
ATOM     37  C   UNL     1      -2.856  -1.333  -3.930  0.00  0.00    +0.026 C 
ENDBRANCH  33  37
ENDBRANCH  28  33
ENDBRANCH   1  29
TORSDOF 7
