REMARK  Name = ZINC43714172
REMARK  3 active torsions:
REMARK  status: ('A' for Active; 'I' for Inactive)
REMARK    1  A    between atoms: C_1  and  C_2
REMARK    2  A    between atoms: C_2  and  C_4
REMARK    3  A    between atoms: C_2  and  N_10
REMARK                            x       y       z     vdW  Elec       q    Type
REMARK                         _______ _______ _______ _____ _____    ______ ____
ROOT
ATOM      1  N   UNL     1      -1.394  -0.105   0.434  0.00  0.00    -0.291 N 
ATOM      2  C   UNL     1      -2.272  -1.014  -0.285  0.00  0.00    +0.081 C 
ATOM      3  C   UNL     1      -1.977  -0.990  -1.784  0.00  0.00    +0.030 C 
ATOM      4  C   UNL     1      -2.808  -2.079  -2.474  0.00  0.00    +0.076 C 
ATOM      5  C   UNL     1      -4.263  -1.888  -2.110  0.00  0.00    +0.134 C 
ATOM      6  O   UNL     1      -5.114  -1.857  -2.965  0.00  0.00    -0.297 OA
ATOM      7  C   UNL     1      -4.630  -1.736  -0.648  0.00  0.00    +0.079 C 
ATOM      8  C   UNL     1      -3.736  -0.635  -0.062  0.00  0.00    +0.017 C 
ATOM      9  C   UNL     1      -3.991  -0.515   1.442  0.00  0.00    +0.015 C 
ATOM     10  C   UNL     1      -3.203   0.687   1.971  0.00  0.00    +0.096 C 
ATOM     11  C   UNL     1      -1.788   0.639   1.471  0.00  0.00    +0.216 C 
ATOM     12  O   UNL     1      -0.958   1.317   2.038  0.00  0.00    -0.276 OA
ENDROOT
BRANCH   1  14
ATOM     13  C   UNL     1       0.354   1.464  -0.249  0.00  0.00    +0.033 C 
ATOM     14  C   UNL     1       0.002  -0.004   0.002  0.00  0.00    +0.103 C 
BRANCH  14  15
ATOM     15  C   UNL     1       0.902  -0.560   1.076  0.00  0.00    -0.027 A 
ATOM     16  C   UNL     1       0.397  -0.816   2.337  0.00  0.00    +0.005 A 
ATOM     17  C   UNL     1       1.222  -1.325   3.322  0.00  0.00    +0.000 A 
ATOM     18  C   UNL     1       2.552  -1.580   3.045  0.00  0.00    +0.000 A 
ATOM     19  C   UNL     1       3.057  -1.325   1.784  0.00  0.00    +0.000 A 
ATOM     20  C   UNL     1       2.231  -0.819   0.798  0.00  0.00    +0.005 A 
ENDBRANCH  14  15
ENDBRANCH   1  14
TORSDOF 2
