REMARK  Name = ZINC23259675
REMARK  10 active torsions:
REMARK  status: ('A' for Active; 'I' for Inactive)
REMARK    1  A    between atoms: C_1  and  C_2
REMARK    2  A    between atoms: C_6  and  N_9
REMARK    3  A    between atoms: C_7  and  C_8
REMARK    4  A    between atoms: C_10  and  C_12
REMARK    5  A    between atoms: C_12  and  N_13
REMARK    6  A    between atoms: N_16  and  C_19
REMARK    7  A    between atoms: C_19  and  C_20
REMARK    8  A    between atoms: C_20  and  C_21
REMARK    9  A    between atoms: N_23  and  C_24
REMARK   10  A    between atoms: C_25  and  C_33
REMARK                            x       y       z     vdW  Elec       q    Type
REMARK                         _______ _______ _______ _____ _____    ______ ____
ROOT
ATOM      1  N   UNL     1      -0.208  -6.339   3.410  0.00  0.00    -0.298 NA
ATOM      2  C   UNL     1       1.044  -6.832   2.818  0.00  0.00    +0.066 C 
ATOM      3  C   UNL     1       0.900  -8.319   2.491  0.00  0.00    -0.063 C 
ATOM      4  N   UNL     1       0.594  -9.063   3.720  0.00  0.00    +0.382 N 
ATOM      5  C   UNL     1      -0.672  -8.577   4.286  0.00  0.00    -0.063 C 
ATOM      6  C   UNL     1      -0.540  -7.091   4.628  0.00  0.00    +0.066 C 
ATOM      7  H   UNL     1       1.336  -8.926   4.390  0.00  0.00    -0.082 HD
ENDROOT
BRANCH   1   8
ATOM      8  C   UNL     1      -0.129  -4.898   3.686  0.00  0.00    +0.180 C 
BRANCH   8  10
ATOM      9  N   UNL     1       0.052  -2.797   2.393  0.00  0.00    -0.284 N 
ATOM     10  C   UNL     1      -0.031  -4.143   2.385  0.00  0.00    +0.231 C 
ATOM     11  O   UNL     1      -0.028  -4.745   1.333  0.00  0.00    -0.274 OA
ATOM     12  H   UNL     1       0.130  -2.321   3.234  0.00  0.00    +0.155 HD
BRANCH   9  18
ATOM     13  C   UNL     1       1.206   1.236  -0.172  0.00  0.00    +0.044 C 
ATOM     14  C   UNL     1       0.577  -0.131  -0.084  0.00  0.00    -0.046 A 
ATOM     15  C   UNL     1      -0.027  -0.686  -1.198  0.00  0.00    +0.004 A 
ATOM     16  C   UNL     1      -0.605  -1.940  -1.122  0.00  0.00    +0.002 A 
ATOM     17  C   UNL     1      -0.580  -2.642   0.067  0.00  0.00    +0.023 A 
ATOM     18  C   UNL     1       0.026  -2.088   1.187  0.00  0.00    +0.037 A 
ATOM     19  C   UNL     1       0.610  -0.831   1.106  0.00  0.00    -0.026 A 
ATOM     20  C   UNL     1       1.274  -0.228   2.317  0.00  0.00    +0.046 C 
ENDBRANCH   9  18
ENDBRANCH   8  10
ENDBRANCH   1   8
BRANCH   4  21
ATOM     21  C   UNL     1       0.473 -10.494   3.409  0.00  0.00    -0.069 C 
BRANCH  21  22
ATOM     22  C   UNL     1       0.278 -11.283   4.706  0.00  0.00    +0.077 C 
BRANCH  22  23
ATOM     23  C   UNL     1       0.154 -12.750   4.387  0.00  0.00    +0.216 C 
ATOM     24  O   UNL     1       0.216 -13.128   3.236  0.00  0.00    -0.276 OA
ATOM     25  N   UNL     1      -0.025 -13.643   5.380  0.00  0.00    -0.279 N 
ATOM     26  H   UNL     1      -0.075 -13.341   6.301  0.00  0.00    +0.155 HD
BRANCH  25  27
ATOM     27  C   UNL     1      -0.139 -14.995   5.087  0.00  0.00    +0.090 A 
ATOM     28  C   UNL     1      -0.331 -16.045   5.970  0.00  0.00    +0.084 A 
ATOM     29  C   UNL     1      -0.418 -17.380   5.406  0.00  0.00    -0.018 A 
ATOM     30  C   UNL     1      -0.298 -17.420   4.060  0.00  0.00    -0.004 A 
ATOM     31  S   UNL     1      -0.084 -15.732   3.579  0.00  0.00    -0.077 S 
ATOM     32  C   UNL     1      -0.343 -18.638   3.189  0.00  0.00    +0.043 C 
ATOM     33  C   UNL     1      -0.170 -19.875   4.082  0.00  0.00    +0.005 C 
ATOM     34  C   UNL     1      -1.113 -19.757   5.282  0.00  0.00    +0.005 C 
ATOM     35  C   UNL     1      -0.628 -18.649   6.219  0.00  0.00    +0.037 C 
BRANCH  28  36
ATOM     36  C   UNL     1      -0.437 -15.823   7.380  0.00  0.00    +0.102 C 
ATOM     37  N   UNL     1      -0.522 -15.647   8.499  0.00  0.00    -0.191 NA
ENDBRANCH  28  36
ENDBRANCH  25  27
ENDBRANCH  22  23
ENDBRANCH  21  22
ENDBRANCH   4  21
TORSDOF 8
