REMARK  Name = ZINC41157600
REMARK  8 active torsions:
REMARK  status: ('A' for Active; 'I' for Inactive)
REMARK    1  A    between atoms: C_1  and  C_2
REMARK    2  A    between atoms: C_2  and  C_3
REMARK    3  A    between atoms: C_2  and  C_4
REMARK    4  A    between atoms: C_2  and  C_5
REMARK    5  A    between atoms: C_8  and  S_11
REMARK    6  A    between atoms: S_11  and  N_14
REMARK    7  A    between atoms: N_14  and  C_15
REMARK    8  A    between atoms: C_15  and  C_16
REMARK                            x       y       z     vdW  Elec       q    Type
REMARK                         _______ _______ _______ _____ _____    ______ ____
ROOT
ATOM      1  N   UNL     1       2.580  -0.816  -6.143  0.00  0.00    -0.185 NA
ATOM      2  H   UNL     1       2.065  -1.043  -6.934  0.00  0.00    +0.148 HD
ENDROOT
BRANCH   1   3
ATOM      3  S   UNL     1       2.826  -1.950  -4.962  0.00  0.00    +0.059 S 
ATOM      4  O   UNL     1       4.217  -1.937  -4.669  0.00  0.00    -0.153 OA
ATOM      5  O   UNL     1       2.148  -3.127  -5.380  0.00  0.00    -0.153 OA
BRANCH   3   9
ATOM      6  C   UNL     1       0.707  -0.490  -1.238  0.00  0.00    -0.042 A 
ATOM      7  C   UNL     1       0.036  -1.284  -2.148  0.00  0.00    +0.006 A 
ATOM      8  C   UNL     1       0.683  -1.730  -3.286  0.00  0.00    +0.029 A 
ATOM      9  C   UNL     1       2.001  -1.381  -3.513  0.00  0.00    +0.105 A 
ATOM     10  C   UNL     1       2.672  -0.586  -2.603  0.00  0.00    +0.029 A 
ATOM     11  C   UNL     1       2.024  -0.137  -1.467  0.00  0.00    +0.006 A 
BRANCH   6  13
ATOM     12  C   UNL     1      -0.019   1.526   0.010  0.00  0.00    +0.015 C 
ATOM     13  C   UNL     1       0.002  -0.004   0.002  0.00  0.00    -0.013 C 
ATOM     14  C   UNL     1       0.742  -0.511   1.242  0.00  0.00    +0.015 C 
ATOM     15  C   UNL     1      -1.433  -0.534   0.013  0.00  0.00    +0.015 C 
ENDBRANCH   6  13
ENDBRANCH   3   9
ENDBRANCH   1   3
BRANCH   1  16
ATOM     16  C   UNL     1       3.138   0.530  -5.994  0.00  0.00    +0.146 C 
BRANCH  16  17
ATOM     17  C   UNL     1       3.100   1.239  -7.323  0.00  0.00    +0.033 A 
ATOM     18  C   UNL     1       2.061   2.059  -7.621  0.00  0.00    +0.020 A 
ATOM     19  C   UNL     1       2.054   2.734  -8.920  0.00  0.00    -0.001 A 
ATOM     20  C   UNL     1       1.010   3.592  -9.284  0.00  0.00    +0.010 A 
ATOM     21  C   UNL     1       1.033   4.207 -10.504  0.00  0.00    +0.001 A 
ATOM     22  C   UNL     1       2.083   3.988 -11.386  0.00  0.00    +0.002 A 
ATOM     23  C   UNL     1       3.121   3.147 -11.049  0.00  0.00    +0.026 A 
ATOM     24  C   UNL     1       3.120   2.510  -9.812  0.00  0.00    +0.049 A 
ATOM     25  N   UNL     1       4.146   1.664  -9.448  0.00  0.00    -0.322 N 
ATOM     26  H   UNL     1       4.880   1.511 -10.064  0.00  0.00    +0.169 HD
ATOM     27  C   UNL     1       4.147   1.053  -8.251  0.00  0.00    +0.254 A 
ATOM     28  O   UNL     1       5.073   0.316  -7.961  0.00  0.00    -0.268 OA
ENDBRANCH  16  17
ENDBRANCH   1  16
TORSDOF 5
