REMARK  Name = ZINC07649686
REMARK  9 active torsions:
REMARK  status: ('A' for Active; 'I' for Inactive)
REMARK    1  A    between atoms: C_1  and  C_2
REMARK    2  A    between atoms: C_2  and  C_4
REMARK    3  A    between atoms: C_2  and  O_18
REMARK    4  A    between atoms: N_6  and  N_7
REMARK    5  A    between atoms: C_8  and  C_9
REMARK    6  A    between atoms: C_12  and  O_16
REMARK    7  A    between atoms: C_13  and  O_15
REMARK    8  A    between atoms: O_16  and  C_17
REMARK    9  A    between atoms: O_18  and  C_19
REMARK                            x       y       z     vdW  Elec       q    Type
REMARK                         _______ _______ _______ _____ _____    ______ ____
ROOT
ATOM      1  C   UNL     1       6.935   3.997   0.876  0.00  0.00    +0.273 C 
ATOM      2  O   UNL     1       6.647   5.088   1.321  0.00  0.00    -0.270 OA
ATOM      3  N   UNL     1       8.159   3.480   1.098  0.00  0.00    -0.204 N 
ATOM      4  H   UNL     1       8.389   2.607   0.742  0.00  0.00    +0.177 HD
ENDROOT
BRANCH   1   6
ATOM      5  C   UNL     1       6.473   2.958  -1.327  0.00  0.00    +0.062 C 
ATOM      6  C   UNL     1       5.922   3.219   0.076  0.00  0.00    +0.257 C 
BRANCH   6   7
ATOM      7  O   UNL     1       4.711   3.971  -0.020  0.00  0.00    -0.480 OA
BRANCH   7   8
ATOM      8  C   UNL     1       3.565   3.271  -0.232  0.00  0.00    +0.122 A 
ATOM      9  C   UNL     1       3.630   1.892  -0.457  0.00  0.00    +0.046 A 
ATOM     10  C   UNL     1       2.502   1.165  -0.672  0.00  0.00    +0.012 A 
ATOM     11  C   UNL     1       1.249   1.804  -0.669  0.00  0.00    -0.018 A 
ATOM     12  C   UNL     1       0.063   1.083  -0.888  0.00  0.00    +0.008 A 
ATOM     13  C   UNL     1      -1.132   1.735  -0.883  0.00  0.00    +0.001 A 
ATOM     14  C   UNL     1      -1.200   3.108  -0.654  0.00  0.00    +0.001 A 
ATOM     15  C   UNL     1      -0.072   3.839  -0.439  0.00  0.00    +0.008 A 
ATOM     16  C   UNL     1       1.181   3.202  -0.442  0.00  0.00    -0.014 A 
ATOM     17  C   UNL     1       2.366   3.924  -0.223  0.00  0.00    +0.054 A 
ENDBRANCH   7   8
ENDBRANCH   6   7
ENDBRANCH   1   6
BRANCH   3  18
ATOM     18  N   UNL     1       9.101   4.203   1.842  0.00  0.00    -0.188 NA
ATOM     19  C   UNL     1      10.280   3.705   2.055  0.00  0.00    +0.138 C 
BRANCH  19  20
ATOM     20  C   UNL     1      11.271   4.466   2.838  0.00  0.00    -0.002 A 
ATOM     21  C   UNL     1      10.944   5.726   3.346  0.00  0.00    +0.013 A 
ATOM     22  C   UNL     1      11.870   6.434   4.083  0.00  0.00    +0.050 A 
ATOM     23  C   UNL     1      13.131   5.903   4.313  0.00  0.00    +0.161 A 
ATOM     24  C   UNL     1      13.466   4.650   3.804  0.00  0.00    +0.159 A 
ATOM     25  C   UNL     1      12.541   3.932   3.069  0.00  0.00    +0.058 A 
BRANCH  24  26
ATOM     26  O   UNL     1      14.703   4.133   4.030  0.00  0.00    -0.503 OA
ATOM     27  H   UNL     1      15.356   4.364   3.355  0.00  0.00    +0.292 HD
ENDBRANCH  24  26
BRANCH  23  28
ATOM     28  O   UNL     1      14.042   6.607   5.035  0.00  0.00    -0.491 OA
ATOM     29  C   UNL     1      13.632   7.885   5.527  0.00  0.00    +0.277 C 
ENDBRANCH  23  28
ENDBRANCH  19  20
ENDBRANCH   3  18
TORSDOF 7
