REMARK  Name = ZINC03395925
REMARK  10 active torsions:
REMARK  status: ('A' for Active; 'I' for Inactive)
REMARK    1  A    between atoms: C_1  and  C_2
REMARK    2  A    between atoms: C_2  and  C_4
REMARK    3  A    between atoms: C_2  and  O_20
REMARK    4  A    between atoms: N_6  and  C_7
REMARK    5  A    between atoms: C_7  and  C_8
REMARK    6  A    between atoms: N_10  and  C_11
REMARK    7  A    between atoms: O_20  and  C_21
REMARK    8  A    between atoms: C_21  and  C_23
REMARK    9  A    between atoms: C_27  and  N_28
REMARK   10  A    between atoms: C_29  and  C_31
REMARK                            x       y       z     vdW  Elec       q    Type
REMARK                         _______ _______ _______ _____ _____    ______ ____
ROOT
ATOM      1  C   UNL     1      -5.870   5.415   1.175  0.00  0.00    +0.062 C 
ATOM      2  C   UNL     1      -4.360   5.164   1.188  0.00  0.00    +0.259 C 
ENDROOT
BRANCH   2   3
ATOM      3  C   UNL     1      -3.749   5.837   2.389  0.00  0.00    +0.254 C 
ATOM      4  O   UNL     1      -3.159   5.178   3.219  0.00  0.00    -0.272 OA
ATOM      5  N   UNL     1      -3.859   7.172   2.543  0.00  0.00    -0.304 N 
ATOM      6  H   UNL     1      -4.395   7.770   1.790  0.00  0.00    +0.149 HD
BRANCH   5   7
ATOM      7  C   UNL     1      -3.266   7.826   3.711  0.00  0.00    +0.200 C 
BRANCH   7   8
ATOM      8  C   UNL     1      -3.528   9.309   3.644  0.00  0.00    +0.234 C 
ATOM      9  O   UNL     1      -4.150   9.773   2.712  0.00  0.00    -0.274 OA
ATOM     10  N   UNL     1      -3.072  10.119   4.620  0.00  0.00    -0.282 N 
ATOM     11  H   UNL     1      -2.572   9.691   5.501  0.00  0.00    +0.155 HD
BRANCH  10  12
ATOM     12  C   UNL     1      -3.234  11.507   4.511  0.00  0.00    +0.072 A 
ATOM     13  C   UNL     1      -4.369  12.028   3.906  0.00  0.00    +0.029 A 
ATOM     14  C   UNL     1      -4.531  13.397   3.804  0.00  0.00    +0.043 A 
ATOM     15  C   UNL     1      -3.557  14.250   4.295  0.00  0.00    +0.161 A 
ATOM     16  C   UNL     1      -2.420  13.733   4.895  0.00  0.00    +0.195 A 
ATOM     17  C   UNL     1      -2.256  12.362   5.004  0.00  0.00    +0.182 A 
ATOM     18  F   UNL     1      -1.148  11.857   5.590  0.00  0.00    -0.200 F 
ATOM     19  F   UNL     1      -1.470  14.567   5.373  0.00  0.00    -0.199 F 
ATOM     20  F   UNL     1      -3.716  15.587   4.189  0.00  0.00    -0.202 F 
ENDBRANCH  10  12
ENDBRANCH   7   8
ENDBRANCH   5   7
ENDBRANCH   2   3
BRANCH   2  21
ATOM     21  O   UNL     1      -4.107   3.736   1.252  0.00  0.00    -0.449 OA
BRANCH  21  22
ATOM     22  C   UNL     1      -3.999   3.079   0.079  0.00  0.00    +0.343 C 
ATOM     23  O   UNL     1      -4.114   3.685  -0.970  0.00  0.00    -0.245 OA
BRANCH  22  24
ATOM     24  C   UNL     1      -3.744   1.637   0.068  0.00  0.00    +0.091 A 
ATOM     25  C   UNL     1      -4.837   0.678   0.066  0.00  0.00    -0.021 A 
ATOM     26  C   UNL     1      -4.463  -0.619   0.063  0.00  0.00    -0.004 A 
ATOM     27  S   UNL     1      -2.693  -0.581   0.054  0.00  0.00    -0.077 S 
ATOM     28  C   UNL     1      -2.450   1.134   0.054  0.00  0.00    +0.086 A 
ATOM     29  C   UNL     1      -5.361  -1.818   0.066  0.00  0.00    +0.043 C 
ATOM     30  C   UNL     1      -6.776  -1.361   0.451  0.00  0.00    +0.005 C 
ATOM     31  C   UNL     1      -7.141  -0.130  -0.382  0.00  0.00    +0.005 C 
ATOM     32  C   UNL     1      -6.309   1.071   0.072  0.00  0.00    +0.037 C 
BRANCH  28  33
ATOM     33  N   UNL     1      -1.254   1.835   0.049  0.00  0.00    -0.280 N 
ATOM     34  C   UNL     1      -0.083   1.168   0.042  0.00  0.00    +0.214 C 
ATOM     35  O   UNL     1      -0.075  -0.044   0.040  0.00  0.00    -0.276 OA
ATOM     36  C   UNL     1       1.218   1.930   0.030  0.00  0.00    +0.109 C 
ATOM     37  H   UNL     1      -1.261   2.935   0.051  0.00  0.00    +0.155 HD
ENDBRANCH  28  33
ENDBRANCH  22  24
ENDBRANCH  21  22
ENDBRANCH   2  21
TORSDOF 8
