REMARK  Name = ZINC05396385
REMARK  12 active torsions:
REMARK  status: ('A' for Active; 'I' for Inactive)
REMARK    1  A    between atoms: C_1  and  N_2
REMARK    2  A    between atoms: N_2  and  C_3
REMARK    3  A    between atoms: N_2  and  C_4
REMARK    4  A    between atoms: C_7  and  C_10
REMARK    5  A    between atoms: C_10  and  N_66
REMARK    6  A    between atoms: C_11  and  N_66
REMARK    7  A    between atoms: C_21  and  N_23
REMARK    8  A    between atoms: C_25  and  C_28
REMARK    9  A    between atoms: C_28  and  N_69
REMARK   10  A    between atoms: C_29  and  N_69
REMARK   11  A    between atoms: C_30  and  C_31
REMARK   12  A    between atoms: C_30  and  N_69
REMARK                            x       y       z     vdW  Elec       q    Type
REMARK                         _______ _______ _______ _____ _____    ______ ____
ROOT
ATOM      1  C   UNL     1      -0.013   1.086   0.008  0.00  0.00    -0.013 C 
ATOM      2  C   UNL     1      -0.639   1.625  -1.296  0.00  0.00    +0.147 C 
ATOM      3  O   UNL     1       0.485   1.891  -2.164  0.00  0.00    -0.373 OA
ATOM      4  C   UNL     1       1.487   2.480  -1.311  0.00  0.00    +0.172 C 
ATOM      5  C   UNL     1       1.429   1.647  -0.003  0.00  0.00    +0.137 C 
ATOM      6  O   UNL     1       2.342   0.557  -0.154  0.00  0.00    -0.373 OA
ATOM      7  C   UNL     1       3.234   0.796  -1.255  0.00  0.00    +0.189 C 
ATOM      8  C   UNL     1       2.887   2.162  -1.870  0.00  0.00    +0.165 C 
ENDROOT
BRANCH   8   9
ATOM      9  N   UNL     1       3.853   3.179  -1.446  0.00  0.00    -0.244 N 
ATOM     10  C   UNL     1       4.526   3.193  -0.272  0.00  0.00    +0.132 A 
ATOM     11  C   UNL     1       5.304   4.300  -0.297  0.00  0.00    +0.066 A 
ATOM     12  N   UNL     1       5.067   4.905  -1.466  0.00  0.00    -0.136 NA
ATOM     13  N   UNL     1       4.202   4.216  -2.124  0.00  0.00    -0.065 NA
BRANCH  11  14
ATOM     14  C   UNL     1       6.249   4.762   0.782  0.00  0.00    -0.019 C 
BRANCH  14  16
ATOM     15  C   UNL     1       7.676   2.818   0.562  0.00  0.00    -0.095 C 
ATOM     16  N   UNL     1       7.611   4.292   0.457  0.00  0.00    +0.384 N 
ATOM     17  H   UNL     1       7.839   4.567  -0.505  0.00  0.00    -0.081 HD
BRANCH  16  18
ATOM     18  C   UNL     1       8.591   4.907   1.377  0.00  0.00    -0.043 C 
BRANCH  18  19
ATOM     19  C   UNL     1       9.982   4.588   0.890  0.00  0.00    -0.064 A 
ATOM     20  C   UNL     1      10.632   3.458   1.348  0.00  0.00    +0.002 A 
ATOM     21  C   UNL     1      11.905   3.163   0.898  0.00  0.00    +0.000 A 
ATOM     22  C   UNL     1      12.532   4.004  -0.002  0.00  0.00    +0.000 A 
ATOM     23  C   UNL     1      11.884   5.138  -0.456  0.00  0.00    +0.000 A 
ATOM     24  C   UNL     1      10.608   5.429  -0.010  0.00  0.00    +0.002 A 
ENDBRANCH  18  19
ENDBRANCH  16  18
ENDBRANCH  14  16
ENDBRANCH  11  14
ENDBRANCH   8   9
BRANCH   1  25
ATOM     25  N   UNL     1      -0.746   1.591   1.184  0.00  0.00    +0.387 N 
ATOM     26  H   UNL     1      -0.105   1.648   1.984  0.00  0.00    -0.085 HD
ATOM     27  H   UNL     1      -1.117   2.526   0.975  0.00  0.00    -0.085 HD
BRANCH  25  28
ATOM     28  C   UNL     1      -1.863   0.687   1.518  0.00  0.00    -0.046 C 
BRANCH  28  32
ATOM     29  C   UNL     1      -3.933   2.220   4.929  0.00  0.00    +0.029 A 
ATOM     30  C   UNL     1      -4.321   2.600   3.650  0.00  0.00    +0.023 A 
ATOM     31  C   UNL     1      -3.650   2.102   2.550  0.00  0.00    +0.003 A 
ATOM     32  C   UNL     1      -2.593   1.228   2.721  0.00  0.00    -0.064 A 
ATOM     33  C   UNL     1      -2.207   0.844   3.992  0.00  0.00    +0.003 A 
ATOM     34  C   UNL     1      -2.870   1.342   5.096  0.00  0.00    +0.023 A 
BRANCH  29  36
ATOM     35  C   UNL     1      -5.731   3.647   5.864  0.00  0.00    +0.129 C 
ATOM     36  N   UNL     1      -4.610   2.721   6.043  0.00  0.00    -0.336 N 
ATOM     37  C   UNL     1      -4.199   2.320   7.391  0.00  0.00    +0.129 C 
ENDBRANCH  29  36
ENDBRANCH  28  32
ENDBRANCH  25  28
ENDBRANCH   1  25
TORSDOF 9
