REMARK  Name = ZINC39521096
REMARK  8 active torsions:
REMARK  status: ('A' for Active; 'I' for Inactive)
REMARK    1  A    between atoms: C_1  and  C_2
REMARK    2  A    between atoms: C_2  and  C_3
REMARK    3  A    between atoms: C_2  and  S_4
REMARK    4  A    between atoms: S_4  and  C_7
REMARK    5  A    between atoms: N_13  and  C_14
REMARK    6  A    between atoms: C_14  and  C_15
REMARK    7  A    between atoms: C_24  and  C_27
REMARK    8  A    between atoms: C_32  and  O_33
REMARK                            x       y       z     vdW  Elec       q    Type
REMARK                         _______ _______ _______ _____ _____    ______ ____
ROOT
ATOM      1  C   UNL     1      -2.016  -1.020  -1.832  0.00  0.00    +0.079 C 
ATOM      2  C   UNL     1      -3.450  -1.157  -1.314  0.00  0.00    +0.007 C 
ATOM      3  C   UNL     1      -4.119   0.220  -1.313  0.00  0.00    -0.001 C 
ATOM      4  C   UNL     1      -4.067   0.803  -2.728  0.00  0.00    -0.012 C 
ATOM      5  C   UNL     1      -2.611   0.868  -3.195  0.00  0.00    -0.062 C 
ATOM      6  N   UNL     1      -2.036  -0.483  -3.198  0.00  0.00    +0.401 N 
ATOM      7  C   UNL     1      -1.811   1.762  -2.246  0.00  0.00    -0.012 C 
ATOM      8  C   UNL     1      -0.356   1.832  -2.714  0.00  0.00    -0.001 C 
ATOM      9  C   UNL     1      -0.303   2.413  -4.128  0.00  0.00    +0.008 C 
ATOM     10  C   UNL     1      -1.102   1.518  -5.077  0.00  0.00    +0.021 C 
ATOM     11  C   UNL     1      -2.557   1.449  -4.609  0.00  0.00    -0.004 C 
ATOM     12  H   UNL     1      -1.093  -0.445  -3.556  0.00  0.00    -0.078 HD
ENDROOT
BRANCH  10  13
ATOM     13  C   UNL     1      -1.049   2.090  -6.471  0.00  0.00    -0.003 A 
ATOM     14  C   UNL     1      -2.121   2.808  -6.965  0.00  0.00    +0.007 A 
ATOM     15  C   UNL     1      -2.073   3.332  -8.243  0.00  0.00    +0.001 A 
ATOM     16  C   UNL     1      -0.953   3.139  -9.030  0.00  0.00    +0.004 A 
ATOM     17  C   UNL     1       0.122   2.422  -8.541  0.00  0.00    +0.046 A 
ATOM     18  C   UNL     1       0.079   1.900  -7.256  0.00  0.00    +0.120 A 
BRANCH  18  19
ATOM     19  O   UNL     1       1.137   1.199  -6.771  0.00  0.00    -0.506 OA
ATOM     20  H   UNL     1       1.056   0.241  -6.876  0.00  0.00    +0.292 HD
ENDBRANCH  18  19
ENDBRANCH  10  13
BRANCH   1  21
ATOM     21  S   UNL     1      -1.217  -2.649  -1.835  0.00  0.00    -0.041 S 
ATOM     22  O   UNL     1      -1.963  -3.514  -2.680  0.00  0.00    -0.176 OA
ATOM     23  O   UNL     1      -0.979  -3.035  -0.488  0.00  0.00    -0.176 OA
BRANCH  21  25
ATOM     24  C   UNL     1       1.149  -1.276  -1.800  0.00  0.00    +0.031 C 
ATOM     25  C   UNL     1       0.380  -2.310  -2.626  0.00  0.00    +0.122 C 
ATOM     26  C   UNL     1       1.193  -3.603  -2.708  0.00  0.00    +0.031 C 
ENDBRANCH  21  25
ENDBRANCH   1  21
BRANCH   6  27
ATOM     27  C   UNL     1      -2.847  -1.358  -4.055  0.00  0.00    -0.040 C 
BRANCH  27  28
ATOM     28  C   UNL     1      -2.051  -1.744  -5.275  0.00  0.00    -0.064 A 
ATOM     29  C   UNL     1      -2.136  -0.982  -6.425  0.00  0.00    +0.002 A 
ATOM     30  C   UNL     1      -1.405  -1.337  -7.544  0.00  0.00    +0.000 A 
ATOM     31  C   UNL     1      -0.590  -2.453  -7.513  0.00  0.00    +0.000 A 
ATOM     32  C   UNL     1      -0.505  -3.214  -6.362  0.00  0.00    +0.000 A 
ATOM     33  C   UNL     1      -1.232  -2.857  -5.242  0.00  0.00    +0.002 A 
ENDBRANCH  27  28
ENDBRANCH   6  27
TORSDOF 6
