REMARK  Name = ZINC04311770
REMARK  8 active torsions:
REMARK  status: ('A' for Active; 'I' for Inactive)
REMARK    1  A    between atoms: C_1  and  N_2
REMARK    2  A    between atoms: C_9  and  C_21
REMARK    3  A    between atoms: C_11  and  C_17
REMARK    4  A    between atoms: C_11  and  C_19
REMARK    5  A    between atoms: C_12  and  N_16
REMARK    6  A    between atoms: C_13  and  C_14
REMARK    7  A    between atoms: C_30  and  O_31
REMARK    8  A    between atoms: O_31  and  C_32
REMARK                            x       y       z     vdW  Elec       q    Type
REMARK                         _______ _______ _______ _____ _____    ______ ____
ROOT
ATOM      1  C   UNL     1       6.012  -2.919   0.891  0.00  0.00    +0.105 C 
ATOM      2  N   UNL     1       4.995  -3.091  -0.154  0.00  0.00    -0.301 NA
ATOM      3  C   UNL     1       5.204  -4.349  -0.893  0.00  0.00    +0.111 C 
ATOM      4  C   UNL     1       4.022  -4.537  -1.824  0.00  0.00    -0.007 C 
ATOM      5  C   UNL     1       3.433  -3.482  -2.357  0.00  0.00    -0.026 C 
ATOM      6  C   UNL     1       3.915  -2.075  -2.129  0.00  0.00    +0.044 C 
ATOM      7  C   UNL     1       4.996  -1.955  -1.080  0.00  0.00    +0.093 C 
ATOM      8  C   UNL     1       2.698  -1.207  -1.805  0.00  0.00    +0.072 C 
ATOM      9  C   UNL     1       1.761  -1.193  -3.013  0.00  0.00    +0.188 C 
ATOM     10  C   UNL     1       1.465  -2.577  -3.505  0.00  0.00    +0.054 C 
ATOM     11  C   UNL     1       2.238  -3.656  -3.221  0.00  0.00    +0.074 C 
ENDROOT
BRANCH   8  12
ATOM     12  C   UNL     1       1.975  -1.776  -0.612  0.00  0.00    +0.009 A 
ATOM     13  C   UNL     1       2.405  -1.467   0.689  0.00  0.00    -0.011 A 
ATOM     14  C   UNL     1       3.511  -0.628   0.910  0.00  0.00    +0.009 A 
ATOM     15  C   UNL     1       3.901  -0.350   2.184  0.00  0.00    +0.001 A 
ATOM     16  C   UNL     1       3.220  -0.886   3.276  0.00  0.00    +0.001 A 
ATOM     17  C   UNL     1       2.145  -1.701   3.100  0.00  0.00    +0.008 A 
ATOM     18  C   UNL     1       1.713  -2.011   1.799  0.00  0.00    -0.017 A 
ATOM     19  C   UNL     1       0.607  -2.851   1.579  0.00  0.00    +0.012 A 
ATOM     20  C   UNL     1       0.214  -3.131   0.308  0.00  0.00    +0.046 A 
ATOM     21  C   UNL     1       0.896  -2.595  -0.789  0.00  0.00    +0.124 A 
BRANCH  21  22
ATOM     22  O   UNL     1       0.480  -2.893  -2.048  0.00  0.00    -0.495 OA
ATOM     23  C   UNL     1      -0.662  -3.743  -2.170  0.00  0.00    +0.277 C 
ENDBRANCH  21  22
ENDBRANCH   8  12
BRANCH  10  24
ATOM     24  N   UNL     1       0.356  -2.764  -4.282  0.00  0.00    -0.358 N 
ATOM     25  H   UNL     1       0.111  -3.768  -4.659  0.00  0.00    +0.142 HD
ATOM     26  H   UNL     1      -0.291  -1.910  -4.531  0.00  0.00    +0.142 HD
ENDBRANCH  10  24
BRANCH  11  27
ATOM     27  C   UNL     1       1.906  -4.946  -3.747  0.00  0.00    +0.101 C 
ATOM     28  N   UNL     1       1.642  -5.969  -4.164  0.00  0.00    -0.191 NA
ENDBRANCH  11  27
BRANCH   9  29
ATOM     29  C   UNL     1       0.498  -0.539  -2.633  0.00  0.00    +0.091 C 
ATOM     30  N   UNL     1      -0.476  -0.034  -2.340  0.00  0.00    -0.194 NA
ENDBRANCH   9  29
BRANCH   9  31
ATOM     31  C   UNL     1       2.391  -0.424  -4.100  0.00  0.00    +0.091 C 
ATOM     32  N   UNL     1       2.877   0.169  -4.938  0.00  0.00    -0.194 NA
ENDBRANCH   9  31
TORSDOF 6
