REMARK  Name = ZINC19641497
REMARK  7 active torsions:
REMARK  status: ('A' for Active; 'I' for Inactive)
REMARK    1  A    between atoms: C_1  and  C_2
REMARK    2  A    between atoms: C_9  and  N_14
REMARK    3  A    between atoms: C_10  and  C_11
REMARK    4  A    between atoms: C_15  and  C_17
REMARK    5  A    between atoms: C_17  and  N_18
REMARK    6  A    between atoms: N_21  and  C_24
REMARK    7  A    between atoms: C_24  and  C_25
REMARK                            x       y       z     vdW  Elec       q    Type
REMARK                         _______ _______ _______ _____ _____    ______ ____
ROOT
ATOM      1  N   UNL     1       1.942  -5.826   1.699  0.00  0.00    -0.278 N 
ATOM      2  C   UNL     1       2.253  -6.086   2.984  0.00  0.00    +0.232 C 
ATOM      3  O   UNL     1       2.232  -5.193   3.805  0.00  0.00    -0.274 OA
ATOM      4  H   UNL     1       1.959  -6.540   1.042  0.00  0.00    +0.155 HD
ENDROOT
BRANCH   1  12
ATOM      5  C   UNL     1      -0.019   1.526   0.010  0.00  0.00    +0.008 C 
ATOM      6  C   UNL     1       0.002  -0.004   0.002  0.00  0.00    -0.009 C 
ATOM      7  C   UNL     1       0.724  -0.500  -1.254  0.00  0.00    +0.008 C 
ATOM      8  C   UNL     1       0.537  -2.012  -1.399  0.00  0.00    +0.037 C 
ATOM      9  C   UNL     1       0.935  -2.680  -0.091  0.00  0.00    -0.023 A 
ATOM     10  C   UNL     1       1.019  -1.977   1.059  0.00  0.00    -0.004 A 
ATOM     11  S   UNL     1       1.508  -3.164   2.276  0.00  0.00    -0.077 S 
ATOM     12  C   UNL     1       1.599  -4.539   1.315  0.00  0.00    +0.084 A 
ATOM     13  C   UNL     1       1.254  -4.090   0.050  0.00  0.00    +0.068 A 
ATOM     14  C   UNL     1       0.750  -0.515   1.242  0.00  0.00    +0.046 C 
BRANCH  13  15
ATOM     15  C   UNL     1       1.212  -5.001  -1.099  0.00  0.00    +0.244 C 
ATOM     16  O   UNL     1       2.208  -5.170  -1.778  0.00  0.00    -0.270 OA
ATOM     17  N   UNL     1       0.071  -5.651  -1.402  0.00  0.00    -0.325 N 
ATOM     18  H   UNL     1      -0.722  -5.516  -0.860  0.00  0.00    +0.145 HD
ATOM     19  H   UNL     1       0.043  -6.254  -2.161  0.00  0.00    +0.145 HD
ENDBRANCH  13  15
ENDBRANCH   1  12
BRANCH   2  20
ATOM     20  C   UNL     1       2.626  -7.485   3.402  0.00  0.00    +0.180 C 
BRANCH  20  21
ATOM     21  N   UNL     1       2.918  -7.505   4.841  0.00  0.00    -0.298 NA
ATOM     22  C   UNL     1       1.709  -7.221   5.628  0.00  0.00    +0.066 C 
ATOM     23  C   UNL     1       2.067  -7.193   7.115  0.00  0.00    -0.063 C 
ATOM     24  N   UNL     1       2.634  -8.490   7.508  0.00  0.00    +0.384 N 
ATOM     25  C   UNL     1       3.854  -8.748   6.731  0.00  0.00    -0.063 C 
ATOM     26  C   UNL     1       3.511  -8.789   5.241  0.00  0.00    +0.066 C 
ATOM     27  H   UNL     1       1.961  -9.219   7.328  0.00  0.00    -0.081 HD
BRANCH  24  28
ATOM     28  C   UNL     1       2.961  -8.468   8.940  0.00  0.00    -0.043 C 
BRANCH  28  29
ATOM     29  C   UNL     1       3.428  -9.835   9.370  0.00  0.00    -0.064 A 
ATOM     30  C   UNL     1       2.512 -10.766   9.823  0.00  0.00    +0.004 A 
ATOM     31  C   UNL     1       2.939 -12.020  10.217  0.00  0.00    +0.038 A 
ATOM     32  C   UNL     1       4.284 -12.344  10.157  0.00  0.00    +0.123 A 
ATOM     33  C   UNL     1       5.200 -11.410   9.703  0.00  0.00    +0.038 A 
ATOM     34  C   UNL     1       4.770 -10.159   9.304  0.00  0.00    +0.004 A 
ATOM     35  F   UNL     1       4.702 -13.569  10.542  0.00  0.00    -0.205 F 
ENDBRANCH  28  29
ENDBRANCH  24  28
ENDBRANCH  20  21
ENDBRANCH   2  20
TORSDOF 6
