REMARK  Name = ZINC02308653
REMARK  7 active torsions:
REMARK  status: ('A' for Active; 'I' for Inactive)
REMARK    1  A    between atoms: C_1  and  C_2
REMARK    2  A    between atoms: C_3  and  C_27
REMARK    3  A    between atoms: C_4  and  C_21
REMARK    4  A    between atoms: C_10  and  C_11
REMARK    5  A    between atoms: C_15  and  O_17
REMARK    6  A    between atoms: C_27  and  O_29
REMARK    7  A    between atoms: O_29  and  C_30
REMARK                            x       y       z     vdW  Elec       q    Type
REMARK                         _______ _______ _______ _____ _____    ______ ____
ROOT
ATOM      1  C   UNL     1      -1.631  -3.064  -1.924  0.00  0.00    +0.066 C 
ATOM      2  C   UNL     1      -0.495  -2.153  -1.536  0.00  0.00    +0.053 C 
ATOM      3  C   UNL     1       0.760  -2.668  -1.372  0.00  0.00    +0.085 C 
ATOM      4  C   UNL     1       1.872  -1.722  -0.981  0.00  0.00    +0.162 C 
ATOM      5  N   UNL     1       1.512  -0.287  -0.804  0.00  0.00    -0.275 N 
ATOM      6  C   UNL     1       2.353   0.698  -0.462  0.00  0.00    +0.268 A 
ATOM      7  O   UNL     1       3.533   0.475  -0.263  0.00  0.00    -0.266 OA
ATOM      8  C   UNL     1       1.807   2.058  -0.334  0.00  0.00    +0.081 A 
ATOM      9  C   UNL     1       2.438   3.213  -0.005  0.00  0.00    +0.028 C 
ATOM     10  S   UNL     1       0.089   1.776  -0.731  0.00  0.00    -0.046 S 
ATOM     11  C   UNL     1       0.188   0.020  -1.018  0.00  0.00    +0.178 A 
ATOM     12  N   UNL     1      -0.722  -0.858  -1.355  0.00  0.00    -0.228 NA
ENDROOT
BRANCH   9  13
ATOM     13  C   UNL     1       1.723   4.494  -0.102  0.00  0.00    -0.020 A 
ATOM     14  C   UNL     1       0.461   4.551  -0.705  0.00  0.00    +0.008 A 
ATOM     15  C   UNL     1      -0.208   5.754  -0.788  0.00  0.00    +0.004 A 
ATOM     16  C   UNL     1       0.369   6.908  -0.289  0.00  0.00    +0.045 A 
ATOM     17  C   UNL     1       1.623   6.864   0.306  0.00  0.00    +0.117 A 
ATOM     18  C   UNL     1       2.304   5.662   0.402  0.00  0.00    +0.053 A 
BRANCH  17  19
ATOM     19  O   UNL     1       2.184   8.002   0.794  0.00  0.00    -0.507 OA
ATOM     20  H   UNL     1       2.723   8.482   0.151  0.00  0.00    +0.292 HD
ENDBRANCH  17  19
ENDBRANCH   9  13
BRANCH   4  21
ATOM     21  C   UNL     1       2.943  -1.804  -2.039  0.00  0.00    -0.020 A 
ATOM     22  C   UNL     1       2.791  -1.120  -3.230  0.00  0.00    +0.006 A 
ATOM     23  C   UNL     1       3.776  -1.191  -4.198  0.00  0.00    +0.000 A 
ATOM     24  C   UNL     1       4.907  -1.955  -3.979  0.00  0.00    +0.000 A 
ATOM     25  C   UNL     1       5.056  -2.643  -2.789  0.00  0.00    +0.000 A 
ATOM     26  C   UNL     1       4.074  -2.568  -1.819  0.00  0.00    +0.006 A 
ENDBRANCH   4  21
BRANCH   3  27
ATOM     27  C   UNL     1       1.010  -4.038  -1.560  0.00  0.00    +0.339 C 
ATOM     28  O   UNL     1       0.100  -4.785  -1.874  0.00  0.00    -0.245 OA
BRANCH  27  29
ATOM     29  O   UNL     1       2.258  -4.526  -1.393  0.00  0.00    -0.465 OA
ATOM     30  C   UNL     1       2.439  -5.928  -1.600  0.00  0.00    +0.280 C 
ENDBRANCH  27  29
ENDBRANCH   3  27
TORSDOF 5
