REMARK  Name = ZINC24959945
REMARK  8 active torsions:
REMARK  status: ('A' for Active; 'I' for Inactive)
REMARK    1  A    between atoms: C_1  and  C_2
REMARK    2  A    between atoms: C_2  and  C_4
REMARK    3  A    between atoms: C_2  and  N_13
REMARK    4  A    between atoms: N_13  and  C_14
REMARK    5  A    between atoms: C_15  and  C_17
REMARK    6  A    between atoms: C_18  and  C_19
REMARK    7  A    between atoms: C_24  and  O_25
REMARK    8  A    between atoms: O_25  and  C_26
REMARK                            x       y       z     vdW  Elec       q    Type
REMARK                         _______ _______ _______ _____ _____    ______ ____
ROOT
ATOM      1  N   UNL     1      -1.602   5.715  -1.012  0.00  0.00    -0.292 N 
ATOM      2  C   UNL     1      -2.929   5.100  -0.929  0.00  0.00    +0.133 C 
ATOM      3  C   UNL     1      -1.297   6.522  -2.048  0.00  0.00    +0.240 C 
ATOM      4  O   UNL     1      -0.195   7.033  -2.117  0.00  0.00    -0.271 OA
ENDROOT
BRANCH   1   6
ATOM      5  C   UNL     1      -1.206   5.781   1.400  0.00  0.00    +0.035 C 
ATOM      6  C   UNL     1      -0.607   5.455   0.031  0.00  0.00    +0.129 C 
BRANCH   6   7
ATOM      7  C   UNL     1      -0.206   4.003  -0.009  0.00  0.00    +0.100 A 
ATOM      8  N   UNL     1       0.994   3.495  -0.031  0.00  0.00    -0.242 NA
ATOM      9  C   UNL     1       1.219   2.166  -0.067  0.00  0.00    +0.079 A 
ATOM     10  C   UNL     1       2.448   1.470  -0.095  0.00  0.00    +0.029 A 
ATOM     11  C   UNL     1       2.476   0.111  -0.131  0.00  0.00    +0.002 A 
ATOM     12  C   UNL     1       1.310  -0.642  -0.142  0.00  0.00    +0.001 A 
ATOM     13  C   UNL     1       0.087   0.001  -0.116  0.00  0.00    +0.017 A 
ATOM     14  C   UNL     1       0.048   1.374  -0.080  0.00  0.00    +0.039 A 
ATOM     15  S   UNL     1      -1.233   2.603  -0.045  0.00  0.00    -0.070 S 
ENDBRANCH   6   7
ENDBRANCH   1   6
BRANCH   3  16
ATOM     16  C   UNL     1      -2.290   6.782  -3.090  0.00  0.00    +0.068 C 
ATOM     17  C   UNL     1      -1.985   7.590  -4.127  0.00  0.00    +0.016 C 
BRANCH  17  18
ATOM     18  C   UNL     1      -2.983   7.851  -5.173  0.00  0.00    +0.017 A 
ATOM     19  C   UNL     1      -4.252   7.266  -5.099  0.00  0.00    +0.011 A 
ATOM     20  C   UNL     1      -5.182   7.516  -6.083  0.00  0.00    +0.001 A 
ATOM     21  C   UNL     1      -4.868   8.346  -7.147  0.00  0.00    +0.004 A 
ATOM     22  C   UNL     1      -3.620   8.931  -7.235  0.00  0.00    +0.046 A 
ATOM     23  C   UNL     1      -2.672   8.695  -6.252  0.00  0.00    +0.134 A 
BRANCH  23  24
ATOM     24  O   UNL     1      -1.447   9.273  -6.333  0.00  0.00    -0.434 OA
BRANCH  24  25
ATOM     25  C   UNL     1      -1.203  10.119  -7.459  0.00  0.00    +0.541 C 
ATOM     26  F   UNL     1      -1.349   9.381  -8.638  0.00  0.00    -0.166 F 
ATOM     27  F   UNL     1      -2.118  11.177  -7.454  0.00  0.00    -0.166 F 
ENDBRANCH  24  25
ENDBRANCH  23  24
ENDBRANCH  17  18
ENDBRANCH   3  16
TORSDOF 6
