REMARK  Name = ZINC13804269
REMARK  7 active torsions:
REMARK  status: ('A' for Active; 'I' for Inactive)
REMARK    1  A    between atoms: C_1  and  C_2
REMARK    2  A    between atoms: C_2  and  C_3
REMARK    3  A    between atoms: C_8  and  N_9
REMARK    4  A    between atoms: C_10  and  C_12
REMARK    5  A    between atoms: N_14  and  C_15
REMARK    6  A    between atoms: C_15  and  C_16
REMARK    7  A    between atoms: C_16  and  C_21
REMARK                            x       y       z     vdW  Elec       q    Type
REMARK                         _______ _______ _______ _____ _____    ______ ____
ROOT
ATOM      1  C   UNL     1      -1.767  -1.852   1.971  0.00  0.00    +0.299 C 
ATOM      2  O   UNL     1      -2.646  -1.928   2.804  0.00  0.00    -0.265 OA
ATOM      3  N   UNL     1      -1.750  -0.822   1.102  0.00  0.00    -0.307 N 
ATOM      4  H   UNL     1      -1.047  -0.761   0.436  0.00  0.00    +0.149 HD
ENDROOT
BRANCH   1   6
ATOM      5  N   UNL     1      -0.722  -3.929   2.778  0.00  0.00    -0.278 N 
ATOM      6  C   UNL     1      -0.704  -2.899   1.909  0.00  0.00    +0.303 C 
ATOM      7  O   UNL     1       0.175  -2.823   1.076  0.00  0.00    -0.265 OA
ATOM      8  H   UNL     1      -1.376  -3.949   3.494  0.00  0.00    +0.155 HD
BRANCH   5  14
ATOM      9  C   UNL     1       0.547  -5.737   3.752  0.00  0.00    -0.026 A 
ATOM     10  C   UNL     1       1.460  -6.765   3.619  0.00  0.00    +0.005 A 
ATOM     11  C   UNL     1       2.031  -7.029   2.388  0.00  0.00    +0.000 A 
ATOM     12  C   UNL     1       1.690  -6.267   1.286  0.00  0.00    +0.002 A 
ATOM     13  C   UNL     1       0.774  -5.241   1.410  0.00  0.00    +0.023 A 
ATOM     14  C   UNL     1       0.202  -4.969   2.647  0.00  0.00    +0.037 A 
BRANCH   9  16
ATOM     15  C   UNL     1      -1.421  -6.170   5.197  0.00  0.00    +0.009 C 
ATOM     16  C   UNL     1      -0.075  -5.450   5.094  0.00  0.00    +0.033 C 
ENDBRANCH   9  16
ENDBRANCH   5  14
ENDBRANCH   1   6
BRANCH   3  17
ATOM     17  C   UNL     1      -2.792   0.206   1.163  0.00  0.00    +0.116 C 
BRANCH  17  18
ATOM     18  C   UNL     1      -2.613   1.183  -0.001  0.00  0.00    +0.017 C 
ATOM     19  C   UNL     1      -2.888   0.468  -1.339  0.00  0.00    +0.013 C 
ATOM     20  C   UNL     1      -4.370   0.797  -1.648  0.00  0.00    +0.001 C 
ATOM     21  C   UNL     1      -4.502   2.264  -1.170  0.00  0.00    +0.001 C 
ATOM     22  C   UNL     1      -3.640   2.325   0.107  0.00  0.00    +0.013 C 
BRANCH  18  23
ATOM     23  C   UNL     1      -1.214   1.744   0.008  0.00  0.00    -0.003 A 
ATOM     24  C   UNL     1      -0.618   2.537   0.931  0.00  0.00    +0.012 A 
ATOM     25  C   UNL     1       0.692   2.930   0.732  0.00  0.00    +0.008 A 
ATOM     26  C   UNL     1       1.340   2.516  -0.384  0.00  0.00    +0.045 A 
ATOM     27  S   UNL     1       0.086   1.539  -1.198  0.00  0.00    -0.101 S 
ENDBRANCH  18  23
ENDBRANCH  17  18
ENDBRANCH   3  17
TORSDOF 6
