REMARK  Name = ZINC09090032
REMARK  5 active torsions:
REMARK  status: ('A' for Active; 'I' for Inactive)
REMARK    1  A    between atoms: C_1  and  O_2
REMARK    2  A    between atoms: O_2  and  C_3
REMARK    3  A    between atoms: C_8  and  O_9
REMARK    4  A    between atoms: O_9  and  C_10
REMARK    5  A    between atoms: C_12  and  C_22
REMARK                            x       y       z     vdW  Elec       q    Type
REMARK                         _______ _______ _______ _____ _____    ______ ____
ROOT
ATOM      1  C   UNL     1      -1.202  -0.638   0.010  0.00  0.00    +0.162 A 
ATOM      2  C   UNL     1      -2.368   0.101   0.019  0.00  0.00    +0.064 A 
ATOM      3  C   UNL     1      -3.597  -0.556   0.029  0.00  0.00    +0.069 A 
ATOM      4  C   UNL     1      -3.648  -1.961   0.026  0.00  0.00    +0.063 A 
ATOM      5  C   UNL     1      -2.470  -2.693   0.017  0.00  0.00    +0.076 A 
ATOM      6  C   UNL     1      -1.252  -2.034   0.003  0.00  0.00    +0.163 A 
ATOM      7  N   UNL     1      -4.887  -2.581   0.034  0.00  0.00    -0.286 N 
ATOM      8  C   UNL     1      -4.960  -4.047  -0.029  0.00  0.00    +0.210 C 
ATOM      9  N   UNL     1      -6.197  -4.476   0.638  0.00  0.00    -0.293 N 
ATOM     10  C   UNL     1      -7.333  -3.743   0.412  0.00  0.00    +0.183 C 
ATOM     11  N   UNL     1      -7.231  -2.453   0.154  0.00  0.00    -0.183 NA
ATOM     12  C   UNL     1      -6.036  -1.842   0.082  0.00  0.00    +0.239 A 
ATOM     13  N   UNL     1      -6.013  -0.513   0.073  0.00  0.00    -0.172 NA
ATOM     14  C   UNL     1      -4.873   0.181   0.039  0.00  0.00    +0.283 A 
ATOM     15  O   UNL     1      -4.887   1.401   0.018  0.00  0.00    -0.265 OA
ATOM     16  N   UNL     1      -8.558  -4.342   0.453  0.00  0.00    -0.331 N 
ATOM     17  H   UNL     1      -8.629  -5.291   0.642  0.00  0.00    +0.145 HD
ATOM     18  H   UNL     1      -9.359  -3.819   0.292  0.00  0.00    +0.145 HD
ATOM     19  H   UNL     1      -6.210  -5.252   1.220  0.00  0.00    +0.151 HD
ENDROOT
BRANCH   8  20
ATOM     20  C   UNL     1      -4.977  -4.494  -1.468  0.00  0.00    +0.012 A 
ATOM     21  C   UNL     1      -4.421  -3.691  -2.448  0.00  0.00    +0.010 A 
ATOM     22  C   UNL     1      -4.436  -4.100  -3.768  0.00  0.00    +0.020 A 
ATOM     23  C   UNL     1      -5.007  -5.313  -4.110  0.00  0.00    +0.042 A 
ATOM     24  C   UNL     1      -5.563  -6.117  -3.131  0.00  0.00    +0.040 A 
ATOM     25  C   UNL     1      -5.543  -5.709  -1.809  0.00  0.00    +0.049 A 
ATOM     26 CL   UNL     1      -6.235  -6.720  -0.578  0.00  0.00    -0.083 Cl
ATOM     27 CL   UNL     1      -5.027  -5.827  -5.768  0.00  0.00    -0.083 Cl
ENDBRANCH   8  20
BRANCH   1  29
ATOM     28  C   UNL     1      -0.017   1.425   0.010  0.00  0.00    +0.277 C 
ATOM     29  O   UNL     1       0.002  -0.004   0.002  0.00  0.00    -0.491 OA
ENDBRANCH   1  29
BRANCH   6  30
ATOM     30  O   UNL     1      -0.099  -2.750  -0.012  0.00  0.00    -0.491 OA
ATOM     31  C   UNL     1      -0.219  -4.174  -0.018  0.00  0.00    +0.277 C 
ENDBRANCH   6  30
TORSDOF 3
