REMARK  Name = ZINC35379167
REMARK  5 active torsions:
REMARK  status: ('A' for Active; 'I' for Inactive)
REMARK    1  A    between atoms: C_1  and  C_2
REMARK    2  A    between atoms: C_7  and  S_8
REMARK    3  A    between atoms: S_8  and  N_11
REMARK    4  A    between atoms: C_15  and  C_18
REMARK    5  A    between atoms: C_31  and  C_36
REMARK                            x       y       z     vdW  Elec       q    Type
REMARK                         _______ _______ _______ _____ _____    ______ ____
ROOT
ATOM      1  N   UNL     1       1.440   1.024   2.822  0.00  0.00    -0.176 NA
ATOM      2  C   UNL     1       2.642   0.416   3.408  0.00  0.00    +0.109 C 
ATOM      3  C   UNL     1       3.196   1.355   4.484  0.00  0.00    +0.018 C 
ATOM      4  C   UNL     1       3.425   2.741   3.876  0.00  0.00    +0.015 C 
ATOM      5  C   UNL     1       2.093   3.308   3.378  0.00  0.00    +0.091 C 
ATOM      6  C   UNL     1       1.529   2.389   2.285  0.00  0.00    +0.122 C 
ENDROOT
BRANCH   5   7
ATOM      7  C   UNL     1       2.315   4.687   2.811  0.00  0.00    +0.220 C 
ATOM      8  O   UNL     1       3.408   5.001   2.390  0.00  0.00    -0.275 OA
ATOM      9  N   UNL     1       1.298   5.570   2.771  0.00  0.00    -0.301 N 
ATOM     10  C   UNL     1      -0.002   5.244   3.374  0.00  0.00    +0.113 C 
ATOM     11  C   UNL     1      -1.097   5.442   2.321  0.00  0.00    +0.084 C 
ATOM     12  C   UNL     1      -1.003   6.858   1.752  0.00  0.00    +0.173 C 
ATOM     13  C   UNL     1       0.358   7.061   1.082  0.00  0.00    +0.084 C 
ATOM     14  C   UNL     1       1.469   6.881   2.128  0.00  0.00    +0.113 C 
ATOM     15  O   UNL     1      -2.046   7.060   0.790  0.00  0.00    -0.346 OA
ATOM     16  C   UNL     1      -2.851   8.162   1.256  0.00  0.00    +0.191 C 
ATOM     17  C   UNL     1      -1.896   8.909   2.221  0.00  0.00    +0.191 C 
ATOM     18  O   UNL     1      -1.160   7.813   2.814  0.00  0.00    -0.346 OA
ENDBRANCH   5   7
BRANCH   1  19
ATOM     19  S   UNL     1       0.013   0.185   2.761  0.00  0.00    +0.061 S 
ATOM     20  O   UNL     1      -1.024   1.153   2.683  0.00  0.00    -0.153 OA
ATOM     21  O   UNL     1       0.071  -0.788   3.795  0.00  0.00    -0.153 OA
BRANCH  19  28
ATOM     22  C   UNL     1      -0.054   1.500   0.044  0.00  0.00    +0.046 C 
ATOM     23  C   UNL     1      -0.038  -0.007   0.041  0.00  0.00    -0.022 A 
ATOM     24  C   UNL     1      -0.048  -0.694  -1.160  0.00  0.00    +0.032 A 
ATOM     25  C   UNL     1      -0.033  -2.079  -1.161  0.00  0.00    +0.076 A 
ATOM     26  C   UNL     1      -0.008  -2.776   0.046  0.00  0.00    +0.145 A 
ATOM     27  C   UNL     1       0.002  -2.082   1.243  0.00  0.00    +0.076 A 
ATOM     28  C   UNL     1      -0.007  -0.699   1.237  0.00  0.00    +0.112 A 
ATOM     29  O   UNL     1       0.003  -4.136   0.033  0.00  0.00    -0.478 OA
ATOM     30  C   UNL     1      -0.699  -4.775  -1.037  0.00  0.00    +0.256 C 
ATOM     31  C   UNL     1      -0.343  -4.112  -2.343  0.00  0.00    +0.258 C 
ATOM     32  O   UNL     1      -0.327  -4.758  -3.370  0.00  0.00    -0.271 OA
ATOM     33  N   UNL     1      -0.042  -2.795  -2.366  0.00  0.00    -0.280 N 
ATOM     34  C   UNL     1      -0.307  -6.252  -1.093  0.00  0.00    +0.062 C 
ATOM     35  H   UNL     1       0.165  -2.352  -3.204  0.00  0.00    +0.155 HD
ENDBRANCH  19  28
ENDBRANCH   1  19
TORSDOF 3
