REMARK  Name = ZINC61463529
REMARK  6 active torsions:
REMARK  status: ('A' for Active; 'I' for Inactive)
REMARK    1  A    between atoms: C_3  and  C_9
REMARK    2  A    between atoms: C_9  and  C_10
REMARK    3  A    between atoms: C_10  and  C_11
REMARK    4  A    between atoms: N_13  and  N_14
REMARK    5  A    between atoms: C_15  and  C_17
REMARK    6  A    between atoms: C_20  and  C_23
REMARK                            x       y       z     vdW  Elec       q    Type
REMARK                         _______ _______ _______ _____ _____    ______ ____
ROOT
ATOM      1  C   UNL     1       5.546   2.998   1.383  0.00  0.00    +0.229 C 
ATOM      2  O   UNL     1       5.962   3.471   0.347  0.00  0.00    -0.274 OA
ATOM      3  N   UNL     1       6.240   3.164   2.526  0.00  0.00    -0.234 N 
ATOM      4  H   UNL     1       5.907   2.786   3.355  0.00  0.00    +0.173 HD
ENDROOT
BRANCH   3   5
ATOM      5  N   UNL     1       7.442   3.883   2.518  0.00  0.00    -0.230 N 
ATOM      6  C   UNL     1       8.136   4.049   3.661  0.00  0.00    +0.260 C 
ATOM      7  O   UNL     1       7.719   3.575   4.700  0.00  0.00    -0.269 OA
ATOM      8  H   UNL     1       7.776   4.261   1.689  0.00  0.00    +0.173 HD
BRANCH   6   9
ATOM      9  C   UNL     1       9.406   4.807   3.652  0.00  0.00    +0.038 A 
ATOM     10  C   UNL     1       9.883   5.356   2.460  0.00  0.00    +0.014 A 
ATOM     11  C   UNL     1      11.065   6.063   2.452  0.00  0.00    +0.019 A 
ATOM     12  C   UNL     1      11.787   6.230   3.635  0.00  0.00    +0.052 A 
ATOM     13  C   UNL     1      11.310   5.681   4.828  0.00  0.00    +0.019 A 
ATOM     14  C   UNL     1      10.125   4.979   4.837  0.00  0.00    +0.014 A 
BRANCH  12  15
ATOM     15  C   UNL     1      13.017   6.965   3.627  0.00  0.00    +0.099 C 
ATOM     16  N   UNL     1      13.992   7.547   3.620  0.00  0.00    -0.191 NA
ENDBRANCH  12  15
ENDBRANCH   6   9
ENDBRANCH   3   5
BRANCH   1  17
ATOM     17  C   UNL     1       4.252   2.225   1.392  0.00  0.00    +0.102 C 
BRANCH  17  18
ATOM     18  C   UNL     1       3.671   2.186  -0.023  0.00  0.00    +0.046 C 
BRANCH  18  21
ATOM     19  C   UNL     1      -0.017   1.378   0.010  0.00  0.00    +0.002 A 
ATOM     20  C   UNL     1       1.171   2.086   0.002  0.00  0.00    +0.005 A 
ATOM     21  C   UNL     1       2.378   1.413  -0.013  0.00  0.00    -0.027 A 
ATOM     22  C   UNL     1       2.398   0.030  -0.021  0.00  0.00    +0.062 A 
ATOM     23  C   UNL     1       1.209  -0.679  -0.013  0.00  0.00    +0.060 A 
ATOM     24  C   UNL     1       0.002  -0.004   0.002  0.00  0.00    +0.021 A 
ATOM     25 CL   UNL     1       1.234  -2.415  -0.023  0.00  0.00    -0.082 Cl
ATOM     26 CL   UNL     1       3.914  -0.816  -0.041  0.00  0.00    -0.082 Cl
ENDBRANCH  18  21
ENDBRANCH  17  18
ENDBRANCH   1  17
TORSDOF 6
