REMARK  Name = ZINC67330948
REMARK  7 active torsions:
REMARK  status: ('A' for Active; 'I' for Inactive)
REMARK    1  A    between atoms: C_1  and  C_2
REMARK    2  A    between atoms: C_5  and  O_8
REMARK    3  A    between atoms: O_8  and  C_9
REMARK    4  A    between atoms: C_9  and  C_10
REMARK    5  A    between atoms: C_10  and  C_12
REMARK    6  A    between atoms: C_10  and  N_13
REMARK    7  A    between atoms: C_14  and  C_16
REMARK                            x       y       z     vdW  Elec       q    Type
REMARK                         _______ _______ _______ _____ _____    ______ ____
ROOT
ATOM      1  N   UNL     1       1.336  -6.692   0.379  0.00  0.00    -0.305 N 
ATOM      2  C   UNL     1       1.825  -7.937   0.544  0.00  0.00    +0.250 C 
ATOM      3  O   UNL     1       1.276  -8.710   1.306  0.00  0.00    -0.270 OA
ATOM      4  H   UNL     1       1.815  -6.052  -0.170  0.00  0.00    +0.149 HD
ENDROOT
BRANCH   2   5
ATOM      5  C   UNL     1       3.024  -8.361  -0.197  0.00  0.00    +0.102 A 
ATOM      6  C   UNL     1       3.477  -9.672  -0.131  0.00  0.00    +0.031 A 
ATOM      7  C   UNL     1       4.630 -10.032  -0.861  0.00  0.00    +0.037 A 
ATOM      8  C   UNL     1       5.297  -9.097  -1.635  0.00  0.00    +0.030 A 
ATOM      9  N   UNL     1       4.862  -7.823  -1.695  0.00  0.00    -0.325 N 
ATOM     10  H   UNL     1       5.349  -7.184  -2.238  0.00  0.00    +0.169 HD
ATOM     11  C   UNL     1       3.769  -7.413  -1.029  0.00  0.00    +0.261 A 
ATOM     12  O   UNL     1       3.402  -6.255  -1.113  0.00  0.00    -0.267 OA
ATOM     13  C   UNL     1       6.518  -9.469  -2.437  0.00  0.00    +0.054 C 
ATOM     14  C   UNL     1       7.204 -10.705  -1.863  0.00  0.00    +0.014 C 
ATOM     15  C   UNL     1       6.187 -11.850  -1.766  0.00  0.00    +0.080 C 
ATOM     16  C   UNL     1       5.119 -11.419  -0.783  0.00  0.00    +0.165 C 
ATOM     17  O   UNL     1       4.680 -12.192   0.043  0.00  0.00    -0.292 OA
ENDBRANCH   2   5
BRANCH   1  18
ATOM     18  C   UNL     1       0.081  -6.307   1.028  0.00  0.00    +0.108 C 
ATOM     19  C   UNL     1      -1.099  -6.729   0.150  0.00  0.00    +0.031 C 
BRANCH  18  20
ATOM     20  C   UNL     1       0.053  -4.790   1.224  0.00  0.00    +0.251 C 
BRANCH  20  21
ATOM     21  O   UNL     1       0.033  -4.145  -0.051  0.00  0.00    -0.490 OA
BRANCH  21  26
ATOM     22  C   UNL     1      -0.077   1.486  -0.069  0.00  0.00    +0.044 C 
ATOM     23  C   UNL     1      -0.047  -0.020  -0.064  0.00  0.00    -0.050 A 
ATOM     24  C   UNL     1      -0.041  -0.714  -1.260  0.00  0.00    +0.007 A 
ATOM     25  C   UNL     1      -0.014  -2.095  -1.258  0.00  0.00    +0.046 A 
ATOM     26  C   UNL     1       0.007  -2.786  -0.055  0.00  0.00    +0.121 A 
ATOM     27  C   UNL     1       0.001  -2.088   1.143  0.00  0.00    +0.046 A 
ATOM     28  C   UNL     1      -0.021  -0.706   1.136  0.00  0.00    +0.007 A 
ENDBRANCH  21  26
ENDBRANCH  20  21
ENDBRANCH  18  20
ENDBRANCH   1  18
TORSDOF 5
