REMARK  Name = ZINC05093934
REMARK  2 active torsions:
REMARK  status: ('A' for Active; 'I' for Inactive)
REMARK    1  A    between atoms: C_10  and  C_13
REMARK    2  A    between atoms: C_21  and  O_24
REMARK                            x       y       z     vdW  Elec       q    Type
REMARK                         _______ _______ _______ _____ _____    ______ ____
ROOT
ATOM      1  C   UNL     1      -2.481   0.904   0.019  0.00  0.00    -0.028 C 
ATOM      2  C   UNL     1      -3.038   0.836   1.445  0.00  0.00    +0.011 C 
ATOM      3  C   UNL     1      -2.010   0.160   2.354  0.00  0.00    +0.005 C 
ATOM      4  C   UNL     1      -2.567   0.061   3.775  0.00  0.00    +0.000 C 
ATOM      5  C   UNL     1      -3.852  -0.771   3.760  0.00  0.00    +0.003 C 
ATOM      6  C   UNL     1      -4.884  -0.095   2.856  0.00  0.00    +0.035 C 
ATOM      7  C   UNL     1      -4.330   0.015   1.435  0.00  0.00    +0.066 C 
ATOM      8  C   UNL     1      -4.032  -1.383   0.888  0.00  0.00    +0.016 C 
ATOM      9  C   UNL     1      -3.438  -1.258  -0.517  0.00  0.00    -0.079 C 
ATOM     10  N   UNL     1      -2.197  -0.460  -0.466  0.00  0.00    +0.384 N 
ATOM     11  H   UNL     1      -1.531  -0.913   0.170  0.00  0.00    -0.085 HD
ATOM     12  H   UNL     1      -1.791  -0.407  -1.407  0.00  0.00    -0.085 HD
ENDROOT
BRANCH   1  22
ATOM     13  C   UNL     1       2.501   5.107   0.007  0.00  0.00    +0.023 A 
ATOM     14  C   UNL     1       2.453   3.729  -0.001  0.00  0.00    +0.048 A 
ATOM     15  C   UNL     1       1.225   3.078   0.006  0.00  0.00    +0.138 A 
ATOM     16  C   UNL     1       0.043   3.838   0.021  0.00  0.00    +0.066 A 
ATOM     17  C   UNL     1       0.104   5.230   0.029  0.00  0.00    +0.035 A 
ATOM     18  C   UNL     1       1.333   5.856   0.021  0.00  0.00    +0.042 A 
ATOM     19 CL   UNL     1       1.418   7.590   0.030  0.00  0.00    -0.084 Cl
ATOM     20  C   UNL     1      -1.247   3.122   0.029  0.00  0.00    +0.194 A 
ATOM     21  O   UNL     1      -2.307   3.725   0.042  0.00  0.00    -0.287 OA
ATOM     22  C   UNL     1      -1.203   1.703   0.017  0.00  0.00    +0.021 A 
ATOM     23  C   UNL     1      -0.013   1.076   0.008  0.00  0.00    +0.201 A 
ATOM     24  O   UNL     1       1.153   1.731   0.000  0.00  0.00    -0.462 OA
ENDBRANCH   1  22
BRANCH   7  25
ATOM     25  O   UNL     1      -5.295   0.656   0.600  0.00  0.00    -0.388 OA
ATOM     26  H   UNL     1      -6.139   0.187   0.542  0.00  0.00    +0.210 HD
ENDBRANCH   7  25
TORSDOF 2
