REMARK  Name = ZINC03351304
REMARK  9 active torsions:
REMARK  status: ('A' for Active; 'I' for Inactive)
REMARK    1  A    between atoms: C_1  and  N_2
REMARK    2  A    between atoms: N_2  and  C_3
REMARK    3  A    between atoms: C_4  and  N_19
REMARK    4  A    between atoms: N_5  and  C_12
REMARK    5  A    between atoms: C_12  and  C_13
REMARK    6  A    between atoms: C_20  and  C_22
REMARK    7  A    between atoms: C_22  and  S_23
REMARK    8  A    between atoms: S_23  and  C_24
REMARK    9  A    between atoms: C_27  and  C_30
REMARK                            x       y       z     vdW  Elec       q    Type
REMARK                         _______ _______ _______ _____ _____    ______ ____
ROOT
ATOM      1  C   UNL     1      -0.028  -0.812   1.098  0.00  0.00    +0.139 A 
ATOM      2  C   UNL     1      -0.092  -0.318   2.385  0.00  0.00    +0.128 A 
ATOM      3  N   UNL     1      -0.137  -1.198   3.441  0.00  0.00    -0.276 N 
ATOM      4  C   UNL     1      -0.118  -2.525   3.223  0.00  0.00    +0.331 A 
ATOM      5  O   UNL     1      -0.158  -3.286   4.170  0.00  0.00    -0.246 OA
ATOM      6  N   UNL     1      -0.056  -3.025   1.976  0.00  0.00    -0.273 N 
ATOM      7  H   UNL     1      -0.044  -3.986   1.845  0.00  0.00    +0.173 HD
ATOM      8  C   UNL     1      -0.017  -2.207   0.906  0.00  0.00    +0.277 A 
ATOM      9  O   UNL     1       0.034  -2.671  -0.220  0.00  0.00    -0.266 OA
ENDROOT
BRANCH   1  11
ATOM     10  C   UNL     1       1.182   0.933  -0.203  0.00  0.00    +0.138 C 
ATOM     11  N   UNL     1       0.019   0.064  -0.006  0.00  0.00    -0.267 N 
ATOM     12  C   UNL     1      -1.008   0.102  -0.882  0.00  0.00    +0.230 C 
ATOM     13  O   UNL     1      -2.012  -0.543  -0.667  0.00  0.00    -0.274 OA
BRANCH  12  14
ATOM     14  C   UNL     1      -0.906   0.947  -2.126  0.00  0.00    +0.172 C 
BRANCH  14  15
ATOM     15  S   UNL     1      -2.433   0.788  -3.091  0.00  0.00    -0.095 S 
BRANCH  15  16
ATOM     16  C   UNL     1      -2.161   1.820  -4.493  0.00  0.00    +0.116 A 
ATOM     17  C   UNL     1      -3.153   1.943  -5.463  0.00  0.00    +0.073 A 
ATOM     18  C   UNL     1      -2.925   2.757  -6.558  0.00  0.00    +0.036 A 
ATOM     19  C   UNL     1      -1.709   3.422  -6.648  0.00  0.00    +0.074 A 
ATOM     20  C   UNL     1      -0.771   3.255  -5.650  0.00  0.00    +0.124 A 
ATOM     21  N   UNL     1      -1.017   2.476  -4.613  0.00  0.00    -0.247 NA
ATOM     22 CL   UNL     1      -4.655   1.087  -5.300  0.00  0.00    -0.081 Cl
BRANCH  19  23
ATOM     23  C   UNL     1      -1.417   4.319  -7.823  0.00  0.00    +0.419 C 
ATOM     24  F   UNL     1      -1.840   5.621  -7.534  0.00  0.00    -0.166 F 
ATOM     25  F   UNL     1      -0.042   4.321  -8.078  0.00  0.00    -0.166 F 
ATOM     26  F   UNL     1      -2.100   3.847  -8.950  0.00  0.00    -0.166 F 
ENDBRANCH  19  23
ENDBRANCH  15  16
ENDBRANCH  14  15
ENDBRANCH  12  14
ENDBRANCH   1  11
BRANCH   2  27
ATOM     27  N   UNL     1      -0.110   1.038   2.608  0.00  0.00    -0.343 N 
ATOM     28  H   UNL     1      -0.011   1.653   1.865  0.00  0.00    +0.144 HD
ATOM     29  H   UNL     1      -0.223   1.380   3.509  0.00  0.00    +0.144 HD
ENDBRANCH   2  27
BRANCH   3  30
ATOM     30  C   UNL     1      -0.205  -0.686   4.812  0.00  0.00    +0.163 C 
BRANCH  30  31
ATOM     31  C   UNL     1      -1.647  -0.519   5.215  0.00  0.00    -0.028 A 
ATOM     32  C   UNL     1      -2.297   0.677   4.977  0.00  0.00    +0.005 A 
ATOM     33  C   UNL     1      -3.620   0.830   5.347  0.00  0.00    +0.000 A 
ATOM     34  C   UNL     1      -4.294  -0.214   5.954  0.00  0.00    +0.000 A 
ATOM     35  C   UNL     1      -3.644  -1.410   6.192  0.00  0.00    +0.000 A 
ATOM     36  C   UNL     1      -2.322  -1.565   5.818  0.00  0.00    +0.005 A 
ENDBRANCH  30  31
ENDBRANCH   3  30
TORSDOF 8
