REMARK  Name = ZINC47972898
REMARK  7 active torsions:
REMARK  status: ('A' for Active; 'I' for Inactive)
REMARK    1  A    between atoms: C_1  and  C_2
REMARK    2  A    between atoms: C_4  and  C_27
REMARK    3  A    between atoms: C_6  and  N_8
REMARK    4  A    between atoms: C_12  and  S_13
REMARK    5  A    between atoms: S_13  and  C_14
REMARK    6  A    between atoms: C_14  and  C_15
REMARK    7  A    between atoms: N_17  and  C_18
REMARK                            x       y       z     vdW  Elec       q    Type
REMARK                         _______ _______ _______ _____ _____    ______ ____
ROOT
ATOM      1  S   UNL     1       2.066  -1.273   3.591  0.00  0.00    -0.078 S 
ENDROOT
BRANCH   1   6
ATOM      2  N   UNL     1      -0.076  -2.670   2.478  0.00  0.00    -0.295 N 
ATOM      3  C   UNL     1      -0.885  -3.734   2.814  0.00  0.00    +0.113 A 
ATOM      4  C   UNL     1      -0.484  -4.165   4.023  0.00  0.00    +0.131 A 
ATOM      5  N   UNL     1       0.541  -3.396   4.428  0.00  0.00    -0.230 NA
ATOM      6  C   UNL     1       0.801  -2.497   3.508  0.00  0.00    +0.174 A 
BRANCH   2  12
ATOM      7  C   UNL     1      -0.259   1.721   0.269  0.00  0.00    +0.044 C 
ATOM      8  C   UNL     1      -0.229   0.215   0.201  0.00  0.00    -0.048 A 
ATOM      9  C   UNL     1      -0.263  -0.421  -1.027  0.00  0.00    +0.006 A 
ATOM     10  C   UNL     1      -0.236  -1.802  -1.094  0.00  0.00    -0.048 A 
ATOM     11  C   UNL     1      -0.174  -2.550   0.066  0.00  0.00    +0.029 A 
ATOM     12  C   UNL     1      -0.139  -1.914   1.299  0.00  0.00    +0.049 A 
ATOM     13  C   UNL     1      -0.161  -0.527   1.363  0.00  0.00    +0.029 A 
ATOM     14  C   UNL     1      -0.275  -2.491  -2.433  0.00  0.00    +0.044 C 
ENDBRANCH   2  12
ENDBRANCH   1   6
BRANCH   1  15
ATOM     15  C   UNL     1       2.865  -1.576   5.191  0.00  0.00    +0.173 C 
BRANCH  15  16
ATOM     16  C   UNL     1       3.981  -0.583   5.391  0.00  0.00    +0.224 C 
ATOM     17  O   UNL     1       4.215   0.247   4.537  0.00  0.00    -0.275 OA
ATOM     18  N   UNL     1       4.721  -0.618   6.517  0.00  0.00    -0.303 N 
ATOM     19  H   UNL     1       4.534  -1.282   7.199  0.00  0.00    +0.149 HD
BRANCH  18  20
ATOM     20  C   UNL     1       5.806   0.347   6.711  0.00  0.00    +0.159 C 
ATOM     21  C   UNL     1       6.728  -0.134   7.834  0.00  0.00    +0.032 C 
ATOM     22  C   UNL     1       5.934  -0.851   8.911  0.00  0.00    +0.004 C 
ATOM     23  C   UNL     1       4.985   0.052   9.677  0.00  0.00    +0.019 C 
ATOM     24  C   UNL     1       3.859   0.553   8.771  0.00  0.00    +0.104 C 
ATOM     25  N   UNL     1       4.317   1.768   8.078  0.00  0.00    -0.314 N 
ATOM     26  C   UNL     1       5.227   1.691   7.102  0.00  0.00    +0.233 C 
ATOM     27  O   UNL     1       5.596   2.696   6.533  0.00  0.00    -0.274 OA
ATOM     28  H   UNL     1       3.954   2.632   8.329  0.00  0.00    +0.149 HD
ENDBRANCH  18  20
ENDBRANCH  15  16
ENDBRANCH   1  15
TORSDOF 5
