REMARK  Name = ZINC36664377
REMARK  6 active torsions:
REMARK  status: ('A' for Active; 'I' for Inactive)
REMARK    1  A    between atoms: C_8  and  C_10
REMARK    2  A    between atoms: C_13  and  C_15
REMARK    3  A    between atoms: N_17  and  C_18
REMARK    4  A    between atoms: C_18  and  C_19
REMARK    5  A    between atoms: C_19  and  C_21
REMARK    6  A    between atoms: C_19  and  N_26
REMARK                            x       y       z     vdW  Elec       q    Type
REMARK                         _______ _______ _______ _____ _____    ______ ____
ROOT
ATOM      1  C   UNL     1       2.189  -7.548  -0.393  0.00  0.00    +0.279 C 
ATOM      2  O   UNL     1       2.903  -8.526  -0.515  0.00  0.00    -0.267 OA
ATOM      3  N   UNL     1       0.870  -7.702  -0.164  0.00  0.00    -0.310 N 
ATOM      4  H   UNL     1       0.301  -6.922  -0.066  0.00  0.00    +0.149 HD
ENDROOT
BRANCH   1   8
ATOM      5  C   UNL     1       2.935  -4.011  -0.527  0.00  0.00    +0.161 A 
ATOM      6  C   UNL     1       4.199  -4.514  -0.746  0.00  0.00    +0.053 A 
ATOM      7  C   UNL     1       4.090  -5.908  -0.725  0.00  0.00    +0.055 A 
ATOM      8  C   UNL     1       2.765  -6.202  -0.494  0.00  0.00    +0.190 A 
ATOM      9  O   UNL     1       2.087  -5.043  -0.373  0.00  0.00    -0.448 OA
BRANCH   5  17
ATOM     10  C   UNL     1      -0.019   1.355  -0.014  0.00  0.00    +0.002 A 
ATOM     11  C   UNL     1       1.133   2.102  -0.221  0.00  0.00    +0.001 A 
ATOM     12  C   UNL     1       2.334   1.451  -0.432  0.00  0.00    +0.017 A 
ATOM     13  C   UNL     1       2.366   0.078  -0.435  0.00  0.00    +0.040 A 
ATOM     14  C   UNL     1       1.208  -0.712  -0.227  0.00  0.00    +0.079 A 
ATOM     15  C   UNL     1       0.000  -0.004  -0.015  0.00  0.00    +0.029 A 
ATOM     16  N   UNL     1       1.395  -2.038  -0.258  0.00  0.00    -0.236 NA
ATOM     17  C   UNL     1       2.575  -2.586  -0.467  0.00  0.00    +0.145 A 
ATOM     18  S   UNL     1       3.628  -1.153  -0.657  0.00  0.00    -0.064 S 
ENDBRANCH   5  17
ENDBRANCH   1   8
BRANCH   3  19
ATOM     19  C   UNL     1       0.295  -9.045  -0.063  0.00  0.00    +0.094 C 
BRANCH  19  20
ATOM     20  C   UNL     1      -1.225  -8.941   0.069  0.00  0.00    -0.013 C 
BRANCH  20  21
ATOM     21  N   UNL     1      -1.789 -10.277   0.303  0.00  0.00    +0.386 N 
ATOM     22  C   UNL     1      -3.265 -10.196   0.335  0.00  0.00    -0.078 C 
ATOM     23  C   UNL     1      -3.695 -11.225   1.410  0.00  0.00    -0.020 C 
ATOM     24  C   UNL     1      -2.569 -11.064   2.466  0.00  0.00    -0.020 C 
ATOM     25  C   UNL     1      -1.319 -10.793   1.602  0.00  0.00    -0.078 C 
ATOM     26  H   UNL     1      -1.502 -10.902  -0.434  0.00  0.00    -0.081 HD
ENDBRANCH  20  21
BRANCH  20  27
ATOM     27  C   UNL     1      -1.801  -8.369  -1.201  0.00  0.00    -0.022 A 
ATOM     28  C   UNL     1      -2.191  -7.098  -1.464  0.00  0.00    +0.009 A 
ATOM     29  C   UNL     1      -2.696  -6.797  -2.716  0.00  0.00    +0.008 A 
ATOM     30  C   UNL     1      -2.786  -7.782  -3.642  0.00  0.00    +0.045 A 
ATOM     31  S   UNL     1      -2.139  -9.187  -2.751  0.00  0.00    -0.103 S 
ENDBRANCH  20  27
ENDBRANCH  19  20
ENDBRANCH   3  19
TORSDOF 6
