REMARK  Name = ZINC64025584
REMARK  6 active torsions:
REMARK  status: ('A' for Active; 'I' for Inactive)
REMARK    1  A    between atoms: C_1  and  C_2
REMARK    2  A    between atoms: C_4  and  N_20
REMARK    3  A    between atoms: C_6  and  S_8
REMARK    4  A    between atoms: S_8  and  C_9
REMARK    5  A    between atoms: C_9  and  C_10
REMARK    6  A    between atoms: C_13  and  C_15
REMARK                            x       y       z     vdW  Elec       q    Type
REMARK                         _______ _______ _______ _____ _____    ______ ____
ROOT
ATOM      1  S   UNL     1       0.053  -2.857   2.690  0.00  0.00    -0.080 S 
ENDROOT
BRANCH   1   7
ATOM      2  C   UNL     1      -0.018   1.503   0.010  0.00  0.00    +0.066 C 
ATOM      3  C   UNL     1       0.002  -0.004   0.002  0.00  0.00    +0.044 A 
ATOM      4  C   UNL     1       0.006  -0.696  -1.194  0.00  0.00    +0.066 A 
ATOM      5  C   UNL     1       0.025  -2.091  -1.157  0.00  0.00    +0.121 A 
ATOM      6  N   UNL     1       0.039  -2.705   0.022  0.00  0.00    -0.207 NA
ATOM      7  C   UNL     1       0.035  -2.005   1.147  0.00  0.00    +0.190 A 
ATOM      8  N   UNL     1       0.022  -0.679   1.141  0.00  0.00    -0.227 NA
BRANCH   5   9
ATOM      9  N   UNL     1       0.029  -2.826  -2.331  0.00  0.00    -0.343 N 
ATOM     10  H   UNL     1       0.018  -2.371  -3.188  0.00  0.00    +0.144 HD
ATOM     11  H   UNL     1       0.042  -3.795  -2.297  0.00  0.00    +0.144 HD
ENDBRANCH   5   9
ENDBRANCH   1   7
BRANCH   1  12
ATOM     12  C   UNL     1       0.075  -4.610   2.222  0.00  0.00    +0.133 C 
BRANCH  12  13
ATOM     13  C   UNL     1       0.092  -5.461   3.466  0.00  0.00    +0.059 A 
ATOM     14  C   UNL     1       1.257  -5.841   4.050  0.00  0.00    +0.071 A 
ATOM     15  S   UNL     1       0.639  -6.794   5.428  0.00  0.00    -0.080 S 
ATOM     16  C   UNL     1      -1.004  -6.609   5.118  0.00  0.00    +0.082 A 
ATOM     17  N   UNL     1      -1.023  -5.865   4.040  0.00  0.00    -0.248 NA
BRANCH  16  18
ATOM     18  C   UNL     1      -2.172  -7.160   5.896  0.00  0.00    +0.045 C 
ATOM     19  C   UNL     1      -2.100  -6.686   7.362  0.00  0.00    +0.010 C 
ATOM     20  C   UNL     1      -2.602  -7.902   8.179  0.00  0.00    +0.001 C 
ATOM     21  C   UNL     1      -1.997  -9.103   7.411  0.00  0.00    +0.001 C 
ATOM     22  C   UNL     1      -2.106  -8.697   5.927  0.00  0.00    +0.010 C 
ENDBRANCH  16  18
ENDBRANCH  12  13
ENDBRANCH   1  12
TORSDOF 5
