REMARK  Name = ZINC32534137
REMARK  7 active torsions:
REMARK  status: ('A' for Active; 'I' for Inactive)
REMARK    1  A    between atoms: C_1  and  C_2
REMARK    2  A    between atoms: C_9  and  N_30
REMARK    3  A    between atoms: C_10  and  C_28
REMARK    4  A    between atoms: C_11  and  C_13
REMARK    5  A    between atoms: C_18  and  O_19
REMARK    6  A    between atoms: O_19  and  C_20
REMARK    7  A    between atoms: C_20  and  C_21
REMARK                            x       y       z     vdW  Elec       q    Type
REMARK                         _______ _______ _______ _____ _____    ______ ____
ROOT
ATOM      1  C   UNL     1      -0.018   1.503   0.010  0.00  0.00    +0.068 C 
ATOM      2  C   UNL     1       0.002  -0.004   0.002  0.00  0.00    +0.068 A 
ATOM      3  C   UNL     1       0.008  -0.813  -1.126  0.00  0.00    +0.049 A 
ATOM      4  C   UNL     1       0.028  -2.116  -0.713  0.00  0.00    +0.222 A 
ATOM      5  N   UNL     1       0.033  -2.116   0.629  0.00  0.00    -0.246 N 
ATOM      6  H   UNL     1       0.046  -2.900   1.201  0.00  0.00    +0.192 HD
ATOM      7  N   UNL     1       0.023  -0.780   1.060  0.00  0.00    -0.176 NA
ATOM      8  O   UNL     1       0.042  -3.159  -1.580  0.00  0.00    -0.423 OA
ATOM      9  C   UNL     1       0.311  -2.892  -2.874  0.00  0.00    +0.200 C 
ATOM     10  C   UNL     1       0.309  -1.648  -3.402  0.00  0.00    +0.098 C 
ATOM     11  C   UNL     1      -0.005  -0.421  -2.581  0.00  0.00    +0.105 C 
ENDROOT
BRANCH  11  12
ATOM     12  C   UNL     1      -1.367   0.105  -2.954  0.00  0.00    +0.008 A 
ATOM     13  C   UNL     1      -2.481  -0.700  -2.814  0.00  0.00    +0.023 A 
ATOM     14  C   UNL     1      -3.732  -0.217  -3.156  0.00  0.00    +0.018 A 
ATOM     15  C   UNL     1      -3.869   1.072  -3.639  0.00  0.00    +0.019 A 
ATOM     16  C   UNL     1      -2.758   1.880  -3.780  0.00  0.00    +0.047 A 
ATOM     17  C   UNL     1      -1.504   1.400  -3.432  0.00  0.00    +0.125 A 
ATOM     18 BR   UNL     1      -5.255  -1.321  -2.965  0.00  0.00    -0.050 Br
BRANCH  17  19
ATOM     19  O   UNL     1      -0.409   2.195  -3.566  0.00  0.00    -0.487 OA
BRANCH  19  20
ATOM     20  C   UNL     1      -0.625   3.517  -4.064  0.00  0.00    +0.264 C 
BRANCH  20  21
ATOM     21  C   UNL     1       0.692   4.245  -4.143  0.00  0.00    -0.010 A 
ATOM     22  C   UNL     1       1.147   4.971  -3.059  0.00  0.00    +0.007 A 
ATOM     23  C   UNL     1       2.355   5.639  -3.131  0.00  0.00    +0.000 A 
ATOM     24  C   UNL     1       3.109   5.580  -4.288  0.00  0.00    +0.000 A 
ATOM     25  C   UNL     1       2.655   4.853  -5.373  0.00  0.00    +0.000 A 
ATOM     26  C   UNL     1       1.449   4.181  -5.299  0.00  0.00    +0.007 A 
ENDBRANCH  20  21
ENDBRANCH  19  20
ENDBRANCH  17  19
ENDBRANCH  11  12
BRANCH   9  27
ATOM     27  N   UNL     1       0.605  -3.945  -3.704  0.00  0.00    -0.328 N 
ATOM     28  H   UNL     1       0.615  -4.850  -3.354  0.00  0.00    +0.145 HD
ATOM     29  H   UNL     1       0.803  -3.785  -4.640  0.00  0.00    +0.145 HD
ENDBRANCH   9  27
BRANCH  10  30
ATOM     30  C   UNL     1       0.616  -1.487  -4.791  0.00  0.00    +0.101 C 
ATOM     31  N   UNL     1       0.860  -1.360  -5.894  0.00  0.00    -0.191 NA
ENDBRANCH  10  30
TORSDOF 6
