REMARK  Name = ZINC20682600
REMARK  12 active torsions:
REMARK  status: ('A' for Active; 'I' for Inactive)
REMARK    1  A    between atoms: C_1  and  N_2
REMARK    2  A    between atoms: N_2  and  C_3
REMARK    3  A    between atoms: N_2  and  S_10
REMARK    4  A    between atoms: C_3  and  C_4
REMARK    5  A    between atoms: S_10  and  C_13
REMARK    6  A    between atoms: C_26  and  C_29
REMARK    7  A    between atoms: C_31  and  O_39
REMARK    8  A    between atoms: C_32  and  O_37
REMARK    9  A    between atoms: C_33  and  O_35
REMARK   10  A    between atoms: O_35  and  C_36
REMARK   11  A    between atoms: O_37  and  C_38
REMARK   12  A    between atoms: O_39  and  C_40
REMARK                            x       y       z     vdW  Elec       q    Type
REMARK                         _______ _______ _______ _____ _____    ______ ____
ROOT
ATOM      1  C   UNL     1      -3.627   6.677  -0.218  0.00  0.00    +0.106 A 
ATOM      2  C   UNL     1      -2.767   6.620  -1.299  0.00  0.00    +0.030 A 
ATOM      3  C   UNL     1      -1.993   5.497  -1.510  0.00  0.00    +0.025 A 
ATOM      4  C   UNL     1      -2.073   4.416  -0.640  0.00  0.00    +0.031 A 
ATOM      5  C   UNL     1      -2.955   4.476   0.444  0.00  0.00    -0.018 A 
ATOM      6  C   UNL     1      -3.718   5.605   0.650  0.00  0.00    +0.034 A 
ATOM      7  C   UNL     1      -3.041   3.289   1.321  0.00  0.00    +0.049 C 
ATOM      8  C   UNL     1      -3.453   3.393   2.744  0.00  0.00    -0.023 C 
ATOM      9  C   UNL     1      -2.836   2.442   3.436  0.00  0.00    -0.030 C 
ATOM     10  C   UNL     1      -1.920   1.636   2.513  0.00  0.00    +0.033 C 
ATOM     11  C   UNL     1      -1.619   2.657   1.408  0.00  0.00    +0.029 C 
ATOM     12  C   UNL     1      -1.333   2.112   0.020  0.00  0.00    +0.105 C 
ATOM     13  N   UNL     1      -1.266   3.294  -0.866  0.00  0.00    -0.336 N 
ATOM     14  H   UNL     1      -0.574   3.303  -1.721  0.00  0.00    +0.147 HD
ENDROOT
BRANCH  12  15
ATOM     15  C   UNL     1      -0.017   1.378   0.010  0.00  0.00    -0.020 A 
ATOM     16  C   UNL     1       1.169   2.089   0.002  0.00  0.00    +0.055 A 
ATOM     17  C   UNL     1       2.382   1.418  -0.013  0.00  0.00    +0.165 A 
ATOM     18  C   UNL     1       2.405   0.028  -0.021  0.00  0.00    +0.204 A 
ATOM     19  C   UNL     1       1.211  -0.683  -0.014  0.00  0.00    +0.165 A 
ATOM     20  C   UNL     1       0.002  -0.004   0.002  0.00  0.00    +0.055 A 
BRANCH  19  21
ATOM     21  O   UNL     1       1.228  -2.043  -0.022  0.00  0.00    -0.491 OA
ATOM     22  C   UNL     1      -0.036  -2.708  -0.014  0.00  0.00    +0.277 C 
ENDBRANCH  19  21
BRANCH  18  23
ATOM     23  O   UNL     1       3.594  -0.634  -0.037  0.00  0.00    -0.488 OA
ATOM     24  C   UNL     1       4.148  -0.942  -1.318  0.00  0.00    +0.277 C 
ENDBRANCH  18  23
BRANCH  17  25
ATOM     25  O   UNL     1       3.548   2.119  -0.021  0.00  0.00    -0.491 OA
ATOM     26  C   UNL     1       3.448   3.544  -0.011  0.00  0.00    +0.277 C 
ENDBRANCH  17  25
ENDBRANCH  12  15
BRANCH   1  27
ATOM     27  S   UNL     1      -4.606   8.117   0.053  0.00  0.00    +0.061 S 
ATOM     28  O   UNL     1      -4.925   8.136   1.438  0.00  0.00    -0.153 OA
ATOM     29  O   UNL     1      -3.935   9.192  -0.589  0.00  0.00    -0.153 OA
BRANCH  27  31
ATOM     30  C   UNL     1      -6.160   8.339  -2.149  0.00  0.00    +0.132 C 
ATOM     31  N   UNL     1      -6.033   7.898  -0.758  0.00  0.00    -0.175 NA
BRANCH  31  32
ATOM     32  C   UNL     1      -7.169   7.264  -0.084  0.00  0.00    +0.144 C 
BRANCH  32  33
ATOM     33  C   UNL     1      -8.072   8.327   0.487  0.00  0.00    -0.032 A 
ATOM     34  C   UNL     1      -7.870   8.787   1.775  0.00  0.00    +0.005 A 
ATOM     35  C   UNL     1      -8.695   9.765   2.297  0.00  0.00    +0.000 A 
ATOM     36  C   UNL     1      -9.729  10.276   1.535  0.00  0.00    +0.000 A 
ATOM     37  C   UNL     1      -9.935   9.812   0.249  0.00  0.00    +0.000 A 
ATOM     38  C   UNL     1      -9.107   8.837  -0.275  0.00  0.00    +0.005 A 
ENDBRANCH  32  33
ENDBRANCH  31  32
ENDBRANCH  27  31
ENDBRANCH   1  27
TORSDOF 8
