REMARK  Name = ZINC21225764
REMARK  3 active torsions:
REMARK  status: ('A' for Active; 'I' for Inactive)
REMARK    1  A    between atoms: C_1  and  C_2
REMARK    2  A    between atoms: C_5  and  C_7
REMARK    3  A    between atoms: C_12  and  C_17
REMARK                            x       y       z     vdW  Elec       q    Type
REMARK                         _______ _______ _______ _____ _____    ______ ____
ROOT
ATOM      1  C   UNL     1       0.623   3.267   1.845  0.00  0.00    +0.172 C 
ATOM      2  C   UNL     1       1.516   2.632   0.805  0.00  0.00    +0.039 C 
ATOM      3  C   UNL     1       1.185   1.610  -0.001  0.00  0.00    +0.017 C 
ATOM      4  C   UNL     1       2.185   1.071  -1.010  0.00  0.00    +0.059 C 
ATOM      5  C   UNL     1       3.088   2.200  -1.504  0.00  0.00    +0.032 C 
ATOM      6  C   UNL     1       3.819   2.779  -0.287  0.00  0.00    +0.088 C 
ATOM      7  C   UNL     1       2.797   3.227   0.714  0.00  0.00    +0.163 C 
ATOM      8  O   UNL     1       3.078   4.133   1.474  0.00  0.00    -0.292 OA
ATOM      9  N   UNL     1      -0.011   0.966   0.007  0.00  0.00    -0.316 N 
ATOM     10  C   UNL     1      -1.254   1.593   0.017  0.00  0.00    +0.052 A 
ATOM     11  C   UNL     1      -2.157   1.467  -1.023  0.00  0.00    +0.025 A 
ATOM     12  C   UNL     1      -3.401   2.066  -0.917  0.00  0.00    +0.002 A 
ATOM     13  C   UNL     1      -3.734   2.781   0.219  0.00  0.00    +0.002 A 
ATOM     14  C   UNL     1      -2.816   2.928   1.260  0.00  0.00    +0.025 A 
ATOM     15  C   UNL     1      -1.561   2.350   1.142  0.00  0.00    +0.049 A 
ATOM     16  N   UNL     1      -0.589   2.526   2.123  0.00  0.00    -0.329 N 
ATOM     17  H   UNL     1      -0.043  -0.134   0.007  0.00  0.00    +0.152 HD
ATOM     18  H   UNL     1      -0.752   2.092   3.120  0.00  0.00    +0.147 HD
ENDROOT
BRANCH   5  19
ATOM     19  C   UNL     1       4.088   1.658  -2.493  0.00  0.00    -0.043 A 
ATOM     20  C   UNL     1       4.980   0.675  -2.106  0.00  0.00    +0.005 A 
ATOM     21  C   UNL     1       5.894   0.174  -3.013  0.00  0.00    +0.020 A 
ATOM     22  C   UNL     1       5.923   0.664  -4.307  0.00  0.00    +0.041 A 
ATOM     23  C   UNL     1       5.034   1.652  -4.692  0.00  0.00    +0.020 A 
ATOM     24  C   UNL     1       4.117   2.148  -3.785  0.00  0.00    +0.005 A 
ATOM     25 CL   UNL     1       7.075   0.040  -5.446  0.00  0.00    -0.084 Cl
ENDBRANCH   5  19
BRANCH   1  30
ATOM     26  C   UNL     1      -1.725   6.982  -0.632  0.00  0.00    +0.086 C 
ATOM     27  C   UNL     1      -0.779   6.261   0.294  0.00  0.00    +0.102 A 
ATOM     28  C   UNL     1       0.146   6.841   1.080  0.00  0.00    +0.045 A 
ATOM     29  C   UNL     1       0.804   5.800   1.774  0.00  0.00    +0.047 A 
ATOM     30  C   UNL     1       0.242   4.646   1.371  0.00  0.00    +0.130 A 
ATOM     31  O   UNL     1      -0.713   4.932   0.470  0.00  0.00    -0.463 OA
ENDBRANCH   1  30
TORSDOF 2
