REMARK  Name = ZINC63738296
REMARK  10 active torsions:
REMARK  status: ('A' for Active; 'I' for Inactive)
REMARK    1  A    between atoms: C_1  and  C_2
REMARK    2  A    between atoms: C_2  and  N_3
REMARK    3  A    between atoms: N_6  and  C_9
REMARK    4  A    between atoms: C_9  and  C_10
REMARK    5  A    between atoms: C_10  and  N_11
REMARK    6  A    between atoms: C_12  and  C_14
REMARK    7  A    between atoms: C_14  and  C_15
REMARK    8  A    between atoms: C_21  and  C_23
REMARK    9  A    between atoms: C_29  and  O_33
REMARK   10  A    between atoms: O_33  and  C_34
REMARK                            x       y       z     vdW  Elec       q    Type
REMARK                         _______ _______ _______ _____ _____    ______ ____
ROOT
ATOM      1  C   UNL     1       5.265  -7.906  -6.094  0.00  0.00    +0.001 C 
ATOM      2  C   UNL     1       6.116  -8.314  -4.890  0.00  0.00    +0.023 C 
ATOM      3  C   UNL     1       6.172  -9.843  -4.804  0.00  0.00    +0.108 C 
ATOM      4  N   UNL     1       6.651 -10.371  -6.088  0.00  0.00    -0.300 N 
ATOM      5  C   UNL     1       5.959  -9.968  -7.320  0.00  0.00    +0.108 C 
ATOM      6  C   UNL     1       5.906  -8.438  -7.378  0.00  0.00    +0.023 C 
ATOM      7  C   UNL     1       7.706 -11.209  -6.136  0.00  0.00    +0.242 C 
ATOM      8  O   UNL     1       8.269 -11.534  -5.112  0.00  0.00    -0.273 OA
ENDROOT
BRANCH   7   9
ATOM      9  C   UNL     1       8.185 -11.743  -7.461  0.00  0.00    +0.190 C 
ATOM     10  C   UNL     1       7.101 -12.573  -8.112  0.00  0.00    +0.016 C 
ATOM     11  C   UNL     1       7.611 -13.817  -8.248  0.00  0.00    -0.003 A 
ATOM     12  C   UNL     1       7.059 -15.061  -8.801  0.00  0.00    +0.013 A 
ATOM     13  C   UNL     1       7.823 -16.174  -8.801  0.00  0.00    +0.046 A 
ATOM     14  C   UNL     1       9.133 -16.171  -8.286  0.00  0.00    +0.122 A 
ATOM     15  C   UNL     1       9.707 -15.060  -7.760  0.00  0.00    +0.071 A 
ATOM     16  C   UNL     1       8.991 -13.838  -7.712  0.00  0.00    +0.047 A 
ATOM     17  N   UNL     1       9.322 -12.648  -7.261  0.00  0.00    -0.370 N 
ATOM     18  H   UNL     1      10.173 -12.409  -6.862  0.00  0.00    +0.161 HD
BRANCH  14  19
ATOM     19  O   UNL     1       9.848 -17.323  -8.316  0.00  0.00    -0.495 OA
ATOM     20  C   UNL     1       9.207 -18.470  -8.877  0.00  0.00    +0.277 C 
ENDBRANCH  14  19
ENDBRANCH   7   9
BRANCH   1  21
ATOM     21  C   UNL     1       5.178  -6.380  -6.163  0.00  0.00    +0.099 C 
BRANCH  21  23
ATOM     22  N   UNL     1       4.239  -4.540  -4.802  0.00  0.00    -0.314 N 
ATOM     23  C   UNL     1       4.438  -5.864  -4.956  0.00  0.00    +0.213 C 
ATOM     24  O   UNL     1       4.021  -6.640  -4.123  0.00  0.00    -0.276 OA
ATOM     25  H   UNL     1       4.573  -3.918  -5.468  0.00  0.00    +0.149 HD
BRANCH  22  26
ATOM     26  C   UNL     1       3.520  -4.038  -3.629  0.00  0.00    +0.119 C 
BRANCH  26  27
ATOM     27  C   UNL     1       3.433  -2.512  -3.697  0.00  0.00    +0.103 C 
BRANCH  27  31
ATOM     28  N   UNL     1       0.690  -0.478  -1.207  0.00  0.00    +0.381 N 
ATOM     29  C   UNL     1       2.100  -0.069  -1.160  0.00  0.00    -0.063 C 
ATOM     30  C   UNL     1       2.812  -0.546  -2.427  0.00  0.00    +0.066 C 
ATOM     31  N   UNL     1       2.711  -2.009  -2.521  0.00  0.00    -0.304 NA
ATOM     32  C   UNL     1       1.305  -2.435  -2.544  0.00  0.00    +0.066 C 
ATOM     33  C   UNL     1       0.605  -1.943  -1.275  0.00  0.00    -0.063 C 
ATOM     34  H   UNL     1       0.251  -0.077  -2.022  0.00  0.00    -0.082 HD
BRANCH  28  36
ATOM     35  C   UNL     1      -0.019   1.526   0.010  0.00  0.00    -0.017 C 
ATOM     36  C   UNL     1       0.002  -0.004   0.002  0.00  0.00    -0.082 C 
ENDBRANCH  28  36
ENDBRANCH  27  31
ENDBRANCH  26  27
ENDBRANCH  22  26
ENDBRANCH  21  23
ENDBRANCH   1  21
TORSDOF 8
