REMARK  Name = ZINC08857986
REMARK  5 active torsions:
REMARK  status: ('A' for Active; 'I' for Inactive)
REMARK    1  A    between atoms: C_1  and  N_56
REMARK    2  A    between atoms: N_4  and  C_7
REMARK    3  A    between atoms: C_8  and  C_18
REMARK    4  A    between atoms: N_22  and  C_26
REMARK    5  A    between atoms: C_26  and  C_27
REMARK                            x       y       z     vdW  Elec       q    Type
REMARK                         _______ _______ _______ _____ _____    ______ ____
ROOT
ATOM      1  C   UNL     1      -1.710  -2.228   0.357  0.00  0.00    +0.136 A 
ATOM      2  C   UNL     1      -1.768  -3.341  -0.514  0.00  0.00    +0.081 A 
ATOM      3  C   UNL     1      -3.037  -3.768  -0.974  0.00  0.00    +0.267 A 
ATOM      4  O   UNL     1      -3.134  -4.725  -1.723  0.00  0.00    -0.267 OA
ATOM      5  N   UNL     1      -4.136  -3.094  -0.575  0.00  0.00    -0.268 N 
ATOM      6  C   UNL     1      -5.362  -3.496  -1.016  0.00  0.00    +0.096 A 
ATOM      7  C   UNL     1      -6.483  -2.842  -0.636  0.00  0.00    +0.018 A 
ATOM      8  C   UNL     1      -6.396  -1.739   0.223  0.00  0.00    +0.005 A 
ATOM      9  C   UNL     1      -5.175  -1.330   0.671  0.00  0.00    +0.047 A 
ATOM     10  C   UNL     1      -4.020  -2.021   0.265  0.00  0.00    +0.142 A 
ATOM     11  N   UNL     1      -2.830  -1.614   0.708  0.00  0.00    -0.214 NA
ENDROOT
BRANCH   1  15
ATOM     12  C   UNL     1       2.654  -0.533   3.356  0.00  0.00    -0.096 C 
ATOM     13  C   UNL     1       0.733  -0.003   1.980  0.00  0.00    -0.060 C 
ATOM     14  C   UNL     1      -0.645  -0.502   1.538  0.00  0.00    +0.088 C 
ATOM     15  N   UNL     1      -0.496  -1.782   0.833  0.00  0.00    -0.318 N 
ATOM     16  C   UNL     1       0.131  -2.788   1.701  0.00  0.00    +0.088 C 
ATOM     17  C   UNL     1       1.509  -2.289   2.143  0.00  0.00    -0.060 C 
ATOM     18  N   UNL     1       1.343  -1.013   2.870  0.00  0.00    +0.380 N 
ATOM     19  H   UNL     1       0.724  -1.165   3.675  0.00  0.00    -0.082 HD
ENDBRANCH   1  15
BRANCH   2  20
ATOM     20  C   UNL     1      -0.589  -4.014  -0.911  0.00  0.00    +0.037 C 
ATOM     21  C   UNL     1       0.433  -3.316  -1.488  0.00  0.00    +0.077 C 
ATOM     22  C   UNL     1       1.715  -3.771  -1.909  0.00  0.00    +0.259 C 
ATOM     23  O   UNL     1       2.041  -4.937  -1.777  0.00  0.00    -0.269 OA
ATOM     24  N   UNL     1       2.540  -2.892  -2.452  0.00  0.00    -0.251 N 
ATOM     25  C   UNL     1       2.181  -1.596  -2.591  0.00  0.00    +0.121 C 
ATOM     26  S   UNL     1       3.082  -0.298  -3.250  0.00  0.00    -0.027 S 
ATOM     27  S   UNL     1       0.529  -1.582  -1.912  0.00  0.00    -0.061 S 
BRANCH  24  28
ATOM     28  C   UNL     1       3.865  -3.327  -2.902  0.00  0.00    +0.151 C 
BRANCH  28  29
ATOM     29  C   UNL     1       4.732  -3.615  -1.704  0.00  0.00    -0.011 A 
ATOM     30  C   UNL     1       4.851  -4.909  -1.232  0.00  0.00    +0.006 A 
ATOM     31  C   UNL     1       5.648  -5.174  -0.134  0.00  0.00    +0.000 A 
ATOM     32  C   UNL     1       6.326  -4.145   0.493  0.00  0.00    +0.001 A 
ATOM     33  C   UNL     1       6.207  -2.851   0.023  0.00  0.00    +0.020 A 
ATOM     34  C   UNL     1       5.415  -2.586  -1.080  0.00  0.00    +0.046 A 
ATOM     35 CL   UNL     1       5.272  -0.962  -1.677  0.00  0.00    -0.083 Cl
ENDBRANCH  28  29
ENDBRANCH  24  28
ENDBRANCH   2  20
TORSDOF 4
