REMARK  Name = ZINC39623391
REMARK  8 active torsions:
REMARK  status: ('A' for Active; 'I' for Inactive)
REMARK    1  A    between atoms: C_1  and  C_2
REMARK    2  A    between atoms: C_2  and  C_3
REMARK    3  A    between atoms: C_3  and  C_4
REMARK    4  A    between atoms: C_4  and  C_5
REMARK    5  A    between atoms: C_5  and  N_6
REMARK    6  A    between atoms: C_7  and  C_9
REMARK    7  A    between atoms: C_20  and  C_22
REMARK    8  A    between atoms: C_22  and  C_23
REMARK                            x       y       z     vdW  Elec       q    Type
REMARK                         _______ _______ _______ _____ _____    ______ ____
ROOT
ATOM      1  C   UNL     1      -3.966  -6.254   0.006  0.00  0.00    +0.100 C 
ATOM      2  C   UNL     1      -3.178  -6.788   1.224  0.00  0.00    +0.121 C 
ATOM      3  N   UNL     1      -4.213  -7.056   2.250  0.00  0.00    -0.300 N 
ATOM      4  C   UNL     1      -5.349  -7.627   1.488  0.00  0.00    +0.115 C 
ATOM      5  C   UNL     1      -5.389  -6.810   0.182  0.00  0.00    -0.004 C 
ATOM      6  C   UNL     1      -5.753  -7.712  -0.994  0.00  0.00    -0.010 C 
ATOM      7  C   UNL     1      -7.192  -8.205  -0.827  0.00  0.00    -0.082 C 
ATOM      8  N   UNL     1      -8.102  -7.055  -0.766  0.00  0.00    +0.379 N 
ATOM      9  C   UNL     1      -7.805  -6.243   0.420  0.00  0.00    -0.082 C 
ATOM     10  C   UNL     1      -6.391  -5.667   0.305  0.00  0.00    -0.010 C 
ATOM     11  C   UNL     1      -4.138  -6.832   3.577  0.00  0.00    +0.220 C 
ATOM     12  O   UNL     1      -5.077  -7.108   4.293  0.00  0.00    -0.275 OA
ATOM     13  H   UNL     1      -7.986  -6.491  -1.595  0.00  0.00    -0.086 HD
ATOM     14  H   UNL     1      -9.055  -7.383  -0.718  0.00  0.00    -0.086 HD
ENDROOT
BRANCH   1  16
ATOM     15  N   UNL     1      -4.084  -4.069  -1.145  0.00  0.00    -0.315 N 
ATOM     16  C   UNL     1      -3.986  -4.748   0.015  0.00  0.00    +0.218 C 
ATOM     17  O   UNL     1      -3.914  -4.146   1.065  0.00  0.00    -0.275 OA
ATOM     18  H   UNL     1      -4.142  -4.550  -1.986  0.00  0.00    +0.149 HD
BRANCH  15  19
ATOM     19  C   UNL     1      -4.104  -2.604  -1.137  0.00  0.00    +0.104 C 
BRANCH  19  20
ATOM     20  C   UNL     1      -4.221  -2.087  -2.573  0.00  0.00    +0.019 C 
BRANCH  20  21
ATOM     21  C   UNL     1      -4.242  -0.558  -2.564  0.00  0.00    +0.001 C 
BRANCH  21  23
ATOM     22  C   UNL     1      -4.380   1.489  -3.991  0.00  0.00    +0.004 C 
ATOM     23  C   UNL     1      -4.359  -0.041  -4.000  0.00  0.00    -0.003 C 
ENDBRANCH  21  23
ENDBRANCH  20  21
ENDBRANCH  19  20
ENDBRANCH  15  19
ENDBRANCH   1  16
BRANCH  11  24
ATOM     24  C   UNL     1      -2.886  -6.239   4.171  0.00  0.00    +0.131 C 
BRANCH  24  25
ATOM     25  C   UNL     1      -3.058  -6.092   5.661  0.00  0.00    -0.039 A 
ATOM     26  C   UNL     1      -3.587  -4.926   6.183  0.00  0.00    +0.005 A 
ATOM     27  C   UNL     1      -3.746  -4.790   7.550  0.00  0.00    +0.020 A 
ATOM     28  C   UNL     1      -3.375  -5.821   8.395  0.00  0.00    +0.041 A 
ATOM     29  C   UNL     1      -2.845  -6.987   7.872  0.00  0.00    +0.020 A 
ATOM     30  C   UNL     1      -2.692  -7.124   6.505  0.00  0.00    +0.005 A 
ATOM     31 CL   UNL     1      -3.573  -5.651  10.111  0.00  0.00    -0.084 Cl
ENDBRANCH  24  25
ENDBRANCH  11  24
TORSDOF 7
