REMARK  Name = ZINC33422738
REMARK  6 active torsions:
REMARK  status: ('A' for Active; 'I' for Inactive)
REMARK    1  A    between atoms: C_6  and  O_7
REMARK    2  A    between atoms: O_7  and  C_8
REMARK    3  A    between atoms: C_8  and  C_9
REMARK    4  A    between atoms: C_15  and  S_17
REMARK    5  A    between atoms: S_17  and  C_18
REMARK    6  A    between atoms: C_18  and  C_19
REMARK                            x       y       z     vdW  Elec       q    Type
REMARK                         _______ _______ _______ _____ _____    ______ ____
ROOT
ATOM      1  C   UNL     1       6.508   3.350  -0.042  0.00  0.00    +0.256 C 
ATOM      2  O   UNL     1       6.527   2.137  -0.048  0.00  0.00    -0.272 OA
ATOM      3  N   UNL     1       5.331   4.006  -0.027  0.00  0.00    -0.260 N 
ATOM      4  C   UNL     1       4.136   3.292  -0.020  0.00  0.00    +0.189 A 
ATOM      5  N   UNL     1       3.926   1.986  -0.025  0.00  0.00    -0.125 NA
ATOM      6  N   UNL     1       2.764   1.495  -0.017  0.00  0.00    -0.133 NA
ATOM      7  C   UNL     1       1.681   2.259  -0.002  0.00  0.00    +0.160 A 
ATOM      8  S   UNL     1       2.444   3.879  -0.008  0.00  0.00    -0.024 S 
ATOM      9  H   UNL     1       5.315   5.106  -0.021  0.00  0.00    +0.157 HD
ENDROOT
BRANCH   1  10
ATOM     10  C   UNL     1       7.802   4.123  -0.050  0.00  0.00    +0.324 C 
BRANCH  10  11
ATOM     11  O   UNL     1       8.902   3.211  -0.065  0.00  0.00    -0.483 OA
BRANCH  11  17
ATOM     12  C   UNL     1      10.312   5.127  -0.073  0.00  0.00    +0.047 A 
ATOM     13  C   UNL     1      11.582   5.671  -0.076  0.00  0.00    +0.019 A 
ATOM     14  C   UNL     1      12.691   4.844  -0.091  0.00  0.00    +0.018 A 
ATOM     15  C   UNL     1      12.531   3.470  -0.098  0.00  0.00    +0.019 A 
ATOM     16  C   UNL     1      11.263   2.921  -0.089  0.00  0.00    +0.047 A 
ATOM     17  C   UNL     1      10.150   3.749  -0.074  0.00  0.00    +0.121 A 
ATOM     18 BR   UNL     1      14.427   5.593  -0.102  0.00  0.00    -0.050 Br
ENDBRANCH  11  17
ENDBRANCH  10  11
ENDBRANCH   1  10
BRANCH   7  19
ATOM     19  S   UNL     1      -0.022   1.810   0.012  0.00  0.00    -0.092 S 
BRANCH  19  20
ATOM     20  C   UNL     1       0.002  -0.004   0.002  0.00  0.00    +0.113 C 
BRANCH  20  21
ATOM     21  C   UNL     1      -1.412  -0.526   0.013  0.00  0.00    -0.019 A 
ATOM     22  C   UNL     1      -2.071  -0.758  -1.180  0.00  0.00    +0.007 A 
ATOM     23  C   UNL     1      -3.368  -1.237  -1.171  0.00  0.00    +0.020 A 
ATOM     24  C   UNL     1      -4.006  -1.484   0.032  0.00  0.00    +0.042 A 
ATOM     25  C   UNL     1      -3.347  -1.251   1.225  0.00  0.00    +0.040 A 
ATOM     26  C   UNL     1      -2.047  -0.777   1.216  0.00  0.00    +0.046 A 
ATOM     27 CL   UNL     1      -1.216  -0.491   2.713  0.00  0.00    -0.083 Cl
ATOM     28 CL   UNL     1      -5.635  -2.085   0.043  0.00  0.00    -0.083 Cl
ENDBRANCH  20  21
ENDBRANCH  19  20
ENDBRANCH   7  19
TORSDOF 6
