REMARK  Name = ZINC39696490
REMARK  9 active torsions:
REMARK  status: ('A' for Active; 'I' for Inactive)
REMARK    1  A    between atoms: C_1  and  C_2
REMARK    2  A    between atoms: C_2  and  C_3
REMARK    3  A    between atoms: C_2  and  C_4
REMARK    4  A    between atoms: C_2  and  S_5
REMARK    5  A    between atoms: S_5  and  C_6
REMARK    6  A    between atoms: C_6  and  C_7
REMARK    7  A    between atoms: C_7  and  N_8
REMARK    8  A    between atoms: C_9  and  C_11
REMARK    9  A    between atoms: C_22  and  C_24
REMARK                            x       y       z     vdW  Elec       q    Type
REMARK                         _______ _______ _______ _____ _____    ______ ____
ROOT
ATOM      1  C   UNL     1       7.493   0.404  -3.030  0.00  0.00    +0.100 C 
ATOM      2  C   UNL     1       7.219   1.914  -3.204  0.00  0.00    +0.121 C 
ATOM      3  N   UNL     1       8.299   2.389  -4.102  0.00  0.00    -0.296 N 
ATOM      4  C   UNL     1       8.460   1.299  -5.093  0.00  0.00    +0.115 C 
ATOM      5  C   UNL     1       8.307   0.003  -4.272  0.00  0.00    -0.004 C 
ATOM      6  C   UNL     1       7.553  -1.048  -5.081  0.00  0.00    -0.010 C 
ATOM      7  C   UNL     1       8.408  -1.473  -6.278  0.00  0.00    -0.082 C 
ATOM      8  N   UNL     1       9.686  -2.016  -5.802  0.00  0.00    +0.379 N 
ATOM      9  C   UNL     1      10.445  -0.971  -5.105  0.00  0.00    -0.082 C 
ATOM     10  C   UNL     1       9.677  -0.525  -3.858  0.00  0.00    -0.010 C 
ATOM     11  C   UNL     1       8.981   3.550  -4.032  0.00  0.00    +0.249 C 
ATOM     12  O   UNL     1       9.779   3.839  -4.902  0.00  0.00    -0.270 OA
ATOM     13  H   UNL     1       9.509  -2.781  -5.168  0.00  0.00    -0.086 HD
ATOM     14  H   UNL     1      10.221  -2.351  -6.589  0.00  0.00    -0.086 HD
ENDROOT
BRANCH  11  15
ATOM     15  C   UNL     1       8.758   4.470  -2.898  0.00  0.00    +0.073 A 
ATOM     16  C   UNL     1       7.486   4.596  -2.336  0.00  0.00    +0.036 A 
ATOM     17  C   UNL     1       7.285   5.457  -1.277  0.00  0.00    +0.042 A 
ATOM     18  C   UNL     1       8.341   6.196  -0.770  0.00  0.00    +0.023 A 
ATOM     19  C   UNL     1       9.603   6.078  -1.321  0.00  0.00    +0.040 A 
ATOM     20  C   UNL     1       9.821   5.215  -2.379  0.00  0.00    +0.136 A 
ATOM     21  F   UNL     1      11.056   5.095  -2.913  0.00  0.00    -0.205 F 
ATOM     22 CL   UNL     1       5.704   5.614  -0.578  0.00  0.00    -0.084 Cl
ENDBRANCH  11  15
BRANCH   1  24
ATOM     23  N   UNL     1       6.120  -1.516  -2.290  0.00  0.00    -0.314 N 
ATOM     24  C   UNL     1       6.196  -0.362  -2.983  0.00  0.00    +0.218 C 
ATOM     25  O   UNL     1       5.221   0.059  -3.568  0.00  0.00    -0.275 OA
ATOM     26  H   UNL     1       6.900  -1.853  -1.822  0.00  0.00    +0.149 HD
BRANCH  23  27
ATOM     27  C   UNL     1       4.859  -2.261  -2.244  0.00  0.00    +0.115 C 
BRANCH  27  28
ATOM     28  C   UNL     1       5.043  -3.523  -1.399  0.00  0.00    +0.088 C 
BRANCH  28  29
ATOM     29  S   UNL     1       3.482  -4.445  -1.342  0.00  0.00    -0.153 S 
BRANCH  29  31
ATOM     30  C   UNL     1       4.311  -5.429   1.072  0.00  0.00    +0.022 C 
ATOM     31  C   UNL     1       3.864  -5.892  -0.316  0.00  0.00    +0.008 C 
ATOM     32  C   UNL     1       4.987  -6.699  -0.971  0.00  0.00    +0.022 C 
ATOM     33  C   UNL     1       2.616  -6.767  -0.185  0.00  0.00    +0.022 C 
ENDBRANCH  29  31
ENDBRANCH  28  29
ENDBRANCH  27  28
ENDBRANCH  23  27
ENDBRANCH   1  24
TORSDOF 6
