REMARK  Name = ZINC59113999
REMARK  8 active torsions:
REMARK  status: ('A' for Active; 'I' for Inactive)
REMARK    1  A    between atoms: C_4  and  C_7
REMARK    2  A    between atoms: C_7  and  C_8
REMARK    3  A    between atoms: C_13  and  N_14
REMARK    4  A    between atoms: N_14  and  C_15
REMARK    5  A    between atoms: C_15  and  N_17
REMARK    6  A    between atoms: N_17  and  C_18
REMARK    7  A    between atoms: C_21  and  N_24
REMARK    8  A    between atoms: N_25  and  C_26
REMARK                            x       y       z     vdW  Elec       q    Type
REMARK                         _______ _______ _______ _____ _____    ______ ____
ROOT
ATOM      1  C   UNL     1       2.228  -3.974   2.128  0.00  0.00    +0.139 C 
ATOM      2  S   UNL     1       2.504  -4.113   3.812  0.00  0.00    -0.018 S 
ENDROOT
BRANCH   1   3
ATOM      3  N   UNL     1       2.561  -2.839   1.482  0.00  0.00    -0.296 N 
ATOM      4  H   UNL     1       2.355  -2.739   0.539  0.00  0.00    +0.154 HD
BRANCH   3  10
ATOM      5  C   UNL     1       2.834  -0.486   1.950  0.00  0.00    -0.022 A 
ATOM      6  C   UNL     1       3.468   0.532   2.636  0.00  0.00    +0.006 A 
ATOM      7  C   UNL     1       4.474   0.238   3.537  0.00  0.00    +0.000 A 
ATOM      8  C   UNL     1       4.851  -1.075   3.754  0.00  0.00    +0.002 A 
ATOM      9  C   UNL     1       4.221  -2.097   3.071  0.00  0.00    +0.023 A 
ATOM     10  C   UNL     1       3.205  -1.805   2.170  0.00  0.00    +0.036 A 
BRANCH   5  11
ATOM     11  C   UNL     1       1.736  -0.165   0.969  0.00  0.00    +0.072 C 
BRANCH  11  15
ATOM     12  C   UNL     1      -2.053  -0.474   2.916  0.00  0.00    +0.000 A 
ATOM     13  C   UNL     1      -1.377   0.731   2.909  0.00  0.00    +0.000 A 
ATOM     14  C   UNL     1      -0.150   0.831   2.279  0.00  0.00    +0.004 A 
ATOM     15  C   UNL     1       0.400  -0.274   1.656  0.00  0.00    -0.043 A 
ATOM     16  C   UNL     1      -0.277  -1.480   1.664  0.00  0.00    +0.004 A 
ATOM     17  C   UNL     1      -1.504  -1.579   2.293  0.00  0.00    +0.000 A 
ENDBRANCH  11  15
ENDBRANCH   5  11
ENDBRANCH   3  10
ENDBRANCH   1   3
BRANCH   1  18
ATOM     18  N   UNL     1       1.676  -4.999   1.448  0.00  0.00    -0.297 N 
ATOM     19  H   UNL     1       1.605  -4.957   0.482  0.00  0.00    +0.154 HD
BRANCH  18  20
ATOM     20  C   UNL     1       1.209  -6.120   2.135  0.00  0.00    +0.033 A 
ATOM     21  C   UNL     1       0.488  -5.960   3.314  0.00  0.00    +0.025 A 
ATOM     22  C   UNL     1       0.025  -7.063   3.995  0.00  0.00    +0.031 A 
ATOM     23  C   UNL     1       0.280  -8.346   3.499  0.00  0.00    +0.086 A 
ATOM     24  C   UNL     1       1.005  -8.503   2.313  0.00  0.00    +0.031 A 
ATOM     25  C   UNL     1       1.460  -7.394   1.636  0.00  0.00    +0.025 A 
BRANCH  23  26
ATOM     26  N   UNL     1      -0.177  -9.443   4.171  0.00  0.00    -0.149 NA
ATOM     27  N   UNL     1       0.059 -10.625   3.713  0.00  0.00    -0.149 NA
BRANCH  27  28
ATOM     28  C   UNL     1      -0.399 -11.723   4.386  0.00  0.00    +0.086 A 
ATOM     29  C   UNL     1      -1.127 -11.569   5.568  0.00  0.00    +0.029 A 
ATOM     30  C   UNL     1      -1.586 -12.681   6.242  0.00  0.00    +0.002 A 
ATOM     31  C   UNL     1      -1.325 -13.949   5.750  0.00  0.00    +0.000 A 
ATOM     32  C   UNL     1      -0.604 -14.109   4.580  0.00  0.00    +0.002 A 
ATOM     33  C   UNL     1      -0.145 -13.006   3.892  0.00  0.00    +0.029 A 
ENDBRANCH  27  28
ENDBRANCH  23  26
ENDBRANCH  18  20
ENDBRANCH   1  18
TORSDOF 8
