REMARK  Name = ZINC34686400
REMARK  12 active torsions:
REMARK  status: ('A' for Active; 'I' for Inactive)
REMARK    1  A    between atoms: C_1  and  C_2
REMARK    2  A    between atoms: C_2  and  C_3
REMARK    3  A    between atoms: C_3  and  C_5
REMARK    4  A    between atoms: C_3  and  O_15
REMARK    5  A    between atoms: N_7  and  C_8
REMARK    6  A    between atoms: C_8  and  C_9
REMARK    7  A    between atoms: C_9  and  N_10
REMARK    8  A    between atoms: O_15  and  C_16
REMARK    9  A    between atoms: C_22  and  C_32
REMARK   10  A    between atoms: C_27  and  C_29
REMARK   11  A    between atoms: C_29  and  C_30
REMARK   12  A    between atoms: C_29  and  C_31
REMARK                            x       y       z     vdW  Elec       q    Type
REMARK                         _______ _______ _______ _____ _____    ______ ____
ROOT
ATOM      1  C   UNL     1      -3.478   0.820   1.334  0.00  0.00    +0.122 A 
ATOM      2  C   UNL     1      -3.742   1.560   0.191  0.00  0.00    +0.046 A 
ATOM      3  C   UNL     1      -4.262   2.832   0.304  0.00  0.00    +0.007 A 
ATOM      4  C   UNL     1      -4.529   3.380   1.553  0.00  0.00    -0.040 A 
ATOM      5  C   UNL     1      -4.277   2.642   2.688  0.00  0.00    -0.016 A 
ATOM      6  C   UNL     1      -3.751   1.362   2.578  0.00  0.00    +0.051 A 
ATOM      7  C   UNL     1      -4.570   3.164   4.072  0.00  0.00    +0.137 C 
ATOM      8  N   UNL     1      -4.867   4.599   4.006  0.00  0.00    -0.290 N 
ATOM      9  C   UNL     1      -5.767   5.054   2.934  0.00  0.00    +0.113 C 
ATOM     10  C   UNL     1      -5.082   4.780   1.596  0.00  0.00    +0.054 C 
ATOM     11  C   UNL     1      -4.336   5.466   4.891  0.00  0.00    +0.219 C 
ATOM     12  O   UNL     1      -3.634   5.059   5.793  0.00  0.00    -0.275 OA
ENDROOT
BRANCH   7  13
ATOM     13  C   UNL     1      -5.758   2.433   4.643  0.00  0.00    -0.020 A 
ATOM     14  C   UNL     1      -5.657   1.801   5.869  0.00  0.00    +0.006 A 
ATOM     15  C   UNL     1      -6.745   1.130   6.393  0.00  0.00    +0.003 A 
ATOM     16  C   UNL     1      -7.936   1.090   5.693  0.00  0.00    +0.038 A 
ATOM     17  C   UNL     1      -8.039   1.722   4.465  0.00  0.00    +0.124 A 
ATOM     18  C   UNL     1      -6.949   2.399   3.944  0.00  0.00    +0.044 A 
ATOM     19  F   UNL     1      -9.202   1.683   3.780  0.00  0.00    -0.205 F 
ENDBRANCH   7  13
BRANCH  11  20
ATOM     20  C   UNL     1      -4.614   6.941   4.760  0.00  0.00    +0.069 C 
ATOM     21  C   UNL     1      -4.086   7.672   5.996  0.00  0.00    +0.017 C 
ATOM     22  C   UNL     1      -3.916   7.483   3.511  0.00  0.00    +0.017 C 
ENDBRANCH  11  20
BRANCH   1  23
ATOM     23  O   UNL     1      -2.961  -0.433   1.233  0.00  0.00    -0.480 OA
BRANCH  23  24
ATOM     24  C   UNL     1      -2.669  -0.910  -0.082  0.00  0.00    +0.258 C 
BRANCH  24  25
ATOM     25  C   UNL     1      -2.931  -2.393  -0.148  0.00  0.00    +0.254 C 
ATOM     26  O   UNL     1      -3.241  -2.999   0.855  0.00  0.00    -0.272 OA
ATOM     27  N   UNL     1      -2.820  -3.045  -1.323  0.00  0.00    -0.314 N 
ATOM     28  H   UNL     1      -2.572  -2.559  -2.125  0.00  0.00    +0.149 HD
BRANCH  27  29
ATOM     29  C   UNL     1      -3.075  -4.486  -1.387  0.00  0.00    +0.086 C 
BRANCH  29  30
ATOM     30  C   UNL     1      -2.882  -4.974  -2.824  0.00  0.00    -0.060 C 
BRANCH  30  31
ATOM     31  N   UNL     1      -3.137  -6.419  -2.889  0.00  0.00    +0.381 N 
ATOM     32  C   UNL     1      -4.579  -6.695  -2.660  0.00  0.00    -0.079 C 
ATOM     33  C   UNL     1      -4.778  -8.093  -3.299  0.00  0.00    -0.020 C 
ATOM     34  C   UNL     1      -3.868  -8.035  -4.548  0.00  0.00    -0.020 C 
ATOM     35  C   UNL     1      -2.839  -6.929  -4.245  0.00  0.00    -0.079 C 
ATOM     36  H   UNL     1      -2.576  -6.903  -2.204  0.00  0.00    -0.082 HD
ENDBRANCH  30  31
ENDBRANCH  29  30
ENDBRANCH  27  29
ENDBRANCH  24  25
BRANCH  24  38
ATOM     37  C   UNL     1      -0.962   0.874  -0.464  0.00  0.00    +0.008 C 
ATOM     38  C   UNL     1      -1.199  -0.637  -0.409  0.00  0.00    +0.051 C 
ENDBRANCH  24  38
ENDBRANCH  23  24
ENDBRANCH   1  23
TORSDOF 9
