REMARK  Name = ZINC01406960
REMARK  5 active torsions:
REMARK  status: ('A' for Active; 'I' for Inactive)
REMARK    1  A    between atoms: C_1  and  C_2
REMARK    2  A    between atoms: C_2  and  S_3
REMARK    3  A    between atoms: S_3  and  C_4
REMARK    4  A    between atoms: C_6  and  C_19
REMARK    5  A    between atoms: C_22  and  C_25
REMARK                            x       y       z     vdW  Elec       q    Type
REMARK                         _______ _______ _______ _____ _____    ______ ____
ROOT
ATOM      1  C   UNL     1       5.667  -1.846  -0.330  0.00  0.00    +0.154 C 
ATOM      2  N   UNL     1       5.224  -3.059  -0.340  0.00  0.00    -0.250 NA
ATOM      3  C   UNL     1       3.843  -3.442  -0.050  0.00  0.00    +0.173 C 
ATOM      4  C   UNL     1       2.977  -2.208  -0.039  0.00  0.00    +0.050 C 
ATOM      5  C   UNL     1       3.509  -0.946  -0.038  0.00  0.00    +0.050 C 
ATOM      6  N   UNL     1       4.873  -0.748  -0.054  0.00  0.00    -0.293 N 
ATOM      7  C   UNL     1       2.417   0.046  -0.021  0.00  0.00    +0.007 A 
ATOM      8  C   UNL     1       2.385   1.430  -0.012  0.00  0.00    +0.010 A 
ATOM      9  C   UNL     1       1.165   2.097   0.002  0.00  0.00    +0.001 A 
ATOM     10  C   UNL     1      -0.017   1.388   0.010  0.00  0.00    +0.001 A 
ATOM     11  C   UNL     1       0.002  -0.004   0.002  0.00  0.00    +0.012 A 
ATOM     12  C   UNL     1       1.207  -0.676  -0.013  0.00  0.00    +0.031 A 
ATOM     13  C   UNL     1       1.572  -2.122  -0.026  0.00  0.00    +0.194 C 
ATOM     14  O   UNL     1       0.796  -3.058  -0.025  0.00  0.00    -0.287 OA
ATOM     15  H   UNL     1       5.260   0.124   0.121  0.00  0.00    +0.154 HD
ENDROOT
BRANCH   3  16
ATOM     16  C   UNL     1       3.351  -4.393  -1.110  0.00  0.00    -0.019 A 
ATOM     17  C   UNL     1       3.684  -4.184  -2.435  0.00  0.00    +0.006 A 
ATOM     18  C   UNL     1       3.236  -5.059  -3.407  0.00  0.00    +0.004 A 
ATOM     19  C   UNL     1       2.447  -6.138  -3.055  0.00  0.00    -0.050 A 
ATOM     20  C   UNL     1       2.109  -6.345  -1.730  0.00  0.00    +0.004 A 
ATOM     21  C   UNL     1       2.561  -5.472  -0.758  0.00  0.00    +0.006 A 
ATOM     22  C   UNL     1       1.955  -7.090  -4.115  0.00  0.00    +0.044 C 
ENDBRANCH   3  16
BRANCH   1  23
ATOM     23  S   UNL     1       7.371  -1.577  -0.687  0.00  0.00    -0.091 S 
BRANCH  23  25
ATOM     24  C   UNL     1       9.401  -3.300  -1.296  0.00  0.00    +0.016 C 
ATOM     25  C   UNL     1       7.909  -3.283  -0.961  0.00  0.00    +0.074 C 
ENDBRANCH  23  25
ENDBRANCH   1  23
TORSDOF 3
