REMARK  Name = ZINC24034360
REMARK  7 active torsions:
REMARK  status: ('A' for Active; 'I' for Inactive)
REMARK    1  A    between atoms: C_1  and  O_2
REMARK    2  A    between atoms: O_2  and  C_3
REMARK    3  A    between atoms: C_5  and  C_11
REMARK    4  A    between atoms: C_7  and  O_10
REMARK    5  A    between atoms: C_8  and  O_9
REMARK    6  A    between atoms: N_22  and  C_23
REMARK    7  A    between atoms: C_23  and  C_24
REMARK                            x       y       z     vdW  Elec       q    Type
REMARK                         _______ _______ _______ _____ _____    ______ ____
ROOT
ATOM      1  C   UNL     1       5.260   3.030   0.028  0.00  0.00    +0.193 C 
ATOM      2  N   UNL     1       6.106   2.494  -1.046  0.00  0.00    -0.321 N 
ATOM      3  C   UNL     1       6.750   1.280  -0.841  0.00  0.00    +0.041 A 
ATOM      4  C   UNL     1       7.038   0.417  -1.884  0.00  0.00    +0.024 A 
ATOM      5  C   UNL     1       7.673  -0.782  -1.624  0.00  0.00    +0.002 A 
ATOM      6  C   UNL     1       8.022  -1.128  -0.328  0.00  0.00    +0.001 A 
ATOM      7  C   UNL     1       7.744  -0.279   0.723  0.00  0.00    +0.015 A 
ATOM      8  C   UNL     1       7.106   0.934   0.475  0.00  0.00    +0.058 A 
ATOM      9  C   UNL     1       6.789   1.880   1.560  0.00  0.00    +0.250 C 
ATOM     10  O   UNL     1       7.291   1.746   2.659  0.00  0.00    -0.270 OA
ATOM     11  N   UNL     1       5.936   2.897   1.319  0.00  0.00    -0.271 N 
ATOM     12  H   UNL     1       6.218   3.052  -1.987  0.00  0.00    +0.148 HD
ENDROOT
BRANCH   1  15
ATOM     13  C   UNL     1       1.580   2.212  -0.237  0.00  0.00    +0.165 A 
ATOM     14  C   UNL     1       2.780   2.907  -0.269  0.00  0.00    +0.056 A 
ATOM     15  C   UNL     1       3.959   2.270   0.066  0.00  0.00    -0.002 A 
ATOM     16  C   UNL     1       3.950   0.938   0.434  0.00  0.00    +0.056 A 
ATOM     17  C   UNL     1       2.754   0.237   0.474  0.00  0.00    +0.162 A 
ATOM     18  C   UNL     1       1.566   0.872   0.133  0.00  0.00    +0.201 A 
BRANCH  13  20
ATOM     19  C   UNL     1       0.509   4.217  -0.936  0.00  0.00    +0.277 C 
ATOM     20  O   UNL     1       0.419   2.840  -0.565  0.00  0.00    -0.491 OA
ENDBRANCH  13  20
BRANCH  18  21
ATOM     21  O   UNL     1       0.391   0.186   0.167  0.00  0.00    -0.501 OA
ATOM     22  H   UNL     1       0.382  -0.874   0.460  0.00  0.00    +0.292 HD
ENDBRANCH  18  21
BRANCH  17  23
ATOM     23  O   UNL     1       2.745  -1.073   0.842  0.00  0.00    -0.503 OA
ATOM     24  H   UNL     1       1.796  -1.628   0.874  0.00  0.00    +0.292 HD
ENDBRANCH  17  23
ENDBRANCH   1  15
BRANCH  11  25
ATOM     25  C   UNL     1       5.681   3.886   2.369  0.00  0.00    +0.145 C 
BRANCH  25  26
ATOM     26  C   UNL     1       4.580   3.390   3.270  0.00  0.00    -0.026 A 
ATOM     27  C   UNL     1       3.269   3.754   3.022  0.00  0.00    +0.009 A 
ATOM     28  C   UNL     1       2.255   3.297   3.842  0.00  0.00    +0.050 A 
ATOM     29  C   UNL     1       2.551   2.483   4.923  0.00  0.00    +0.166 A 
ATOM     30  C   UNL     1       3.872   2.121   5.177  0.00  0.00    +0.167 A 
ATOM     31  C   UNL     1       4.883   2.578   4.347  0.00  0.00    +0.054 A 
ATOM     32  O   UNL     1       3.901   1.324   6.285  0.00  0.00    -0.453 OA
ATOM     33  C   UNL     1       2.638   1.535   6.943  0.00  0.00    +0.466 C 
ATOM     34  O   UNL     1       1.753   1.912   5.872  0.00  0.00    -0.453 OA
ENDBRANCH  25  26
ENDBRANCH  11  25
TORSDOF 6
