REMARK  Name = ZINC02478910
REMARK  7 active torsions:
REMARK  status: ('A' for Active; 'I' for Inactive)
REMARK    1  A    between atoms: C_1  and  C_2
REMARK    2  A    between atoms: C_11  and  C_25
REMARK    3  A    between atoms: C_17  and  C_22
REMARK    4  A    between atoms: C_22  and  C_24
REMARK    5  A    between atoms: C_26  and  C_35
REMARK    6  A    between atoms: C_27  and  O_34
REMARK    7  A    between atoms: C_29  and  O_33
REMARK                            x       y       z     vdW  Elec       q    Type
REMARK                         _______ _______ _______ _____ _____    ______ ____
ROOT
ATOM      1  C   UNL     1       0.031   0.342  -1.361  0.00  0.00    +0.010 C 
ATOM      2  C   UNL     1      -0.061  -1.144  -1.048  0.00  0.00    +0.019 C 
ATOM      3  C   UNL     1      -1.524  -1.544  -0.856  0.00  0.00    +0.010 C 
ATOM      4  C   UNL     1      -2.043  -1.031   0.483  0.00  0.00    -0.003 C 
ATOM      5  C   UNL     1      -1.237  -1.661   1.617  0.00  0.00    +0.001 C 
ATOM      6  C   UNL     1      -1.491  -3.165   1.606  0.00  0.00    +0.005 C 
ATOM      7  C   UNL     1      -2.967  -3.396   1.943  0.00  0.00    +0.008 C 
ATOM      8  C   UNL     1      -3.892  -2.762   0.910  0.00  0.00    -0.016 C 
ATOM      9  C   UNL     1      -3.526  -1.296   0.639  0.00  0.00    -0.000 C 
ATOM     10  C   UNL     1      -4.115  -0.494   1.809  0.00  0.00    +0.009 C 
ATOM     11  C   UNL     1      -5.276  -1.349   2.372  0.00  0.00    +0.003 C 
ATOM     12  C   UNL     1      -5.296  -2.633   1.568  0.00  0.00    +0.037 C 
ATOM     13  C   UNL     1      -5.715  -3.895   2.265  0.00  0.00    +0.015 C 
ATOM     14  C   UNL     1      -5.329  -3.968   3.734  0.00  0.00    +0.001 C 
ATOM     15  C   UNL     1      -5.820  -2.698   4.436  0.00  0.00    +0.000 C 
ATOM     16  C   UNL     1      -5.058  -1.511   3.864  0.00  0.00    +0.004 C 
ATOM     17  C   UNL     1      -3.973  -3.594  -0.380  0.00  0.00    +0.012 C 
ATOM     18  C   UNL     1       0.238  -1.297   1.492  0.00  0.00    +0.000 C 
ATOM     19  C   UNL     1       0.806  -1.589   0.117  0.00  0.00    +0.077 C 
ATOM     20  C   UNL     1       2.238  -1.102  -0.039  0.00  0.00    +0.067 C 
ATOM     21  C   UNL     1       2.609   0.212   0.600  0.00  0.00    +0.117 C 
ATOM     22  C   UNL     1       1.889   0.547   1.891  0.00  0.00    +0.032 C 
ATOM     23  C   UNL     1       0.414   0.179   1.857  0.00  0.00    +0.012 C 
ATOM     24  C   UNL     1       1.028  -2.124   2.528  0.00  0.00    +0.014 C 
ENDROOT
BRANCH  12  25
ATOM     25  C   UNL     1      -6.286  -2.426   0.437  0.00  0.00    +0.137 C 
ATOM     26  O   UNL     1      -6.743  -1.327   0.228  0.00  0.00    -0.297 OA
ATOM     27  C   UNL     1      -6.699  -3.590  -0.427  0.00  0.00    +0.086 C 
ENDBRANCH  12  25
BRANCH  21  28
ATOM     28  O   UNL     1       2.500   1.298  -0.326  0.00  0.00    -0.392 OA
ATOM     29  H   UNL     1       2.730   2.159   0.050  0.00  0.00    +0.210 HD
ENDBRANCH  21  28
BRANCH  19  30
ATOM     30  O   UNL     1       0.888  -3.043   0.017  0.00  0.00    -0.388 OA
ATOM     31  H   UNL     1       1.278  -3.360  -0.809  0.00  0.00    +0.210 HD
ENDBRANCH  19  30
TORSDOF 3
