REMARK  Name = ZINC38511752
REMARK  8 active torsions:
REMARK  status: ('A' for Active; 'I' for Inactive)
REMARK    1  A    between atoms: C_3  and  S_27
REMARK    2  A    between atoms: C_6  and  C_7
REMARK    3  A    between atoms: C_7  and  N_8
REMARK    4  A    between atoms: C_9  and  C_11
REMARK    5  A    between atoms: N_16  and  C_17
REMARK    6  A    between atoms: C_20  and  O_23
REMARK    7  A    between atoms: O_23  and  C_24
REMARK    8  A    between atoms: S_27  and  N_30
REMARK                            x       y       z     vdW  Elec       q    Type
REMARK                         _______ _______ _______ _____ _____    ______ ____
ROOT
ATOM      1  N   UNL     1      -2.102  -0.466  -1.401  0.00  0.00    -0.306 N 
ATOM      2  C   UNL     1      -3.129  -1.309  -1.629  0.00  0.00    +0.263 C 
ATOM      3  O   UNL     1      -3.800  -1.715  -0.699  0.00  0.00    -0.269 OA
ATOM      4  H   UNL     1      -1.567  -0.142  -2.142  0.00  0.00    +0.149 HD
ENDROOT
BRANCH   2   5
ATOM      5  C   UNL     1      -3.438  -1.737  -3.003  0.00  0.00    +0.135 A 
ATOM      6  C   UNL     1      -4.485  -2.591  -3.247  0.00  0.00    +0.081 A 
ATOM      7  S   UNL     1      -4.379  -2.748  -5.024  0.00  0.00    -0.060 S 
ATOM      8  C   UNL     1      -2.970  -1.676  -5.265  0.00  0.00    +0.163 A 
ATOM      9  N   UNL     1      -2.709  -1.297  -4.030  0.00  0.00    -0.220 NA
ATOM     10  N   UNL     1      -2.325  -1.329  -6.441  0.00  0.00    -0.294 N 
ATOM     11  H   UNL     1      -1.514  -0.798  -6.411  0.00  0.00    +0.154 HD
BRANCH  10  12
ATOM     12  C   UNL     1      -2.844  -1.746  -7.673  0.00  0.00    +0.033 A 
ATOM     13  C   UNL     1      -4.217  -1.861  -7.845  0.00  0.00    +0.027 A 
ATOM     14  C   UNL     1      -4.729  -2.272  -9.060  0.00  0.00    +0.047 A 
ATOM     15  C   UNL     1      -3.871  -2.570 -10.109  0.00  0.00    +0.127 A 
ATOM     16  C   UNL     1      -2.499  -2.455  -9.938  0.00  0.00    +0.047 A 
ATOM     17  C   UNL     1      -1.986  -2.039  -8.725  0.00  0.00    +0.027 A 
BRANCH  15  18
ATOM     18  O   UNL     1      -4.375  -2.975 -11.305  0.00  0.00    -0.434 OA
BRANCH  18  19
ATOM     19  C   UNL     1      -3.434  -3.265 -12.341  0.00  0.00    +0.541 C 
ATOM     20  F   UNL     1      -2.679  -2.120 -12.619  0.00  0.00    -0.166 F 
ATOM     21  F   UNL     1      -2.583  -4.294 -11.923  0.00  0.00    -0.166 F 
ENDBRANCH  18  19
ENDBRANCH  15  18
ENDBRANCH  10  12
ENDBRANCH   2   5
BRANCH   1  22
ATOM     22  C   UNL     1      -1.794  -0.040  -0.034  0.00  0.00    +0.140 C 
BRANCH  22  28
ATOM     23  C   UNL     1      -0.806   2.255  -0.187  0.00  0.00    +0.007 A 
ATOM     24  C   UNL     1       0.280   3.111  -0.204  0.00  0.00    +0.029 A 
ATOM     25  C   UNL     1       1.561   2.605  -0.088  0.00  0.00    +0.105 A 
ATOM     26  C   UNL     1       1.756   1.243   0.046  0.00  0.00    +0.029 A 
ATOM     27  C   UNL     1       0.671   0.387   0.065  0.00  0.00    +0.007 A 
ATOM     28  C   UNL     1      -0.610   0.893  -0.053  0.00  0.00    -0.030 A 
BRANCH  25  29
ATOM     29  S   UNL     1       2.944   3.696  -0.111  0.00  0.00    +0.056 S 
ATOM     30  O   UNL     1       4.061   2.926  -0.533  0.00  0.00    -0.153 OA
ATOM     31  O   UNL     1       2.525   4.869  -0.795  0.00  0.00    -0.153 OA
BRANCH  29  32
ATOM     32  N   UNL     1       3.242   4.142   1.456  0.00  0.00    -0.204 NA
ATOM     33  H   UNL     1       4.146   4.356   1.736  0.00  0.00    +0.144 HD
ATOM     34  H   UNL     1       2.513   4.189   2.094  0.00  0.00    +0.144 HD
ENDBRANCH  29  32
ENDBRANCH  25  29
ENDBRANCH  22  28
ENDBRANCH   1  22
TORSDOF 8
