REMARK  Name = ZINC63751620
REMARK  10 active torsions:
REMARK  status: ('A' for Active; 'I' for Inactive)
REMARK    1  A    between atoms: C_1  and  C_2
REMARK    2  A    between atoms: C_7  and  O_8
REMARK    3  A    between atoms: O_8  and  C_9
REMARK    4  A    between atoms: C_9  and  C_10
REMARK    5  A    between atoms: N_12  and  C_13
REMARK    6  A    between atoms: C_16  and  S_19
REMARK    7  A    between atoms: S_19  and  C_20
REMARK    8  A    between atoms: C_20  and  C_21
REMARK    9  A    between atoms: C_28  and  C_34
REMARK   10  A    between atoms: C_29  and  C_33
REMARK                            x       y       z     vdW  Elec       q    Type
REMARK                         _______ _______ _______ _____ _____    ______ ____
ROOT
ATOM      1  C   UNL     1      -0.275   0.623   6.946  0.00  0.00    +0.034 A 
ATOM      2  C   UNL     1      -0.426   1.988   6.742  0.00  0.00    +0.024 A 
ATOM      3  C   UNL     1      -0.492   2.844   7.822  0.00  0.00    +0.016 A 
ATOM      4  C   UNL     1      -0.408   2.340   9.115  0.00  0.00    +0.008 A 
ATOM      5  C   UNL     1      -0.257   0.974   9.318  0.00  0.00    +0.016 A 
ATOM      6  C   UNL     1      -0.196   0.118   8.238  0.00  0.00    +0.024 A 
ENDROOT
BRANCH   1   9
ATOM      7  C   UNL     1      -0.754  -1.476   5.929  0.00  0.00    +0.255 C 
ATOM      8  O   UNL     1      -1.232  -1.861   6.975  0.00  0.00    -0.272 OA
ATOM      9  N   UNL     1      -0.207  -0.247   5.849  0.00  0.00    -0.283 N 
ATOM     10  H   UNL     1       0.232   0.036   5.032  0.00  0.00    +0.155 HD
BRANCH   7  11
ATOM     11  C   UNL     1      -0.771  -2.373   4.718  0.00  0.00    +0.324 C 
BRANCH  11  12
ATOM     12  O   UNL     1      -1.398  -3.613   5.052  0.00  0.00    -0.483 OA
BRANCH  12  19
ATOM     13  C   UNL     1      -2.635  -6.071   5.692  0.00  0.00    +0.047 C 
ATOM     14  C   UNL     1      -2.093  -5.767   4.319  0.00  0.00    -0.009 A 
ATOM     15  C   UNL     1      -2.196  -6.707   3.312  0.00  0.00    +0.007 A 
ATOM     16  C   UNL     1      -1.699  -6.429   2.052  0.00  0.00    +0.000 A 
ATOM     17  C   UNL     1      -1.098  -5.210   1.797  0.00  0.00    +0.004 A 
ATOM     18  C   UNL     1      -0.993  -4.267   2.801  0.00  0.00    +0.046 A 
ATOM     19  C   UNL     1      -1.496  -4.541   4.064  0.00  0.00    +0.124 A 
ENDBRANCH  12  19
ENDBRANCH  11  12
ENDBRANCH   7  11
ENDBRANCH   1   9
BRANCH   4  20
ATOM     20  S   UNL     1      -0.492   3.433  10.494  0.00  0.00    -0.123 S 
BRANCH  20  21
ATOM     21  C   UNL     1      -0.341   2.337  11.932  0.00  0.00    +0.108 C 
BRANCH  21  22
ATOM     22  C   UNL     1      -0.399   3.169  13.215  0.00  0.00    +0.176 C 
ATOM     23  C   UNL     1      -0.046   2.259  14.370  0.00  0.00    +0.240 C 
ATOM     24  O   UNL     1       1.018   1.674  14.389  0.00  0.00    -0.273 OA
ATOM     25  N   UNL     1      -0.919   2.109  15.368  0.00  0.00    -0.282 N 
ATOM     26  C   UNL     1      -2.083   2.735  15.372  0.00  0.00    +0.057 A 
ATOM     27  C   UNL     1      -2.984   2.553  16.445  0.00  0.00    +0.029 A 
ATOM     28  C   UNL     1      -4.178   3.192  16.453  0.00  0.00    -0.046 A 
ATOM     29  C   UNL     1      -4.586   4.053  15.422  0.00  0.00    -0.045 A 
ATOM     30  C   UNL     1      -3.801   4.298  14.349  0.00  0.00    +0.030 A 
ATOM     31  C   UNL     1      -2.487   3.640  14.266  0.00  0.00    +0.058 A 
ATOM     32  N   UNL     1      -1.702   3.850  13.249  0.00  0.00    -0.372 N 
ATOM     33  C   UNL     1      -5.933   4.723  15.514  0.00  0.00    +0.044 C 
ATOM     34  C   UNL     1      -5.108   2.969  17.618  0.00  0.00    +0.044 C 
ATOM     35  H   UNL     1      -1.972   4.443  12.530  0.00  0.00    +0.160 HD
ATOM     36  H   UNL     1      -0.693   1.525  16.110  0.00  0.00    +0.155 HD
ENDBRANCH  21  22
ENDBRANCH  20  21
ENDBRANCH   4  20
TORSDOF 7
