REMARK  Name = ZINC12689995
REMARK  11 active torsions:
REMARK  status: ('A' for Active; 'I' for Inactive)
REMARK    1  A    between atoms: C_1  and  C_2
REMARK    2  A    between atoms: C_7  and  C_8
REMARK    3  A    between atoms: C_7  and  N_70
REMARK    4  A    between atoms: N_20  and  C_21
REMARK    5  A    between atoms: C_21  and  C_22
REMARK    6  A    between atoms: C_22  and  C_24
REMARK    7  A    between atoms: C_22  and  N_72
REMARK    8  A    between atoms: C_28  and  O_30
REMARK    9  A    between atoms: O_30  and  C_31
REMARK   10  A    between atoms: C_32  and  N_72
REMARK   11  A    between atoms: C_33  and  N_72
REMARK                            x       y       z     vdW  Elec       q    Type
REMARK                         _______ _______ _______ _____ _____    ______ ____
ROOT
ATOM      1  C   UNL     1       2.910   2.432  -0.561  0.00  0.00    +0.116 A 
ATOM      2  N   UNL     1       3.395   1.205  -0.483  0.00  0.00    -0.219 NA
ATOM      3  C   UNL     1       4.694   0.957  -0.528  0.00  0.00    +0.131 A 
ATOM      4  C   UNL     1       5.599   2.045  -0.666  0.00  0.00    +0.051 A 
ATOM      5  C   UNL     1       7.069   2.009  -0.738  0.00  0.00    -0.025 A 
ATOM      6  C   UNL     1       7.699   3.188  -0.868  0.00  0.00    -0.004 A 
ATOM      7  S   UNL     1       6.403   4.404  -0.904  0.00  0.00    -0.073 S 
ATOM      8  C   UNL     1       5.011   3.320  -0.743  0.00  0.00    +0.114 A 
ATOM      9  N   UNL     1       3.702   3.479  -0.690  0.00  0.00    -0.227 NA
ATOM     10  C   UNL     1       9.195   3.029  -0.928  0.00  0.00    +0.043 C 
ATOM     11  C   UNL     1       9.456   1.607  -0.384  0.00  0.00    +0.010 C 
ATOM     12  C   UNL     1       8.125   0.900  -0.705  0.00  0.00    +0.037 C 
ATOM     13  N   UNL     1       5.165  -0.341  -0.443  0.00  0.00    -0.330 N 
ATOM     14  H   UNL     1       6.112  -0.522  -0.552  0.00  0.00    +0.147 HD
ENDROOT
BRANCH   1  15
ATOM     15  C   UNL     1       1.419   2.639  -0.503  0.00  0.00    -0.001 C 
BRANCH  15  22
ATOM     16  C   UNL     1      -1.097   1.604  -5.530  0.00  0.00    +0.007 C 
ATOM     17  C   UNL     1      -0.605   1.479  -4.087  0.00  0.00    -0.018 C 
ATOM     18  C   UNL     1      -1.148   2.647  -3.258  0.00  0.00    -0.016 C 
ATOM     19  C   UNL     1      -0.603   2.550  -1.831  0.00  0.00    -0.078 C 
ATOM     20  C   UNL     1       1.411   1.452  -2.613  0.00  0.00    -0.078 C 
ATOM     21  C   UNL     1       0.926   1.516  -4.063  0.00  0.00    -0.016 C 
ATOM     22  N   UNL     1       0.873   2.615  -1.876  0.00  0.00    +0.384 N 
ATOM     23  H   UNL     1       1.154   3.475  -2.361  0.00  0.00    -0.081 HD
ENDBRANCH  15  22
ENDBRANCH   1  15
BRANCH  13  24
ATOM     24  C   UNL     1       4.233  -1.443  -0.189  0.00  0.00    +0.092 C 
BRANCH  24  25
ATOM     25  C   UNL     1       5.018  -2.745  -0.019  0.00  0.00    -0.021 C 
BRANCH  25  26
ATOM     26  C   UNL     1       4.069  -3.860   0.340  0.00  0.00    -0.056 A 
ATOM     27  C   UNL     1       3.132  -3.674   1.339  0.00  0.00    +0.002 A 
ATOM     28  C   UNL     1       2.260  -4.694   1.670  0.00  0.00    +0.004 A 
ATOM     29  C   UNL     1       2.322  -5.902   1.003  0.00  0.00    +0.045 A 
ATOM     30  C   UNL     1       3.262  -6.091  -0.000  0.00  0.00    +0.120 A 
ATOM     31  C   UNL     1       4.133  -5.064  -0.334  0.00  0.00    +0.047 A 
BRANCH  30  32
ATOM     32  O   UNL     1       3.325  -7.278  -0.659  0.00  0.00    -0.495 OA
ATOM     33  C   UNL     1       2.393  -8.288  -0.267  0.00  0.00    +0.277 C 
ENDBRANCH  30  32
ENDBRANCH  25  26
BRANCH  25  36
ATOM     34  C   UNL     1       5.355  -2.438   2.359  0.00  0.00    -0.096 C 
ATOM     35  C   UNL     1       6.962  -3.702   1.061  0.00  0.00    -0.096 C 
ATOM     36  N   UNL     1       6.025  -2.559   1.046  0.00  0.00    +0.382 N 
ATOM     37  H   UNL     1       6.552  -1.698   0.860  0.00  0.00    -0.082 HD
ENDBRANCH  25  36
ENDBRANCH  24  25
ENDBRANCH  13  24
TORSDOF 7
