REMARK  Name = ZINC15860357
REMARK  11 active torsions:
REMARK  status: ('A' for Active; 'I' for Inactive)
REMARK    1  A    between atoms: C_1  and  C_2
REMARK    2  A    between atoms: C_5  and  C_7
REMARK    3  A    between atoms: C_7  and  C_9
REMARK    4  A    between atoms: C_7  and  N_52
REMARK    5  A    between atoms: C_9  and  N_10
REMARK    6  A    between atoms: C_11  and  C_13
REMARK    7  A    between atoms: C_14  and  C_24
REMARK    8  A    between atoms: C_17  and  C_23
REMARK    9  A    between atoms: C_18  and  C_22
REMARK   10  A    between atoms: C_25  and  N_52
REMARK   11  A    between atoms: C_26  and  N_52
REMARK                            x       y       z     vdW  Elec       q    Type
REMARK                         _______ _______ _______ _____ _____    ______ ____
ROOT
ATOM      1  N   UNL     1       0.944   2.608  -0.201  0.00  0.00    -0.310 N 
ATOM      2  C   UNL     1      -0.358   2.267  -0.277  0.00  0.00    +0.280 C 
ATOM      3  O   UNL     1      -0.675   1.096  -0.366  0.00  0.00    -0.267 OA
ATOM      4  H   UNL     1       1.197   3.542  -0.130  0.00  0.00    +0.149 HD
ENDROOT
BRANCH   2   5
ATOM      5  C   UNL     1      -1.393   3.310  -0.259  0.00  0.00    +0.193 A 
ATOM      6  C   UNL     1      -2.730   3.086  -0.335  0.00  0.00    +0.008 A 
ATOM      7  C   UNL     1      -3.366   4.402  -0.280  0.00  0.00    +0.024 A 
ATOM      8  C   UNL     1      -4.690   4.846  -0.312  0.00  0.00    +0.015 A 
ATOM      9  C   UNL     1      -4.958   6.183  -0.239  0.00  0.00    -0.047 A 
ATOM     10  C   UNL     1      -3.923   7.103  -0.132  0.00  0.00    -0.044 A 
ATOM     11  C   UNL     1      -2.610   6.685  -0.098  0.00  0.00    +0.050 A 
ATOM     12  C   UNL     1      -2.313   5.329  -0.172  0.00  0.00    +0.136 A 
ATOM     13  O   UNL     1      -1.159   4.635  -0.157  0.00  0.00    -0.450 OA
ATOM     14  C   UNL     1      -4.239   8.574  -0.052  0.00  0.00    +0.044 C 
ATOM     15  C   UNL     1      -6.386   6.664  -0.274  0.00  0.00    +0.044 C 
ATOM     16  C   UNL     1      -3.419   1.750  -0.452  0.00  0.00    +0.048 C 
ENDBRANCH   2   5
BRANCH   1  17
ATOM     17  C   UNL     1       1.976   1.569  -0.226  0.00  0.00    +0.097 C 
BRANCH  17  18
ATOM     18  C   UNL     1       3.357   2.219  -0.126  0.00  0.00    +0.016 C 
BRANCH  18  23
ATOM     19  C   UNL     1       6.349  -1.283  -2.182  0.00  0.00    +0.086 C 
ATOM     20  C   UNL     1       5.723  -0.360  -1.169  0.00  0.00    +0.102 A 
ATOM     21  C   UNL     1       6.070  -0.263   0.127  0.00  0.00    +0.044 A 
ATOM     22  C   UNL     1       5.235   0.722   0.702  0.00  0.00    +0.043 A 
ATOM     23  C   UNL     1       4.422   1.163  -0.275  0.00  0.00    +0.093 A 
ATOM     24  O   UNL     1       4.724   0.506  -1.407  0.00  0.00    -0.466 OA
ENDBRANCH  18  23
BRANCH  18  27
ATOM     25  C   UNL     1       4.815   3.882  -1.114  0.00  0.00    -0.096 C 
ATOM     26  C   UNL     1       3.303   2.611  -2.515  0.00  0.00    -0.096 C 
ATOM     27  N   UNL     1       3.486   3.238  -1.189  0.00  0.00    +0.384 N 
ATOM     28  H   UNL     1       2.761   3.953  -1.055  0.00  0.00    -0.082 HD
ENDBRANCH  18  27
ENDBRANCH  17  18
ENDBRANCH   1  17
TORSDOF 5
