REMARK  Name = ZINC58891520
REMARK  14 active torsions:
REMARK  status: ('A' for Active; 'I' for Inactive)
REMARK    1  A    between atoms: C_1  and  C_2
REMARK    2  A    between atoms: C_2  and  O_3
REMARK    3  A    between atoms: O_3  and  C_4
REMARK    4  A    between atoms: C_6  and  C_20
REMARK    5  A    between atoms: C_9  and  O_10
REMARK    6  A    between atoms: O_10  and  C_11
REMARK    7  A    between atoms: C_11  and  C_12
REMARK    8  A    between atoms: C_16  and  C_18
REMARK    9  A    between atoms: N_21  and  N_22
REMARK   10  A    between atoms: C_23  and  C_25
REMARK   11  A    between atoms: C_25  and  C_26
REMARK   12  A    between atoms: C_26  and  C_27
REMARK   13  A    between atoms: C_27  and  C_29
REMARK   14  A    between atoms: C_27  and  O_35
REMARK                            x       y       z     vdW  Elec       q    Type
REMARK                         _______ _______ _______ _____ _____    ______ ____
ROOT
ATOM      1  C   UNL     1      -1.434  -1.864   0.625  0.00  0.00    +0.164 A 
ATOM      2  C   UNL     1      -0.433  -2.699   0.163  0.00  0.00    +0.059 A 
ATOM      3  C   UNL     1      -0.446  -4.054   0.501  0.00  0.00    -0.001 A 
ATOM      4  C   UNL     1      -1.470  -4.560   1.306  0.00  0.00    +0.028 A 
ATOM      5  C   UNL     1      -2.465  -3.722   1.764  0.00  0.00    +0.064 A 
ATOM      6  C   UNL     1      -2.449  -2.374   1.431  0.00  0.00    +0.176 A 
ATOM      7 BR   UNL     1      -3.850  -4.408   2.853  0.00  0.00    -0.046 Br
ENDROOT
BRANCH   3   8
ATOM      8  C   UNL     1       0.619  -4.948   0.011  0.00  0.00    +0.138 C 
ATOM      9  N   UNL     1       0.466  -6.235   0.073  0.00  0.00    -0.188 NA
BRANCH   9  10
ATOM     10  N   UNL     1      -0.822  -6.788   0.078  0.00  0.00    -0.207 N 
ATOM     11  C   UNL     1      -0.987  -8.111   0.275  0.00  0.00    +0.232 C 
ATOM     12  O   UNL     1      -0.020  -8.823   0.449  0.00  0.00    -0.274 OA
ATOM     13  H   UNL     1      -1.595  -6.218  -0.061  0.00  0.00    +0.177 HD
BRANCH  11  14
ATOM     14  C   UNL     1      -2.372  -8.705   0.279  0.00  0.00    +0.100 C 
BRANCH  14  15
ATOM     15  C   UNL     1      -2.279 -10.213   0.522  0.00  0.00    +0.045 C 
BRANCH  15  16
ATOM     16  C   UNL     1      -3.685 -10.816   0.526  0.00  0.00    +0.145 C 
BRANCH  16  17
ATOM     17  C   UNL     1      -3.587 -12.316   0.642  0.00  0.00    -0.019 A 
ATOM     18  C   UNL     1      -3.479 -12.907   1.887  0.00  0.00    +0.006 A 
ATOM     19  C   UNL     1      -3.390 -14.282   1.994  0.00  0.00    +0.000 A 
ATOM     20  C   UNL     1      -3.410 -15.066   0.855  0.00  0.00    +0.000 A 
ATOM     21  C   UNL     1      -3.519 -14.475  -0.389  0.00  0.00    +0.000 A 
ATOM     22  C   UNL     1      -3.612 -13.100  -0.496  0.00  0.00    +0.006 A 
ENDBRANCH  16  17
BRANCH  16  23
ATOM     23  O   UNL     1      -4.421 -10.299   1.637  0.00  0.00    -0.387 OA
ATOM     24  H   UNL     1      -4.024 -10.494   2.497  0.00  0.00    +0.210 HD
ENDBRANCH  16  23
ENDBRANCH  15  16
ENDBRANCH  14  15
ENDBRANCH  11  14
ENDBRANCH   9  10
ENDBRANCH   3   8
BRANCH   1  25
ATOM     25  O   UNL     1      -1.425  -0.545   0.296  0.00  0.00    -0.489 OA
BRANCH  25  27
ATOM     26  C   UNL     1      -0.512   1.409  -0.794  0.00  0.00    +0.048 C 
ATOM     27  C   UNL     1      -0.354  -0.090  -0.534  0.00  0.00    +0.226 C 
ENDBRANCH  25  27
ENDBRANCH   1  25
BRANCH   6  28
ATOM     28  O   UNL     1      -3.429  -1.551   1.889  0.00  0.00    -0.483 OA
BRANCH  28  29
ATOM     29  C   UNL     1      -4.593  -1.411   1.072  0.00  0.00    +0.264 C 
BRANCH  29  30
ATOM     30  C   UNL     1      -5.562  -0.467   1.736  0.00  0.00    -0.010 A 
ATOM     31  C   UNL     1      -6.513  -0.956   2.612  0.00  0.00    +0.007 A 
ATOM     32  C   UNL     1      -7.402  -0.090   3.221  0.00  0.00    +0.001 A 
ATOM     33  C   UNL     1      -7.340   1.265   2.954  0.00  0.00    +0.003 A 
ATOM     34  C   UNL     1      -6.389   1.754   2.078  0.00  0.00    -0.050 A 
ATOM     35  C   UNL     1      -5.497   0.888   1.473  0.00  0.00    +0.010 A 
ATOM     36  C   UNL     1      -6.322   3.231   1.787  0.00  0.00    +0.044 C 
ENDBRANCH  29  30
ENDBRANCH  28  29
ENDBRANCH   6  28
TORSDOF 12
