REMARK  Name = ZINC15998842
REMARK  3 active torsions:
REMARK  status: ('A' for Active; 'I' for Inactive)
REMARK    1  A    between atoms: C_1  and  C_2
REMARK    2  A    between atoms: N_20  and  C_23
REMARK    3  A    between atoms: C_28  and  C_29
REMARK                            x       y       z     vdW  Elec       q    Type
REMARK                         _______ _______ _______ _____ _____    ______ ____
ROOT
ATOM      1  C   UNL     1      -2.636   2.675   6.287  0.00  0.00    +0.044 C 
ATOM      2  C   UNL     1      -3.311   2.932   4.964  0.00  0.00    -0.050 A 
ATOM      3  C   UNL     1      -4.647   3.286   4.925  0.00  0.00    +0.005 A 
ATOM      4  C   UNL     1      -5.268   3.520   3.716  0.00  0.00    +0.024 A 
ATOM      5  C   UNL     1      -4.554   3.403   2.526  0.00  0.00    +0.036 A 
ATOM      6  C   UNL     1      -3.207   3.050   2.576  0.00  0.00    -0.027 A 
ATOM      7  C   UNL     1      -2.595   2.813   3.787  0.00  0.00    +0.008 A 
ATOM      8  C   UNL     1      -2.744   3.016   1.152  0.00  0.00    +0.053 C 
ATOM      9  C   UNL     1      -1.555   3.905   0.869  0.00  0.00    +0.089 C 
ATOM     10  C   UNL     1      -0.467   3.005   1.562  0.00  0.00    +0.074 C 
ATOM     11  C   UNL     1      -0.798   1.615   1.233  0.00  0.00    -0.054 C 
ATOM     12  C   UNL     1      -2.273   1.559  -0.691  0.00  0.00    -0.076 C 
ATOM     13  C   UNL     1      -0.820   1.627  -1.194  0.00  0.00    -0.020 C 
ATOM     14  C   UNL     1      -0.013   1.086   0.008  0.00  0.00    -0.016 C 
ATOM     15  C   UNL     1       0.646   3.925   1.687  0.00  0.00    +0.228 C 
ATOM     16  O   UNL     1       1.827   3.674   1.585  0.00  0.00    -0.275 OA
ATOM     17  N   UNL     1       0.056   5.146   1.932  0.00  0.00    -0.209 N 
ATOM     18  C   UNL     1      -1.284   5.149   1.659  0.00  0.00    +0.229 C 
ATOM     19  O   UNL     1      -2.092   5.991   1.990  0.00  0.00    -0.275 OA
ATOM     20  C   UNL     1      -3.951   3.373   0.331  0.00  0.00    +0.212 C 
ATOM     21  O   UNL     1      -4.008   3.454  -0.878  0.00  0.00    -0.277 OA
ATOM     22  N   UNL     1      -4.958   3.586   1.201  0.00  0.00    -0.286 N 
ATOM     23  H   UNL     1      -5.857   3.837   0.939  0.00  0.00    +0.155 HD
ATOM     24  N   UNL     1      -2.223   1.689   0.772  0.00  0.00    +0.395 N 
ATOM     25  H   UNL     1      -2.778   0.945   1.211  0.00  0.00    -0.079 HD
ENDROOT
BRANCH  17  26
ATOM     26  C   UNL     1       0.754   6.264   2.409  0.00  0.00    +0.056 A 
ATOM     27  C   UNL     1       0.864   6.484   3.776  0.00  0.00    +0.024 A 
ATOM     28  C   UNL     1       1.557   7.583   4.243  0.00  0.00    +0.002 A 
ATOM     29  C   UNL     1       2.131   8.471   3.351  0.00  0.00    +0.001 A 
ATOM     30  C   UNL     1       2.018   8.258   1.990  0.00  0.00    +0.014 A 
ATOM     31  C   UNL     1       1.331   7.157   1.517  0.00  0.00    +0.077 A 
BRANCH  31  32
ATOM     32  C   UNL     1       1.208   6.925   0.033  0.00  0.00    +0.419 C 
ATOM     33  F   UNL     1       1.866   7.950  -0.655  0.00  0.00    -0.166 F 
ATOM     34  F   UNL     1       1.788   5.695  -0.297  0.00  0.00    -0.166 F 
ATOM     35  F   UNL     1      -0.143   6.914  -0.327  0.00  0.00    -0.166 F 
ENDBRANCH  31  32
ENDBRANCH  17  26
TORSDOF 2
