REMARK  Name = ZINC58871918
REMARK  7 active torsions:
REMARK  status: ('A' for Active; 'I' for Inactive)
REMARK    1  A    between atoms: C_1  and  C_2
REMARK    2  A    between atoms: C_2  and  C_3
REMARK    3  A    between atoms: C_2  and  C_4
REMARK    4  A    between atoms: C_7  and  C_10
REMARK    5  A    between atoms: N_11  and  N_12
REMARK    6  A    between atoms: C_13  and  C_15
REMARK    7  A    between atoms: C_18  and  N_21
REMARK                            x       y       z     vdW  Elec       q    Type
REMARK                         _______ _______ _______ _____ _____    ______ ____
ROOT
ATOM      1  N   UNL     1       2.851  -3.139   6.649  0.00  0.00    -0.203 N 
ATOM      2  C   UNL     1       2.217  -3.932   7.535  0.00  0.00    +0.263 C 
ATOM      3  O   UNL     1       1.056  -4.244   7.350  0.00  0.00    -0.268 OA
ATOM      4  H   UNL     1       3.777  -2.890   6.796  0.00  0.00    +0.178 HD
ENDROOT
BRANCH   2   5
ATOM      5  C   UNL     1       2.931  -4.421   8.729  0.00  0.00    +0.038 A 
ATOM      6  C   UNL     1       4.263  -4.059   8.946  0.00  0.00    +0.015 A 
ATOM      7  C   UNL     1       4.926  -4.516  10.062  0.00  0.00    +0.024 A 
ATOM      8  C   UNL     1       4.271  -5.340  10.974  0.00  0.00    +0.030 A 
ATOM      9  C   UNL     1       2.944  -5.702  10.760  0.00  0.00    +0.024 A 
ATOM     10  C   UNL     1       2.274  -5.244   9.649  0.00  0.00    +0.015 A 
BRANCH   8  11
ATOM     11  N   UNL     1       4.944  -5.801  12.100  0.00  0.00    -0.321 N 
ATOM     12  C   UNL     1       6.332  -5.507  12.470  0.00  0.00    +0.141 C 
ATOM     13  C   UNL     1       6.623  -6.222  13.765  0.00  0.00    -0.026 A 
ATOM     14  C   UNL     1       7.770  -6.278  14.538  0.00  0.00    +0.005 A 
ATOM     15  C   UNL     1       7.784  -7.017  15.705  0.00  0.00    +0.000 A 
ATOM     16  C   UNL     1       6.650  -7.702  16.102  0.00  0.00    +0.000 A 
ATOM     17  C   UNL     1       5.505  -7.647  15.330  0.00  0.00    +0.005 A 
ATOM     18  C   UNL     1       5.491  -6.907  14.161  0.00  0.00    -0.026 A 
ATOM     19  C   UNL     1       4.399  -6.670  13.148  0.00  0.00    +0.141 C 
ENDBRANCH   8  11
ENDBRANCH   2   5
BRANCH   1  21
ATOM     20  C   UNL     1       2.784  -1.910   4.661  0.00  0.00    +0.138 C 
ATOM     21  N   UNL     1       2.173  -2.674   5.514  0.00  0.00    -0.187 NA
BRANCH  20  25
ATOM     22  C   UNL     1       0.731  -0.503   1.223  0.00  0.00    -0.045 A 
ATOM     23  C   UNL     1       2.051  -0.145   1.431  0.00  0.00    +0.004 A 
ATOM     24  C   UNL     1       2.725  -0.599   2.546  0.00  0.00    +0.010 A 
ATOM     25  C   UNL     1       2.071  -1.421   3.466  0.00  0.00    -0.005 A 
ATOM     26  C   UNL     1       0.737  -1.778   3.250  0.00  0.00    +0.010 A 
ATOM     27  C   UNL     1       0.075  -1.313   2.134  0.00  0.00    +0.004 A 
BRANCH  22  29
ATOM     28  C   UNL     1      -0.019   1.526   0.010  0.00  0.00    +0.012 C 
ATOM     29  C   UNL     1       0.002  -0.004   0.002  0.00  0.00    +0.013 C 
ATOM     30  C   UNL     1       0.718  -0.497  -1.257  0.00  0.00    +0.012 C 
ENDBRANCH  22  29
ENDBRANCH  20  25
ENDBRANCH   1  21
TORSDOF 5
