REMARK  Name = ZINC04146282
REMARK  14 active torsions:
REMARK  status: ('A' for Active; 'I' for Inactive)
REMARK    1  A    between atoms: C_1  and  C_2
REMARK    2  A    between atoms: C_3  and  C_33
REMARK    3  A    between atoms: C_4  and  C_11
REMARK    4  A    between atoms: N_9  and  C_10
REMARK    5  A    between atoms: C_14  and  N_17
REMARK    6  A    between atoms: N_17  and  S_18
REMARK    7  A    between atoms: S_18  and  C_21
REMARK    8  A    between atoms: C_21  and  C_22
REMARK    9  A    between atoms: C_27  and  C_28
REMARK   10  A    between atoms: C_27  and  C_29
REMARK   11  A    between atoms: C_33  and  O_35
REMARK   12  A    between atoms: O_35  and  C_36
REMARK   13  A    between atoms: C_36  and  C_37
REMARK   14  A    between atoms: C_36  and  C_38
REMARK                            x       y       z     vdW  Elec       q    Type
REMARK                         _______ _______ _______ _____ _____    ______ ____
ROOT
ATOM      1  C   UNL     1      -1.954  -2.224  -2.187  0.00  0.00    -0.022 A 
ATOM      2  C   UNL     1      -1.814  -2.135  -3.560  0.00  0.00    +0.007 A 
ATOM      3  C   UNL     1      -2.800  -2.630  -4.390  0.00  0.00    +0.025 A 
ATOM      4  C   UNL     1      -3.935  -3.217  -3.844  0.00  0.00    +0.048 A 
ATOM      5  C   UNL     1      -4.072  -3.305  -2.464  0.00  0.00    +0.025 A 
ATOM      6  C   UNL     1      -3.079  -2.813  -1.640  0.00  0.00    +0.007 A 
ENDROOT
BRANCH   1  10
ATOM      7  C   UNL     1      -0.168   2.102  -1.479  0.00  0.00    +0.061 C 
ATOM      8  C   UNL     1      -0.028   0.604  -1.563  0.00  0.00    +0.021 C 
ATOM      9  C   UNL     1      -1.059  -0.182  -1.184  0.00  0.00    +0.078 C 
ATOM     10  C   UNL     1      -0.875  -1.683  -1.284  0.00  0.00    +0.141 C 
ATOM     11  N   UNL     1       0.422  -2.164  -1.790  0.00  0.00    -0.315 N 
ATOM     12  C   UNL     1       1.356  -1.253  -2.129  0.00  0.00    +0.137 C 
ATOM     13  S   UNL     1       2.868  -1.797  -2.718  0.00  0.00    -0.018 S 
ATOM     14  N   UNL     1       1.137   0.064  -2.025  0.00  0.00    -0.289 N 
ATOM     15  C   UNL     1       2.212   0.977  -2.424  0.00  0.00    +0.137 C 
ATOM     16  H   UNL     1       0.600  -3.113  -1.877  0.00  0.00    +0.149 HD
BRANCH   9  17
ATOM     17  C   UNL     1      -2.268   0.376  -0.710  0.00  0.00    +0.339 C 
ATOM     18  O   UNL     1      -2.394   1.584  -0.637  0.00  0.00    -0.245 OA
BRANCH  17  19
ATOM     19  O   UNL     1      -3.284  -0.431  -0.338  0.00  0.00    -0.459 OA
BRANCH  19  20
ATOM     20  C   UNL     1      -4.476   0.201   0.131  0.00  0.00    +0.171 C 
ATOM     21  C   UNL     1      -5.418   0.454  -1.048  0.00  0.00    +0.052 C 
ATOM     22  C   UNL     1      -5.168  -0.707   1.150  0.00  0.00    +0.052 C 
ENDBRANCH  19  20
ENDBRANCH  17  19
ENDBRANCH   9  17
ENDBRANCH   1  10
BRANCH   4  23
ATOM     23  N   UNL     1      -4.935  -3.718  -4.680  0.00  0.00    -0.221 N 
ATOM     24  H   UNL     1      -5.770  -3.235  -4.781  0.00  0.00    +0.173 HD
BRANCH  23  25
ATOM     25  S   UNL     1      -4.696  -5.138  -5.499  0.00  0.00    +0.044 S 
ATOM     26  O   UNL     1      -5.878  -5.317  -6.267  0.00  0.00    -0.155 OA
ATOM     27  O   UNL     1      -3.435  -4.981  -6.136  0.00  0.00    -0.155 OA
BRANCH  25  28
ATOM     28  C   UNL     1      -4.590  -6.408  -4.209  0.00  0.00    +0.203 C 
BRANCH  28  29
ATOM     29  C   UNL     1      -4.158  -7.736  -4.835  0.00  0.00    +0.055 C 
ATOM     30  C   UNL     1      -2.752  -7.744  -5.509  0.00  0.00    +0.017 C 
ATOM     31  C   UNL     1      -2.361  -9.238  -5.577  0.00  0.00    +0.005 C 
ATOM     32  C   UNL     1      -3.575  -9.987  -4.944  0.00  0.00    +0.003 C 
ATOM     33  C   UNL     1      -4.017  -8.950  -3.851  0.00  0.00    -0.018 C 
ATOM     34  C   UNL     1      -2.926  -8.719  -2.804  0.00  0.00    +0.012 C 
ATOM     35  C   UNL     1      -5.352  -9.328  -3.207  0.00  0.00    +0.012 C 
ATOM     36  C   UNL     1      -4.718  -9.822  -5.992  0.00  0.00    +0.079 C 
ATOM     37  C   UNL     1      -5.113  -8.323  -5.884  0.00  0.00    +0.142 C 
ATOM     38  O   UNL     1      -5.967  -7.739  -6.505  0.00  0.00    -0.297 OA
ENDBRANCH  28  29
ENDBRANCH  25  28
ENDBRANCH  23  25
ENDBRANCH   4  23
TORSDOF 8
