REMARK  Name = ZINC07341990
REMARK  6 active torsions:
REMARK  status: ('A' for Active; 'I' for Inactive)
REMARK    1  A    between atoms: C_1  and  C_2
REMARK    2  A    between atoms: C_3  and  C_25
REMARK    3  A    between atoms: C_8  and  C_10
REMARK    4  A    between atoms: C_10  and  S_11
REMARK    5  A    between atoms: S_11  and  C_12
REMARK    6  A    between atoms: C_15  and  C_18
REMARK                            x       y       z     vdW  Elec       q    Type
REMARK                         _______ _______ _______ _____ _____    ______ ____
ROOT
ATOM      1  S   UNL     1       0.067  -2.415   6.163  0.00  0.00    -0.077 S 
ENDROOT
BRANCH   1   2
ATOM      2  C   UNL     1       0.090  -3.651   7.419  0.00  0.00    +0.185 A 
ATOM      3  N   UNL     1       0.107  -4.951   7.222  0.00  0.00    -0.201 NA
ATOM      4  H   UNL     1       0.094  -2.567   9.197  0.00  0.00    +0.191 HD
ATOM      5  C   UNL     1       0.121  -5.585   8.404  0.00  0.00    +0.182 A 
ATOM      6  N   UNL     1       0.114  -4.691   9.367  0.00  0.00    -0.152 NA
ATOM      7  N   UNL     1       0.099  -3.429   8.752  0.00  0.00    -0.253 N 
BRANCH   5   8
ATOM      8  C   UNL     1       0.142  -7.057   8.593  0.00  0.00    +0.021 A 
ATOM      9  C   UNL     1       0.154  -7.904   7.487  0.00  0.00    +0.013 A 
ATOM     10  C   UNL     1       0.174  -9.272   7.668  0.00  0.00    +0.021 A 
ATOM     11  C   UNL     1       0.181  -9.803   8.946  0.00  0.00    +0.041 A 
ATOM     12  C   UNL     1       0.169  -8.966  10.049  0.00  0.00    +0.021 A 
ATOM     13  C   UNL     1       0.156  -7.596   9.878  0.00  0.00    +0.013 A 
ATOM     14 CL   UNL     1       0.206 -11.524   9.167  0.00  0.00    -0.084 Cl
ENDBRANCH   5   8
ENDBRANCH   1   2
BRANCH   1  15
ATOM     15  C   UNL     1       0.072  -3.361   4.616  0.00  0.00    +0.173 C 
BRANCH  15  23
ATOM     16  C   UNL     1      -0.018   1.503   0.010  0.00  0.00    +0.066 C 
ATOM     17  C   UNL     1       0.002  -0.004   0.002  0.00  0.00    +0.050 A 
ATOM     18  C   UNL     1       0.006  -0.706  -1.158  0.00  0.00    +0.011 A 
ATOM     19  S   UNL     1       0.032  -2.379  -0.535  0.00  0.00    -0.057 S 
ATOM     20  C   UNL     1       0.036  -2.015   1.108  0.00  0.00    +0.165 A 
ATOM     21  N   UNL     1       0.023  -0.700   1.124  0.00  0.00    -0.230 NA
ATOM     22  N   UNL     1       0.053  -2.891   2.187  0.00  0.00    -0.264 N 
ATOM     23  C   UNL     1       0.053  -2.410   3.446  0.00  0.00    +0.229 C 
ATOM     24  O   UNL     1       0.038  -1.213   3.638  0.00  0.00    -0.275 OA
ATOM     25  C   UNL     1      -0.009  -0.210  -2.581  0.00  0.00    +0.053 C 
ATOM     26  H   UNL     1       0.065  -3.849   2.034  0.00  0.00    +0.157 HD
ENDBRANCH  15  23
ENDBRANCH   1  15
TORSDOF 4
