REMARK  Name = ZINC38657130
REMARK  13 active torsions:
REMARK  status: ('A' for Active; 'I' for Inactive)
REMARK    1  A    between atoms: C_1  and  C_2
REMARK    2  A    between atoms: C_7  and  O_8
REMARK    3  A    between atoms: O_8  and  C_9
REMARK    4  A    between atoms: C_9  and  C_10
REMARK    5  A    between atoms: C_10  and  O_12
REMARK    6  A    between atoms: O_12  and  C_13
REMARK    7  A    between atoms: C_20  and  N_36
REMARK    8  A    between atoms: C_21  and  C_34
REMARK    9  A    between atoms: C_22  and  C_24
REMARK   10  A    between atoms: C_27  and  O_32
REMARK   11  A    between atoms: C_29  and  O_30
REMARK   12  A    between atoms: O_30  and  C_31
REMARK   13  A    between atoms: O_32  and  C_33
REMARK                            x       y       z     vdW  Elec       q    Type
REMARK                         _______ _______ _______ _____ _____    ______ ____
ROOT
ATOM      1  C   UNL     1       0.100   0.350   7.125  0.00  0.00    +0.135 A 
ATOM      2  C   UNL     1       0.038   1.732   7.008  0.00  0.00    +0.047 A 
ATOM      3  C   UNL     1       0.073   2.522   8.140  0.00  0.00    +0.012 A 
ATOM      4  C   UNL     1       0.170   1.942   9.393  0.00  0.00    +0.008 A 
ATOM      5  C   UNL     1       0.233   0.563   9.515  0.00  0.00    +0.138 A 
ATOM      6  C   UNL     1       0.192  -0.234   8.378  0.00  0.00    +0.093 A 
ATOM      7  O   UNL     1       0.329  -0.024  10.734  0.00  0.00    -0.441 OA
ATOM      8  C   UNL     1       0.746   0.692  11.791  0.00  0.00    +0.199 C 
ATOM      9  C   UNL     1       0.714   2.046  11.798  0.00  0.00    +0.098 C 
ATOM     10  C   UNL     1       0.207   2.821  10.615  0.00  0.00    +0.101 C 
ENDROOT
BRANCH  10  11
ATOM     11  C   UNL     1      -1.182   3.327  10.908  0.00  0.00    +0.007 A 
ATOM     12  C   UNL     1      -2.201   2.432  11.174  0.00  0.00    +0.012 A 
ATOM     13  C   UNL     1      -3.476   2.893  11.443  0.00  0.00    +0.046 A 
ATOM     14  C   UNL     1      -3.736   4.256  11.446  0.00  0.00    +0.124 A 
ATOM     15  C   UNL     1      -2.716   5.156  11.179  0.00  0.00    +0.091 A 
ATOM     16  C   UNL     1      -1.436   4.691  10.915  0.00  0.00    +0.128 A 
BRANCH  16  17
ATOM     17  O   UNL     1      -0.433   5.571  10.659  0.00  0.00    -0.495 OA
ATOM     18  C   UNL     1      -0.766   6.960  10.684  0.00  0.00    +0.277 C 
ENDBRANCH  16  17
BRANCH  14  19
ATOM     19  O   UNL     1      -4.990   4.708  11.710  0.00  0.00    -0.495 OA
ATOM     20  C   UNL     1      -5.992   3.725  11.975  0.00  0.00    +0.277 C 
ENDBRANCH  14  19
ENDBRANCH  10  11
BRANCH   8  21
ATOM     21  N   UNL     1       1.217   0.032  12.899  0.00  0.00    -0.328 N 
ATOM     22  H   UNL     1       1.246  -0.938  12.909  0.00  0.00    +0.145 HD
ATOM     23  H   UNL     1       1.522   0.535  13.670  0.00  0.00    +0.145 HD
ENDBRANCH   8  21
BRANCH   9  24
ATOM     24  C   UNL     1       1.173   2.753  12.956  0.00  0.00    +0.101 C 
ATOM     25  N   UNL     1       1.537   3.314  13.874  0.00  0.00    -0.191 NA
ENDBRANCH   9  24
BRANCH   1  26
ATOM     26  O   UNL     1       0.066  -0.429   6.012  0.00  0.00    -0.423 OA
BRANCH  26  27
ATOM     27  C   UNL     1       1.186  -0.530   5.278  0.00  0.00    +0.350 C 
ATOM     28  O   UNL     1       2.156   0.132   5.563  0.00  0.00    -0.247 OA
BRANCH  27  29
ATOM     29  C   UNL     1       1.232  -1.467   4.099  0.00  0.00    +0.349 C 
BRANCH  29  30
ATOM     30  O   UNL     1       2.521  -1.396   3.485  0.00  0.00    -0.481 OA
BRANCH  30  37
ATOM     31  C   UNL     1       5.060  -1.268   2.255  0.00  0.00    +0.047 C 
ATOM     32  C   UNL     1       3.958  -2.166   1.753  0.00  0.00    -0.007 A 
ATOM     33  C   UNL     1       4.172  -2.974   0.653  0.00  0.00    +0.027 A 
ATOM     34  C   UNL     1       3.161  -3.798   0.192  0.00  0.00    +0.041 A 
ATOM     35  C   UNL     1       1.934  -3.814   0.831  0.00  0.00    +0.023 A 
ATOM     36  C   UNL     1       1.716  -3.008   1.931  0.00  0.00    +0.047 A 
ATOM     37  C   UNL     1       2.731  -2.185   2.398  0.00  0.00    +0.124 A 
ATOM     38 CL   UNL     1       3.432  -4.812  -1.191  0.00  0.00    -0.084 Cl
ENDBRANCH  30  37
ENDBRANCH  29  30
ENDBRANCH  27  29
ENDBRANCH  26  27
ENDBRANCH   1  26
TORSDOF 10
