REMARK  Name = ZINC50360862
REMARK  3 active torsions:
REMARK  status: ('A' for Active; 'I' for Inactive)
REMARK    1  A    between atoms: C_6  and  N_7
REMARK    2  A    between atoms: N_7  and  C_8
REMARK    3  A    between atoms: C_8  and  C_9
REMARK                            x       y       z     vdW  Elec       q    Type
REMARK                         _______ _______ _______ _____ _____    ______ ____
ROOT
ATOM      1  C   UNL     1      -0.017   1.397   0.010  0.00  0.00    +0.025 A 
ATOM      2  C   UNL     1       1.139   2.110   0.003  0.00  0.00    +0.031 A 
ATOM      3  C   UNL     1       2.377   1.442  -0.013  0.00  0.00    +0.089 A 
ATOM      4  C   UNL     1       2.405   0.023  -0.021  0.00  0.00    +0.091 A 
ATOM      5  C   UNL     1       1.197  -0.690  -0.014  0.00  0.00    +0.052 A 
ATOM      6  C   UNL     1       0.002  -0.004   0.002  0.00  0.00    +0.030 A 
ATOM      7  N   UNL     1       3.582  -0.614  -0.035  0.00  0.00    -0.252 NA
ATOM      8  C   UNL     1       4.698   0.080  -0.041  0.00  0.00    +0.131 A 
ATOM      9  C   UNL     1       4.669   1.475  -0.032  0.00  0.00    +0.131 A 
ATOM     10  N   UNL     1       3.527   2.124  -0.020  0.00  0.00    -0.252 NA
ENDROOT
BRANCH   6  11
ATOM     11  N   UNL     1      -1.200  -0.711   0.010  0.00  0.00    -0.337 N 
ATOM     12  H   UNL     1      -1.192  -1.681   0.005  0.00  0.00    +0.147 HD
BRANCH  11  13
ATOM     13  C   UNL     1      -2.474   0.012   0.027  0.00  0.00    +0.176 C 
BRANCH  13  14
ATOM     14  C   UNL     1      -3.612  -0.977   0.033  0.00  0.00    +0.124 A 
ATOM     15  C   UNL     1      -4.198  -1.494   1.127  0.00  0.00    +0.062 A 
ATOM     16  C   UNL     1      -5.212  -2.370   0.674  0.00  0.00    +0.070 A 
ATOM     17  C   UNL     1      -5.184  -2.335  -0.672  0.00  0.00    +0.184 A 
ATOM     18  O   UNL     1      -4.216  -1.486  -1.054  0.00  0.00    -0.450 OA
ATOM     19 BR   UNL     1      -6.319  -3.312  -1.828  0.00  0.00    -0.007 Br
ATOM     20 BR   UNL     1      -6.381  -3.394   1.751  0.00  0.00    -0.046 Br
ENDBRANCH  13  14
ENDBRANCH  11  13
ENDBRANCH   6  11
TORSDOF 3
