REMARK  Name = ZINC40372286
REMARK  12 active torsions:
REMARK  status: ('A' for Active; 'I' for Inactive)
REMARK    1  A    between atoms: C_1  and  C_2
REMARK    2  A    between atoms: C_2  and  C_3
REMARK    3  A    between atoms: C_12  and  C_13
REMARK    4  A    between atoms: C_13  and  C_15
REMARK    5  A    between atoms: C_13  and  C_22
REMARK    6  A    between atoms: C_15  and  C_16
REMARK    7  A    between atoms: C_22  and  C_23
REMARK    8  A    between atoms: N_25  and  C_26
REMARK    9  A    between atoms: C_26  and  C_27
REMARK   10  A    between atoms: C_27  and  C_28
REMARK   11  A    between atoms: C_28  and  N_29
REMARK   12  A    between atoms: C_34  and  C_36
REMARK                            x       y       z     vdW  Elec       q    Type
REMARK                         _______ _______ _______ _____ _____    ______ ____
ROOT
ATOM      1  C   UNL     1       5.357  -1.433  -3.018  0.00  0.00    +0.034 C 
ENDROOT
BRANCH   1  11
ATOM      2  C   UNL     1       0.493  -0.587  -2.131  0.00  0.00    -0.024 A 
ATOM      3  C   UNL     1       0.011  -0.920  -3.378  0.00  0.00    +0.005 A 
ATOM      4  C   UNL     1       0.873  -1.335  -4.383  0.00  0.00    +0.001 A 
ATOM      5  C   UNL     1       2.217  -1.420  -4.153  0.00  0.00    +0.010 A 
ATOM      6  C   UNL     1       2.728  -1.088  -2.897  0.00  0.00    +0.003 A 
ATOM      7  C   UNL     1       1.859  -0.662  -1.876  0.00  0.00    +0.050 A 
ATOM      8  N   UNL     1       2.632  -0.400  -0.767  0.00  0.00    -0.360 N 
ATOM      9  H   UNL     1       2.294  -0.092   0.088  0.00  0.00    +0.165 HD
ATOM     10  C   UNL     1       3.949  -0.640  -1.052  0.00  0.00    +0.087 A 
ATOM     11  C   UNL     1       4.074  -1.065  -2.319  0.00  0.00    -0.019 A 
BRANCH   2  13
ATOM     12  C   UNL     1      -0.523   1.391  -1.033  0.00  0.00    +0.009 C 
ATOM     13  C   UNL     1      -0.454  -0.138  -1.048  0.00  0.00    +0.034 C 
ENDBRANCH   2  13
ENDBRANCH   1  11
BRANCH   1  14
ATOM     14  C   UNL     1       6.299  -0.228  -3.023  0.00  0.00    +0.043 C 
BRANCH  14  15
ATOM     15  C   UNL     1       5.691   0.882  -3.842  0.00  0.00    -0.047 A 
ATOM     16  C   UNL     1       5.857   0.899  -5.214  0.00  0.00    +0.003 A 
ATOM     17  C   UNL     1       5.299   1.917  -5.965  0.00  0.00    +0.000 A 
ATOM     18  C   UNL     1       4.576   2.917  -5.343  0.00  0.00    +0.000 A 
ATOM     19  C   UNL     1       4.410   2.900  -3.971  0.00  0.00    +0.000 A 
ATOM     20  C   UNL     1       4.964   1.879  -3.221  0.00  0.00    +0.003 A 
ENDBRANCH  14  15
ENDBRANCH   1  14
BRANCH   1  21
ATOM     21  C   UNL     1       6.022  -2.598  -2.283  0.00  0.00    +0.104 C 
BRANCH  21  22
ATOM     22  C   UNL     1       7.216  -3.073  -3.070  0.00  0.00    +0.214 C 
ATOM     23  O   UNL     1       7.441  -2.611  -4.168  0.00  0.00    -0.276 OA
ATOM     24  N   UNL     1       8.034  -4.012  -2.554  0.00  0.00    -0.315 N 
ATOM     25  H   UNL     1       7.854  -4.381  -1.675  0.00  0.00    +0.149 HD
BRANCH  24  26
ATOM     26  C   UNL     1       9.194  -4.473  -3.319  0.00  0.00    +0.102 C 
BRANCH  26  27
ATOM     27  C   UNL     1       9.950  -5.531  -2.512  0.00  0.00    +0.000 C 
BRANCH  27  28
ATOM     28  C   UNL     1      11.162  -6.014  -3.311  0.00  0.00    -0.077 C 
BRANCH  28  29
ATOM     29  N   UNL     1      11.887  -7.029  -2.536  0.00  0.00    +0.381 N 
ATOM     30  C   UNL     1      11.032  -8.210  -2.360  0.00  0.00    -0.078 C 
ATOM     31  C   UNL     1      11.752  -9.239  -1.485  0.00  0.00    -0.019 C 
ATOM     32  C   UNL     1      13.061  -9.651  -2.163  0.00  0.00    -0.003 C 
ATOM     33  C   UNL     1      13.913  -8.402  -2.409  0.00  0.00    -0.016 C 
ATOM     34  C   UNL     1      13.113  -7.404  -3.250  0.00  0.00    -0.072 C 
ATOM     35  C   UNL     1      13.960  -6.154  -3.499  0.00  0.00    -0.013 C 
ATOM     36  H   UNL     1      12.127  -6.653  -1.631  0.00  0.00    -0.081 HD
ENDBRANCH  28  29
ENDBRANCH  27  28
ENDBRANCH  26  27
ENDBRANCH  24  26
ENDBRANCH  21  22
ENDBRANCH   1  21
TORSDOF 10
