REMARK  Name = ZINC61631447
REMARK  7 active torsions:
REMARK  status: ('A' for Active; 'I' for Inactive)
REMARK    1  A    between atoms: C_1  and  C_2
REMARK    2  A    between atoms: C_7  and  N_10
REMARK    3  A    between atoms: N_10  and  C_11
REMARK    4  A    between atoms: N_10  and  C_12
REMARK    5  A    between atoms: C_12  and  C_13
REMARK    6  A    between atoms: C_17  and  N_19
REMARK    7  A    between atoms: N_19  and  N_20
REMARK                            x       y       z     vdW  Elec       q    Type
REMARK                         _______ _______ _______ _____ _____    ______ ____
ROOT
ATOM      1  C   UNL     1       1.581  -2.448   4.850  0.00  0.00    +0.045 A 
ATOM      2  C   UNL     1       1.338  -3.665   5.458  0.00  0.00    +0.060 A 
ATOM      3  C   UNL     1       2.075  -4.023   6.580  0.00  0.00    +0.025 A 
ATOM      4  C   UNL     1       3.031  -3.141   7.051  0.00  0.00    +0.046 A 
ATOM      5  C   UNL     1       3.223  -1.933   6.388  0.00  0.00    +0.132 A 
ATOM      6  N   UNL     1       2.504  -1.630   5.318  0.00  0.00    -0.236 NA
ATOM      7 CL   UNL     1       0.125  -4.734   4.827  0.00  0.00    -0.082 Cl
ENDROOT
BRANCH   5   8
ATOM      8  N   UNL     1       4.181  -1.038   6.851  0.00  0.00    -0.268 N 
ATOM      9  H   UNL     1       4.712  -1.257   7.632  0.00  0.00    +0.167 HD
BRANCH   8  10
ATOM     10  N   UNL     1       4.374   0.150   6.205  0.00  0.00    -0.255 NA
ATOM     11  H   UNL     1       5.098   0.692   6.653  0.00  0.00    +0.140 HD
ATOM     12  H   UNL     1       4.585   0.002   5.229  0.00  0.00    +0.140 HD
ENDBRANCH   8  10
ENDBRANCH   5   8
BRANCH   1  13
ATOM     13  C   UNL     1       0.786  -2.054   3.632  0.00  0.00    -0.021 C 
BRANCH  13  14
ATOM     14  N   UNL     1       1.473  -2.527   2.423  0.00  0.00    +0.383 N 
ATOM     15  C   UNL     1       1.493  -3.996   2.415  0.00  0.00    -0.095 C 
ATOM     16  H   UNL     1       2.420  -2.178   2.416  0.00  0.00    -0.081 HD
BRANCH  14  22
ATOM     17  C   UNL     1      -0.019   1.526   0.010  0.00  0.00    +0.007 C 
ATOM     18  C   UNL     1       0.002  -0.004   0.002  0.00  0.00    -0.016 C 
ATOM     19  C   UNL     1       0.718  -0.497  -1.257  0.00  0.00    +0.003 C 
ATOM     20  C   UNL     1       0.739  -2.027  -1.265  0.00  0.00    -0.001 C 
ATOM     21  C   UNL     1       1.479  -2.534  -0.026  0.00  0.00    -0.015 C 
ATOM     22  C   UNL     1       0.763  -2.041   1.233  0.00  0.00    -0.068 C 
ATOM     23  C   UNL     1       0.742  -0.511   1.242  0.00  0.00    -0.012 C 
ENDBRANCH  14  22
ENDBRANCH  13  14
ENDBRANCH   1  13
TORSDOF 5
