REMARK  Name = ZINC35729667
REMARK  11 active torsions:
REMARK  status: ('A' for Active; 'I' for Inactive)
REMARK    1  A    between atoms: C_1  and  C_2
REMARK    2  A    between atoms: C_3  and  C_27
REMARK    3  A    between atoms: C_4  and  C_11
REMARK    4  A    between atoms: N_9  and  C_10
REMARK    5  A    between atoms: C_15  and  N_17
REMARK    6  A    between atoms: C_18  and  C_20
REMARK    7  A    between atoms: C_27  and  O_29
REMARK    8  A    between atoms: O_29  and  C_30
REMARK    9  A    between atoms: C_30  and  C_31
REMARK   10  A    between atoms: C_31  and  C_32
REMARK   11  A    between atoms: C_31  and  C_33
REMARK                            x       y       z     vdW  Elec       q    Type
REMARK                         _______ _______ _______ _____ _____    ______ ____
ROOT
ATOM      1  C   UNL     1      -0.897   2.304   0.536  0.00  0.00    +0.061 C 
ATOM      2  C   UNL     1      -0.654   0.817   0.559  0.00  0.00    +0.021 C 
ATOM      3  C   UNL     1      -1.689  -0.022   0.780  0.00  0.00    +0.078 C 
ATOM      4  C   UNL     1      -1.400  -1.510   0.796  0.00  0.00    +0.141 C 
ATOM      5  N   UNL     1      -0.004  -1.920   0.568  0.00  0.00    -0.315 N 
ATOM      6  C   UNL     1       0.920  -0.962   0.361  0.00  0.00    +0.137 C 
ATOM      7  S   UNL     1       2.547  -1.425   0.094  0.00  0.00    -0.018 S 
ATOM      8  N   UNL     1       0.608   0.340   0.352  0.00  0.00    -0.289 N 
ATOM      9  C   UNL     1       1.682   1.307   0.113  0.00  0.00    +0.137 C 
ATOM     10  H   UNL     1       0.243  -2.858   0.566  0.00  0.00    +0.149 HD
ENDROOT
BRANCH   4  11
ATOM     11  C   UNL     1      -2.254  -2.160  -0.262  0.00  0.00    -0.021 A 
ATOM     12  C   UNL     1      -1.863  -2.119  -1.587  0.00  0.00    +0.006 A 
ATOM     13  C   UNL     1      -2.644  -2.714  -2.561  0.00  0.00    +0.002 A 
ATOM     14  C   UNL     1      -3.818  -3.352  -2.212  0.00  0.00    +0.023 A 
ATOM     15  C   UNL     1      -4.214  -3.396  -0.881  0.00  0.00    +0.034 A 
ATOM     16  C   UNL     1      -3.424  -2.801   0.095  0.00  0.00    +0.029 A 
BRANCH  15  17
ATOM     17  N   UNL     1      -5.402  -4.040  -0.525  0.00  0.00    -0.281 N 
ATOM     18  C   UNL     1      -6.467  -3.996  -1.350  0.00  0.00    +0.249 C 
ATOM     19  O   UNL     1      -6.425  -3.322  -2.361  0.00  0.00    -0.270 OA
ATOM     20  H   UNL     1      -5.460  -4.519   0.317  0.00  0.00    +0.155 HD
BRANCH  18  21
ATOM     21  C   UNL     1      -7.686  -4.766  -1.026  0.00  0.00    +0.051 A 
ATOM     22  C   UNL     1      -7.740  -5.536   0.137  0.00  0.00    +0.014 A 
ATOM     23  C   UNL     1      -8.880  -6.253   0.434  0.00  0.00    +0.001 A 
ATOM     24  C   UNL     1      -9.970  -6.210  -0.419  0.00  0.00    +0.001 A 
ATOM     25  C   UNL     1      -9.924  -5.449  -1.573  0.00  0.00    +0.016 A 
ATOM     26  C   UNL     1      -8.791  -4.722  -1.879  0.00  0.00    +0.030 A 
ATOM     27 BR   UNL     1      -8.733  -3.675  -3.453  0.00  0.00    -0.050 Br
ENDBRANCH  18  21
ENDBRANCH  15  17
ENDBRANCH   4  11
BRANCH   3  28
ATOM     28  C   UNL     1      -2.998   0.471   0.990  0.00  0.00    +0.339 C 
ATOM     29  O   UNL     1      -3.207   1.669   0.974  0.00  0.00    -0.245 OA
BRANCH  28  30
ATOM     30  O   UNL     1      -4.015  -0.388   1.209  0.00  0.00    -0.461 OA
BRANCH  30  31
ATOM     31  C   UNL     1      -5.311   0.179   1.413  0.00  0.00    +0.235 C 
BRANCH  31  32
ATOM     32  C   UNL     1      -6.328  -0.941   1.643  0.00  0.00    +0.020 C 
ATOM     33  C   UNL     1      -5.996  -1.671   2.946  0.00  0.00    +0.010 C 
ATOM     34  C   UNL     1      -7.733  -0.343   1.738  0.00  0.00    +0.010 C 
ENDBRANCH  31  32
ENDBRANCH  30  31
ENDBRANCH  28  30
ENDBRANCH   3  28
TORSDOF 7
