REMARK  Name = ZINC39722291
REMARK  7 active torsions:
REMARK  status: ('A' for Active; 'I' for Inactive)
REMARK    1  A    between atoms: C_4  and  C_7
REMARK    2  A    between atoms: C_7  and  C_8
REMARK    3  A    between atoms: C_8  and  N_9
REMARK    4  A    between atoms: C_17  and  S_19
REMARK    5  A    between atoms: S_19  and  C_20
REMARK    6  A    between atoms: C_20  and  C_21
REMARK    7  A    between atoms: C_29  and  C_33
REMARK                            x       y       z     vdW  Elec       q    Type
REMARK                         _______ _______ _______ _____ _____    ______ ____
ROOT
ATOM      1  N   UNL     1       5.450  -1.678   1.382  0.00  0.00    -0.301 N 
ATOM      2  C   UNL     1       5.623  -3.069   1.367  0.00  0.00    +0.053 A 
ATOM      3  C   UNL     1       4.686  -4.096   1.365  0.00  0.00    +0.025 A 
ATOM      4  C   UNL     1       5.101  -5.414   1.350  0.00  0.00    +0.002 A 
ATOM      5  C   UNL     1       6.449  -5.717   1.337  0.00  0.00    +0.002 A 
ATOM      6  C   UNL     1       7.388  -4.703   1.339  0.00  0.00    +0.025 A 
ATOM      7  C   UNL     1       6.981  -3.375   1.353  0.00  0.00    +0.050 A 
ATOM      8  N   UNL     1       7.734  -2.192   1.359  0.00  0.00    -0.316 N 
ATOM      9  C   UNL     1       6.786  -1.071   1.371  0.00  0.00    +0.220 C 
ATOM     10  H   UNL     1       8.701  -2.127   1.353  0.00  0.00    +0.149 HD
ENDROOT
BRANCH   1  11
ATOM     11  C   UNL     1       4.171  -0.963   1.399  0.00  0.00    +0.112 C 
BRANCH  11  12
ATOM     12  C   UNL     1       3.711  -0.707  -0.038  0.00  0.00    +0.054 C 
BRANCH  12  16
ATOM     13  C   UNL     1      -0.017   1.378   0.010  0.00  0.00    +0.000 A 
ATOM     14  C   UNL     1       1.171   2.086   0.002  0.00  0.00    +0.000 A 
ATOM     15  C   UNL     1       2.377   1.411  -0.013  0.00  0.00    +0.004 A 
ATOM     16  C   UNL     1       2.396   0.029  -0.020  0.00  0.00    -0.046 A 
ATOM     17  C   UNL     1       1.208  -0.679  -0.012  0.00  0.00    +0.004 A 
ATOM     18  C   UNL     1       0.002  -0.004   0.002  0.00  0.00    +0.000 A 
ENDBRANCH  12  16
ENDBRANCH  11  12
ENDBRANCH   1  11
BRANCH   9  19
ATOM     19  S   UNL     1       7.029  -0.066   2.861  0.00  0.00    -0.112 S 
BRANCH  19  20
ATOM     20  C   UNL     1       6.837  -1.248   4.224  0.00  0.00    +0.146 C 
BRANCH  20  21
ATOM     21  C   UNL     1       7.018  -0.534   5.538  0.00  0.00    +0.120 A 
ATOM     22  N   UNL     1       6.915  -1.256   6.684  0.00  0.00    -0.310 N 
ATOM     23  H   UNL     1       6.730  -2.207   6.638  0.00  0.00    +0.170 HD
ATOM     24  C   UNL     1       7.069  -0.662   7.890  0.00  0.00    +0.259 A 
ATOM     25  O   UNL     1       6.981  -1.297   8.924  0.00  0.00    -0.267 OA
ATOM     26  C   UNL     1       7.350   0.784   7.902  0.00  0.00    +0.065 A 
ATOM     27  C   UNL     1       7.525   1.488   9.092  0.00  0.00    +0.016 A 
ATOM     28  C   UNL     1       7.784   2.829   9.058  0.00  0.00    +0.016 A 
ATOM     29  C   UNL     1       7.875   3.506   7.834  0.00  0.00    +0.065 A 
ATOM     30  C   UNL     1       7.703   2.822   6.636  0.00  0.00    +0.043 A 
ATOM     31  C   UNL     1       7.438   1.451   6.660  0.00  0.00    +0.079 A 
ATOM     32  N   UNL     1       7.268   0.740   5.518  0.00  0.00    -0.233 NA
BRANCH  29  33
ATOM     33  C   UNL     1       8.156   4.957   7.817  0.00  0.00    +0.387 C 
ATOM     34  O   UNL     1       8.308   5.562   8.869  0.00  0.00    -0.241 OA
ATOM     35  O   UNL     1       8.236   5.552   6.752  0.00  0.00    -0.241 OA
ENDBRANCH  29  33
ENDBRANCH  20  21
ENDBRANCH  19  20
ENDBRANCH   9  19
TORSDOF 7
