REMARK  Name = ZINC04784567
REMARK  3 active torsions:
REMARK  status: ('A' for Active; 'I' for Inactive)
REMARK    1  A    between atoms: C_6  and  C_7
REMARK    2  A    between atoms: N_9  and  N_10
REMARK    3  A    between atoms: C_11  and  C_12
REMARK                            x       y       z     vdW  Elec       q    Type
REMARK                         _______ _______ _______ _____ _____    ______ ____
ROOT
ATOM      1  N   UNL     1       1.250   1.824  -0.445  0.00  0.00    -0.187 NA
ATOM      2  C   UNL     1       2.283   1.222   0.061  0.00  0.00    +0.139 C 
ENDROOT
BRANCH   2   3
ATOM      3  C   UNL     1       2.347  -0.250   0.070  0.00  0.00    +0.012 A 
ATOM      4  C   UNL     1       1.170  -1.003   0.088  0.00  0.00    +0.060 A 
ATOM      5  C   UNL     1       1.234  -2.383   0.096  0.00  0.00    +0.167 A 
ATOM      6  C   UNL     1       2.474  -3.024   0.088  0.00  0.00    +0.167 A 
ATOM      7  C   UNL     1       3.642  -2.277   0.069  0.00  0.00    +0.065 A 
ATOM      8  C   UNL     1       3.586  -0.898   0.056  0.00  0.00    +0.030 A 
ATOM      9 BR   UNL     1       5.183   0.114   0.025  0.00  0.00    -0.050 Br
ATOM     10  O   UNL     1       2.266  -4.373   0.099  0.00  0.00    -0.453 OA
ATOM     11  C   UNL     1       0.903  -4.549   0.528  0.00  0.00    +0.466 C 
ATOM     12  O   UNL     1       0.253  -3.333   0.114  0.00  0.00    -0.453 OA
ENDBRANCH   2   3
BRANCH   1  15
ATOM     13  C   UNL     1      -0.834   1.692  -1.588  0.00  0.00    +0.263 C 
ATOM     14  O   UNL     1      -0.990   2.886  -1.418  0.00  0.00    -0.268 OA
ATOM     15  N   UNL     1       0.297   1.093  -1.166  0.00  0.00    -0.203 N 
ATOM     16  H   UNL     1       0.453   0.156  -1.365  0.00  0.00    +0.178 HD
BRANCH  13  22
ATOM     17  C   UNL     1      -1.755  -0.489  -2.362  0.00  0.00    +0.016 A 
ATOM     18  C   UNL     1      -2.742  -1.225  -2.981  0.00  0.00    +0.039 A 
ATOM     19  C   UNL     1      -3.856  -0.591  -3.509  0.00  0.00    +0.123 A 
ATOM     20  C   UNL     1      -3.988   0.786  -3.412  0.00  0.00    +0.039 A 
ATOM     21  C   UNL     1      -3.010   1.532  -2.789  0.00  0.00    +0.016 A 
ATOM     22  C   UNL     1      -1.885   0.898  -2.256  0.00  0.00    +0.039 A 
ATOM     23  F   UNL     1      -4.818  -1.317  -4.120  0.00  0.00    -0.205 F 
ENDBRANCH  13  22
ENDBRANCH   1  15
TORSDOF 3
