REMARK  Name = ZINC11081306
REMARK  6 active torsions:
REMARK  status: ('A' for Active; 'I' for Inactive)
REMARK    1  A    between atoms: C_1  and  C_2
REMARK    2  A    between atoms: C_2  and  C_4
REMARK    3  A    between atoms: C_2  and  O_15
REMARK    4  A    between atoms: N_6  and  C_7
REMARK    5  A    between atoms: O_15  and  C_16
REMARK    6  A    between atoms: C_16  and  C_18
REMARK                            x       y       z     vdW  Elec       q    Type
REMARK                         _______ _______ _______ _____ _____    ______ ____
ROOT
ATOM      1  C   UNL     1       2.395  -4.785   1.411  0.00  0.00    +0.062 C 
ATOM      2  C   UNL     1       2.389  -4.264  -0.027  0.00  0.00    +0.259 C 
ENDROOT
BRANCH   2   3
ATOM      3  C   UNL     1       3.589  -4.803  -0.762  0.00  0.00    +0.258 C 
ATOM      4  O   UNL     1       4.453  -4.046  -1.151  0.00  0.00    -0.271 OA
ATOM      5  N   UNL     1       3.702  -6.127  -0.987  0.00  0.00    -0.281 N 
ATOM      6  H   UNL     1       3.045  -6.739  -0.620  0.00  0.00    +0.155 HD
BRANCH   5   7
ATOM      7  C   UNL     1       4.768  -6.619  -1.751  0.00  0.00    +0.052 A 
ATOM      8  C   UNL     1       6.012  -6.007  -1.684  0.00  0.00    +0.026 A 
ATOM      9  C   UNL     1       7.062  -6.493  -2.438  0.00  0.00    +0.022 A 
ATOM     10  C   UNL     1       6.875  -7.590  -3.261  0.00  0.00    +0.042 A 
ATOM     11  C   UNL     1       5.636  -8.203  -3.330  0.00  0.00    +0.041 A 
ATOM     12  C   UNL     1       4.583  -7.723  -2.573  0.00  0.00    +0.064 A 
ATOM     13 CL   UNL     1       3.031  -8.496  -2.655  0.00  0.00    -0.082 Cl
ATOM     14 CL   UNL     1       8.197  -8.199  -4.207  0.00  0.00    -0.083 Cl
ENDBRANCH   5   7
ENDBRANCH   2   3
BRANCH   2  15
ATOM     15  O   UNL     1       2.441  -2.812  -0.015  0.00  0.00    -0.449 OA
BRANCH  15  16
ATOM     16  C   UNL     1       1.263  -2.159   0.010  0.00  0.00    +0.340 C 
ATOM     17  O   UNL     1       0.221  -2.784   0.022  0.00  0.00    -0.245 OA
BRANCH  16  18
ATOM     18  C   UNL     1       1.238  -0.682   0.023  0.00  0.00    +0.059 A 
ATOM     19  C   UNL     1       0.018  -0.002   0.049  0.00  0.00    +0.016 A 
ATOM     20  C   UNL     1       0.002   1.377   0.061  0.00  0.00    +0.016 A 
ATOM     21  C   UNL     1       1.191   2.087   0.048  0.00  0.00    +0.018 A 
ATOM     22  C   UNL     1       2.403   1.418   0.022  0.00  0.00    +0.016 A 
ATOM     23  C   UNL     1       2.433   0.039   0.009  0.00  0.00    +0.016 A 
ATOM     24 BR   UNL     1       1.159   3.977   0.065  0.00  0.00    -0.050 Br
ENDBRANCH  16  18
ENDBRANCH  15  16
ENDBRANCH   2  15
TORSDOF 5
