REMARK  Name = ZINC15911951
REMARK  9 active torsions:
REMARK  status: ('A' for Active; 'I' for Inactive)
REMARK    1  A    between atoms: C_1  and  C_2
REMARK    2  A    between atoms: C_3  and  C_27
REMARK    3  A    between atoms: C_4  and  C_10
REMARK    4  A    between atoms: C_13  and  O_18
REMARK    5  A    between atoms: C_14  and  O_16
REMARK    6  A    between atoms: O_16  and  C_17
REMARK    7  A    between atoms: O_18  and  C_19
REMARK    8  A    between atoms: C_19  and  C_20
REMARK    9  A    between atoms: C_27  and  C_29
REMARK                            x       y       z     vdW  Elec       q    Type
REMARK                         _______ _______ _______ _____ _____    ______ ____
ROOT
ATOM      1  C   UNL     1      -4.924   0.991   3.069  0.00  0.00    +0.061 C 
ATOM      2  C   UNL     1      -4.342   1.284   1.710  0.00  0.00    +0.018 C 
ATOM      3  C   UNL     1      -3.053   0.963   1.455  0.00  0.00    +0.041 C 
ATOM      4  C   UNL     1      -2.509   1.276   0.076  0.00  0.00    +0.140 C 
ATOM      5  N   UNL     1      -3.435   1.908  -0.879  0.00  0.00    -0.288 N 
ATOM      6  C   UNL     1      -4.694   2.168  -0.476  0.00  0.00    +0.304 C 
ATOM      7  O   UNL     1      -5.465   2.690  -1.257  0.00  0.00    -0.252 OA
ATOM      8  N   UNL     1      -5.124   1.870   0.757  0.00  0.00    -0.273 N 
ATOM      9  H   UNL     1      -3.145   2.133  -1.777  0.00  0.00    +0.151 HD
ATOM     10  H   UNL     1      -6.042   2.082   0.985  0.00  0.00    +0.156 HD
ENDROOT
BRANCH   4  11
ATOM     11  C   UNL     1      -1.319   2.186   0.242  0.00  0.00    -0.019 A 
ATOM     12  C   UNL     1      -1.510   3.542   0.438  0.00  0.00    +0.009 A 
ATOM     13  C   UNL     1      -0.421   4.381   0.585  0.00  0.00    +0.050 A 
ATOM     14  C   UNL     1       0.864   3.864   0.541  0.00  0.00    +0.162 A 
ATOM     15  C   UNL     1       1.055   2.499   0.349  0.00  0.00    +0.162 A 
ATOM     16  C   UNL     1      -0.040   1.663   0.203  0.00  0.00    +0.055 A 
BRANCH  15  17
ATOM     17  O   UNL     1       2.314   1.987   0.306  0.00  0.00    -0.491 OA
ATOM     18  C   UNL     1       2.434   0.566   0.223  0.00  0.00    +0.277 C 
ENDBRANCH  15  17
BRANCH  14  19
ATOM     19  O   UNL     1       1.935   4.689   0.685  0.00  0.00    -0.484 OA
BRANCH  19  20
ATOM     20  C   UNL     1       1.663   6.079   0.879  0.00  0.00    +0.264 C 
BRANCH  20  21
ATOM     21  C   UNL     1       2.962   6.830   1.018  0.00  0.00    -0.010 A 
ATOM     22  C   UNL     1       3.526   7.009   2.267  0.00  0.00    +0.008 A 
ATOM     23  C   UNL     1       4.721   7.693   2.395  0.00  0.00    +0.020 A 
ATOM     24  C   UNL     1       5.345   8.209   1.273  0.00  0.00    +0.041 A 
ATOM     25  C   UNL     1       4.777   8.035   0.024  0.00  0.00    +0.020 A 
ATOM     26  C   UNL     1       3.586   7.345  -0.103  0.00  0.00    +0.008 A 
ATOM     27 CL   UNL     1       6.841   9.074   1.433  0.00  0.00    -0.084 Cl
ENDBRANCH  20  21
ENDBRANCH  19  20
ENDBRANCH  14  19
ENDBRANCH   4  11
BRANCH   3  28
ATOM     28  C   UNL     1      -2.241   0.356   2.442  0.00  0.00    +0.193 C 
ATOM     29  O   UNL     1      -1.936   0.975   3.445  0.00  0.00    -0.287 OA
BRANCH  28  30
ATOM     30  C   UNL     1      -1.763  -1.032   2.255  0.00  0.00    +0.022 A 
ATOM     31  C   UNL     1      -2.181  -1.774   1.148  0.00  0.00    +0.013 A 
ATOM     32  C   UNL     1      -1.727  -3.064   0.976  0.00  0.00    +0.021 A 
ATOM     33  C   UNL     1      -0.867  -3.629   1.904  0.00  0.00    +0.041 A 
ATOM     34  C   UNL     1      -0.454  -2.899   3.006  0.00  0.00    +0.021 A 
ATOM     35  C   UNL     1      -0.896  -1.606   3.186  0.00  0.00    +0.013 A 
ATOM     36 CL   UNL     1      -0.306  -5.256   1.684  0.00  0.00    -0.084 Cl
ENDBRANCH  28  30
ENDBRANCH   3  28
TORSDOF 7
