REMARK  Name = ZINC38555869
REMARK  9 active torsions:
REMARK  status: ('A' for Active; 'I' for Inactive)
REMARK    1  A    between atoms: C_1  and  C_2
REMARK    2  A    between atoms: C_19  and  C_21
REMARK    3  A    between atoms: C_21  and  N_22
REMARK    4  A    between atoms: N_22  and  C_23
REMARK    5  A    between atoms: C_23  and  C_25
REMARK    6  A    between atoms: C_23  and  C_32
REMARK    7  A    between atoms: C_25  and  C_26
REMARK    8  A    between atoms: C_37  and  C_39
REMARK    9  A    between atoms: C_37  and  C_40
REMARK                            x       y       z     vdW  Elec       q    Type
REMARK                         _______ _______ _______ _____ _____    ______ ____
ROOT
ATOM      1  N   UNL     1       5.054  -2.022   0.480  0.00  0.00    +0.382 N 
ATOM      2  H   UNL     1       5.280  -2.993   0.636  0.00  0.00    -0.085 HD
ATOM      3  H   UNL     1       5.295  -1.768  -0.467  0.00  0.00    -0.085 HD
ENDROOT
BRANCH   1   4
ATOM      4  C   UNL     1       3.615  -1.815   0.691  0.00  0.00    -0.067 C 
BRANCH   4  20
ATOM      5  C   UNL     1      -0.019   1.528   0.010  0.00  0.00    +0.012 C 
ATOM      6  C   UNL     1       0.002  -0.004   0.002  0.00  0.00    -0.022 C 
ATOM      7  C   UNL     1      -1.424  -0.538  -0.019  0.00  0.00    +0.007 C 
ATOM      8  C   UNL     1      -2.214  -0.070   1.202  0.00  0.00    +0.005 C 
ATOM      9  C   UNL     1      -1.532  -0.547   2.487  0.00  0.00    +0.030 C 
ATOM     10  C   UNL     1      -0.083  -0.116   2.459  0.00  0.00    -0.073 C 
ATOM     11  C   UNL     1       0.444   0.564   3.446  0.00  0.00    +0.008 C 
ATOM     12  C   UNL     1       0.744  -0.509   1.244  0.00  0.00    +0.021 C 
ATOM     13  C   UNL     1       0.831  -2.029   1.211  0.00  0.00    +0.016 C 
ATOM     14  C   UNL     1       1.313  -2.635  -0.068  0.00  0.00    +0.042 C 
ATOM     15  C   UNL     1       0.780  -1.979  -1.353  0.00  0.00    +0.181 C 
ATOM     16  C   UNL     1       0.765  -0.457  -1.239  0.00  0.00    +0.052 C 
ATOM     17  O   UNL     1       1.806  -2.304  -2.330  0.00  0.00    -0.461 OA
ATOM     18  C   UNL     1       2.999  -2.181  -1.712  0.00  0.00    +0.309 C 
ATOM     19  O   UNL     1       4.016  -1.753  -2.197  0.00  0.00    -0.251 OA
ATOM     20  C   UNL     1       2.828  -2.683  -0.284  0.00  0.00    +0.087 C 
ENDBRANCH   4  20
ENDBRANCH   1   4
BRANCH   1  21
ATOM     21  C   UNL     1       5.812  -1.185   1.420  0.00  0.00    -0.064 C 
BRANCH  21  22
ATOM     22  C   UNL     1       5.564   0.291   1.102  0.00  0.00    -0.020 C 
ATOM     23  C   UNL     1       6.024   0.592  -0.328  0.00  0.00    +0.030 C 
ATOM     24  C   UNL     1       5.846   2.086  -0.609  0.00  0.00    +0.161 C 
ATOM     25  O   UNL     1       6.586   2.842   0.352  0.00  0.00    -0.374 OA
ATOM     26  C   UNL     1       6.168   2.637   1.703  0.00  0.00    +0.064 C 
ATOM     27  C   UNL     1       6.357   1.165   2.079  0.00  0.00    +0.036 C 
ATOM     28  C   UNL     1       4.691   3.011   1.843  0.00  0.00    +0.041 C 
ATOM     29  C   UNL     1       7.007   3.514   2.635  0.00  0.00    +0.041 C 
ENDBRANCH  21  22
BRANCH  21  30
ATOM     30  C   UNL     1       7.305  -1.492   1.286  0.00  0.00    +0.019 C 
BRANCH  30  31
ATOM     31  C   UNL     1       7.566  -2.912   1.716  0.00  0.00    -0.049 A 
ATOM     32  C   UNL     1       7.858  -3.191   3.038  0.00  0.00    +0.003 A 
ATOM     33  C   UNL     1       8.097  -4.494   3.433  0.00  0.00    +0.000 A 
ATOM     34  C   UNL     1       8.045  -5.518   2.506  0.00  0.00    +0.000 A 
ATOM     35  C   UNL     1       7.752  -5.239   1.185  0.00  0.00    +0.000 A 
ATOM     36  C   UNL     1       7.508  -3.937   0.790  0.00  0.00    +0.003 A 
ENDBRANCH  30  31
ENDBRANCH  21  30
ENDBRANCH   1  21
TORSDOF 6
