REMARK  Name = ZINC39667633
REMARK  8 active torsions:
REMARK  status: ('A' for Active; 'I' for Inactive)
REMARK    1  A    between atoms: C_1  and  C_2
REMARK    2  A    between atoms: C_6  and  C_9
REMARK    3  A    between atoms: C_7  and  C_8
REMARK    4  A    between atoms: C_9  and  N_10
REMARK    5  A    between atoms: C_11  and  C_13
REMARK    6  A    between atoms: C_24  and  C_26
REMARK    7  A    between atoms: C_28  and  C_35
REMARK    8  A    between atoms: C_30  and  C_31
REMARK                            x       y       z     vdW  Elec       q    Type
REMARK                         _______ _______ _______ _____ _____    ______ ____
ROOT
ATOM      1  C   UNL     1      -2.864  -3.600   4.732  0.00  0.00    +0.100 C 
ATOM      2  C   UNL     1      -3.872  -4.263   3.768  0.00  0.00    +0.121 C 
ATOM      3  N   UNL     1      -3.894  -5.689   4.172  0.00  0.00    -0.296 N 
ATOM      4  C   UNL     1      -3.828  -5.654   5.652  0.00  0.00    +0.115 C 
ATOM      5  C   UNL     1      -2.840  -4.513   5.969  0.00  0.00    -0.004 C 
ATOM      6  C   UNL     1      -3.301  -3.743   7.203  0.00  0.00    -0.010 C 
ATOM      7  C   UNL     1      -3.213  -4.655   8.430  0.00  0.00    -0.082 C 
ATOM      8  N   UNL     1      -1.830  -5.114   8.603  0.00  0.00    +0.379 N 
ATOM      9  C   UNL     1      -1.427  -5.933   7.453  0.00  0.00    -0.082 C 
ATOM     10  C   UNL     1      -1.438  -5.075   6.185  0.00  0.00    -0.010 C 
ATOM     11  C   UNL     1      -3.960  -6.773   3.373  0.00  0.00    +0.250 C 
ATOM     12  O   UNL     1      -3.893  -6.644   2.166  0.00  0.00    -0.270 OA
ATOM     13  H   UNL     1      -1.218  -4.316   8.677  0.00  0.00    -0.086 HD
ATOM     14  H   UNL     1      -1.763  -5.665   9.446  0.00  0.00    -0.086 HD
ENDROOT
BRANCH  11  15
ATOM     15  C   UNL     1      -4.112  -8.115   3.964  0.00  0.00    +0.087 A 
ATOM     16  C   UNL     1      -4.354  -8.442   5.377  0.00  0.00    +0.058 A 
ATOM     17  C   UNL     1      -4.422  -9.780   5.439  0.00  0.00    +0.103 A 
ATOM     18  O   UNL     1      -4.246 -10.287   4.208  0.00  0.00    -0.455 OA
ATOM     19  C   UNL     1      -4.065  -9.312   3.312  0.00  0.00    +0.220 A 
ATOM     20  C   UNL     1      -4.658 -10.586   6.690  0.00  0.00    +0.086 C 
BRANCH  19  21
ATOM     21  C   UNL     1      -3.842  -9.504   1.834  0.00  0.00    +0.451 C 
ATOM     22  F   UNL     1      -2.472  -9.622   1.580  0.00  0.00    -0.163 F 
ATOM     23  F   UNL     1      -4.497 -10.665   1.411  0.00  0.00    -0.163 F 
ATOM     24  F   UNL     1      -4.352  -8.402   1.139  0.00  0.00    -0.163 F 
ENDBRANCH  19  21
ENDBRANCH  11  15
BRANCH   1  26
ATOM     25  N   UNL     1      -0.653  -2.535   4.416  0.00  0.00    -0.311 N 
ATOM     26  C   UNL     1      -1.497  -3.537   4.100  0.00  0.00    +0.218 C 
ATOM     27  O   UNL     1      -1.156  -4.389   3.307  0.00  0.00    -0.275 OA
ATOM     28  H   UNL     1      -0.926  -1.853   5.051  0.00  0.00    +0.149 HD
BRANCH  25  29
ATOM     29  C   UNL     1       0.675  -2.474   3.802  0.00  0.00    +0.139 C 
BRANCH  29  35
ATOM     30  C   UNL     1       3.368  -0.249   7.386  0.00  0.00    +0.044 C 
ATOM     31  C   UNL     1       2.701  -0.202   6.035  0.00  0.00    -0.047 A 
ATOM     32  C   UNL     1       2.767   0.948   5.272  0.00  0.00    +0.003 A 
ATOM     33  C   UNL     1       2.155   0.991   4.033  0.00  0.00    +0.001 A 
ATOM     34  C   UNL     1       1.478  -0.116   3.557  0.00  0.00    +0.005 A 
ATOM     35  C   UNL     1       1.414  -1.267   4.320  0.00  0.00    -0.027 A 
ATOM     36  C   UNL     1       2.029  -1.311   5.558  0.00  0.00    -0.043 A 
ATOM     37  C   UNL     1       1.963  -2.568   6.387  0.00  0.00    +0.044 C 
ENDBRANCH  29  35
ENDBRANCH  25  29
ENDBRANCH   1  26
TORSDOF 5
