REMARK  Name = ZINC13730059
REMARK  7 active torsions:
REMARK  status: ('A' for Active; 'I' for Inactive)
REMARK    1  A    between atoms: C_1  and  C_2
REMARK    2  A    between atoms: C_2  and  C_3
REMARK    3  A    between atoms: C_2  and  S_4
REMARK    4  A    between atoms: S_4  and  C_5
REMARK    5  A    between atoms: C_14  and  S_17
REMARK    6  A    between atoms: S_17  and  C_18
REMARK    7  A    between atoms: C_18  and  C_19
REMARK                            x       y       z     vdW  Elec       q    Type
REMARK                         _______ _______ _______ _____ _____    ______ ____
ROOT
ATOM      1  C   UNL     1      -3.499   1.373   4.625  0.00  0.00    +0.177 A 
ATOM      2  N   UNL     1      -2.660   1.439   3.630  0.00  0.00    -0.222 NA
ATOM      3  C   UNL     1      -3.028   1.155   2.334  0.00  0.00    +0.088 A 
ATOM      4  C   UNL     1      -2.198   1.195   1.185  0.00  0.00    -0.011 A 
ATOM      5  C   UNL     1      -2.757   0.879  -0.009  0.00  0.00    -0.004 A 
ATOM      6  S   UNL     1      -4.449   0.510   0.378  0.00  0.00    -0.088 S 
ATOM      7  C   UNL     1      -4.362   0.789   2.128  0.00  0.00    +0.083 A 
ATOM      8  C   UNL     1      -5.274   0.715   3.190  0.00  0.00    +0.180 A 
ATOM      9  N   UNL     1      -4.810   1.018   4.461  0.00  0.00    -0.248 N 
ATOM     10  C   UNL     1      -5.883   0.869   5.291  0.00  0.00    +0.198 A 
ATOM     11  N   UNL     1      -6.902   0.502   4.548  0.00  0.00    -0.122 NA
ATOM     12  N   UNL     1      -6.548   0.411   3.315  0.00  0.00    -0.127 NA
ATOM     13  C   UNL     1      -2.091   0.851  -1.348  0.00  0.00    +0.043 C 
ATOM     14  C   UNL     1      -0.749   1.591  -1.236  0.00  0.00    +0.005 C 
ATOM     15  C   UNL     1      -0.013   1.086   0.008  0.00  0.00    +0.005 C 
ATOM     16  C   UNL     1      -0.724   1.577   1.269  0.00  0.00    +0.038 C 
ENDROOT
BRANCH   1  17
ATOM     17  S   UNL     1      -2.922   1.758   6.245  0.00  0.00    -0.084 S 
BRANCH  17  19
ATOM     18  C   UNL     1      -0.499   2.635   7.152  0.00  0.00    +0.019 C 
ATOM     19  C   UNL     1      -1.192   2.142   5.880  0.00  0.00    +0.048 C 
ATOM     20  C   UNL     1      -0.486   0.883   5.372  0.00  0.00    +0.019 C 
ENDBRANCH  17  19
ENDBRANCH   1  17
BRANCH  10  21
ATOM     21  S   UNL     1      -5.898   1.120   7.035  0.00  0.00    -0.076 S 
BRANCH  21  22
ATOM     22  C   UNL     1      -7.609   0.759   7.516  0.00  0.00    +0.172 C 
BRANCH  22  23
ATOM     23  C   UNL     1      -7.761   0.938   9.004  0.00  0.00    +0.221 C 
ATOM     24  O   UNL     1      -6.809   1.276   9.675  0.00  0.00    -0.275 OA
ATOM     25  N   UNL     1      -8.955   0.723   9.591  0.00  0.00    -0.329 N 
ATOM     26  H   UNL     1      -9.717   0.452   9.054  0.00  0.00    +0.145 HD
ATOM     27  H   UNL     1      -9.053   0.838  10.549  0.00  0.00    +0.145 HD
ENDBRANCH  22  23
ENDBRANCH  21  22
ENDBRANCH  10  21
TORSDOF 5
