REMARK  Name = ZINC34114993
REMARK  2 active torsions:
REMARK  status: ('A' for Active; 'I' for Inactive)
REMARK    1  A    between atoms: C_1  and  C_2
REMARK    2  A    between atoms: N_13  and  C_19
REMARK                            x       y       z     vdW  Elec       q    Type
REMARK                         _______ _______ _______ _____ _____    ______ ____
ROOT
ATOM      1  C   UNL     1      -0.018   1.503   0.010  0.00  0.00    +0.044 C 
ATOM      2  C   UNL     1       0.002  -0.004   0.002  0.00  0.00    -0.050 A 
ATOM      3  C   UNL     1       0.005  -0.668  -1.214  0.00  0.00    +0.005 A 
ATOM      4  C   UNL     1       0.026  -2.049  -1.299  0.00  0.00    +0.026 A 
ATOM      5  C   UNL     1       0.042  -2.761  -0.102  0.00  0.00    +0.050 A 
ATOM      6  C   UNL     1       0.036  -2.073   1.149  0.00  0.00    +0.004 A 
ATOM      7  C   UNL     1       0.022  -0.675   1.199  0.00  0.00    +0.013 A 
ATOM      8  C   UNL     1       0.051  -3.091   2.163  0.00  0.00    -0.017 A 
ATOM      9  C   UNL     1       0.043  -4.274   1.518  0.00  0.00    +0.040 A 
ATOM     10  N   UNL     1       0.069  -4.097   0.163  0.00  0.00    -0.341 N 
ATOM     11  C   UNL     1       0.135  -5.245  -0.755  0.00  0.00    +0.137 C 
ATOM     12  C   UNL     1      -0.244  -6.506   0.031  0.00  0.00    +0.109 C 
ATOM     13  N   UNL     1       0.514  -6.599   1.287  0.00  0.00    -0.267 NA
ATOM     14  C   UNL     1       0.044  -5.592   2.261  0.00  0.00    +0.106 C 
ATOM     15  C   UNL     1       1.016  -5.480   3.425  0.00  0.00    +0.025 C 
ATOM     16  C   UNL     1       1.036  -4.161   4.156  0.00  0.00    +0.007 C 
ATOM     17  C   UNL     1       0.081  -3.082   3.667  0.00  0.00    +0.037 C 
ENDROOT
BRANCH  13  18
ATOM     18  C   UNL     1       0.435  -7.953   1.851  0.00  0.00    +0.191 C 
ATOM     19  C   UNL     1       0.999  -9.034   0.921  0.00  0.00    +0.076 C 
ATOM     20  C   UNL     1      -0.200  -9.810   1.479  0.00  0.00    +0.166 C 
ATOM     21  O   UNL     1      -0.858  -8.556   1.704  0.00  0.00    -0.361 OA
ENDBRANCH  13  18
TORSDOF 1
