REMARK  Name = ZINC37316377
REMARK  4 active torsions:
REMARK  status: ('A' for Active; 'I' for Inactive)
REMARK    1  A    between atoms: C_1  and  C_2
REMARK    2  A    between atoms: C_2  and  C_4
REMARK    3  A    between atoms: C_2  and  N_10
REMARK    4  A    between atoms: N_10  and  C_11
REMARK                            x       y       z     vdW  Elec       q    Type
REMARK                         _______ _______ _______ _____ _____    ______ ____
ROOT
ATOM      1  C   UNL     1       0.026  -0.639   2.400  0.00  0.00    +0.044 A 
ATOM      2  C   UNL     1      -1.325  -0.333   2.474  0.00  0.00    +0.051 A 
ATOM      3  C   UNL     1      -2.001  -0.482   3.675  0.00  0.00    +0.069 A 
ATOM      4  C   UNL     1      -1.320  -0.940   4.805  0.00  0.00    +0.068 A 
ATOM      5  C   UNL     1       0.030  -1.245   4.726  0.00  0.00    +0.045 A 
ATOM      6  C   UNL     1       0.700  -1.100   3.526  0.00  0.00    +0.041 A 
ATOM      7 BR   UNL     1       2.540  -1.522   3.417  0.00  0.00    -0.048 Br
ATOM      8  N   UNL     1      -2.251  -0.986   5.844  0.00  0.00    -0.306 N 
ATOM      9  H   UNL     1      -2.071  -1.266   6.755  0.00  0.00    +0.170 HD
ATOM     10  C   UNL     1      -3.440  -0.575   5.365  0.00  0.00    +0.325 A 
ATOM     11  O   UNL     1      -4.467  -0.497   6.014  0.00  0.00    -0.247 OA
ATOM     12  N   UNL     1      -3.321  -0.265   4.061  0.00  0.00    -0.306 N 
ATOM     13  H   UNL     1      -4.035   0.057   3.487  0.00  0.00    +0.170 HD
ENDROOT
BRANCH   1  14
ATOM     14  N   UNL     1       0.711  -0.489   1.189  0.00  0.00    -0.336 N 
ATOM     15  H   UNL     1       1.654  -0.707   1.135  0.00  0.00    +0.147 HD
BRANCH  14  17
ATOM     16  C   UNL     1      -0.019   1.526   0.010  0.00  0.00    +0.033 C 
ATOM     17  C   UNL     1       0.002  -0.004   0.002  0.00  0.00    +0.105 C 
BRANCH  17  18
ATOM     18  C   UNL     1       0.707  -0.490  -1.238  0.00  0.00    +0.024 A 
ATOM     19  C   UNL     1       0.180  -1.028  -2.365  0.00  0.00    +0.030 A 
ATOM     20  C   UNL     1       1.029  -1.406  -3.388  0.00  0.00    +0.023 A 
ATOM     21  C   UNL     1       2.364  -1.229  -3.234  0.00  0.00    +0.046 A 
ATOM     22  S   UNL     1       2.454  -0.500  -1.607  0.00  0.00    -0.099 S 
ATOM     23 BR   UNL     1      -1.690  -1.257  -2.535  0.00  0.00    -0.049 Br
ENDBRANCH  17  18
ENDBRANCH  14  17
ENDBRANCH   1  14
TORSDOF 3
