REMARK  Name = ZINC63617083
REMARK  13 active torsions:
REMARK  status: ('A' for Active; 'I' for Inactive)
REMARK    1  A    between atoms: C_1  and  C_2
REMARK    2  A    between atoms: C_2  and  O_3
REMARK    3  A    between atoms: O_3  and  C_4
REMARK    4  A    between atoms: C_4  and  C_5
REMARK    5  A    between atoms: C_5  and  C_6
REMARK    6  A    between atoms: C_6  and  N_7
REMARK    7  A    between atoms: C_8  and  C_10
REMARK    8  A    between atoms: C_10  and  C_12
REMARK    9  A    between atoms: C_10  and  N_19
REMARK   10  A    between atoms: N_19  and  C_20
REMARK   11  A    between atoms: C_20  and  C_21
REMARK   12  A    between atoms: C_26  and  C_28
REMARK   13  A    between atoms: C_28  and  C_29
REMARK                            x       y       z     vdW  Elec       q    Type
REMARK                         _______ _______ _______ _____ _____    ______ ____
ROOT
ATOM      1  N   UNL     1       2.915  -7.229  -5.341  0.00  0.00    -0.281 N 
ATOM      2  C   UNL     1       3.119  -8.051  -6.390  0.00  0.00    +0.221 C 
ATOM      3  O   UNL     1       3.700  -7.646  -7.374  0.00  0.00    -0.275 OA
ENDROOT
BRANCH   1   4
ATOM      4  C   UNL     1       3.393  -5.846  -5.391  0.00  0.00    +0.192 C 
BRANCH   4   5
ATOM      5  C   UNL     1       2.739  -5.128  -6.544  0.00  0.00    -0.018 A 
ATOM      6  C   UNL     1       1.516  -5.561  -7.021  0.00  0.00    +0.007 A 
ATOM      7  C   UNL     1       0.914  -4.904  -8.078  0.00  0.00    +0.020 A 
ATOM      8  C   UNL     1       1.537  -3.813  -8.658  0.00  0.00    +0.041 A 
ATOM      9  C   UNL     1       2.761  -3.380  -8.179  0.00  0.00    +0.020 A 
ATOM     10  C   UNL     1       3.358  -4.035  -7.119  0.00  0.00    +0.007 A 
ATOM     11 CL   UNL     1       0.782  -2.987  -9.986  0.00  0.00    -0.084 Cl
ENDBRANCH   4   5
BRANCH   4  13
ATOM     12  N   UNL     1       4.008  -4.528  -3.390  0.00  0.00    -0.313 N 
ATOM     13  C   UNL     1       3.046  -5.147  -4.102  0.00  0.00    +0.238 C 
ATOM     14  O   UNL     1       1.900  -5.142  -3.705  0.00  0.00    -0.273 OA
ATOM     15  H   UNL     1       4.925  -4.532  -3.708  0.00  0.00    +0.149 HD
BRANCH  12  16
ATOM     16  C   UNL     1       3.671  -3.849  -2.137  0.00  0.00    +0.106 C 
BRANCH  16  17
ATOM     17  C   UNL     1       4.935  -3.233  -1.534  0.00  0.00    +0.047 C 
BRANCH  17  18
ATOM     18  C   UNL     1       4.582  -2.524  -0.225  0.00  0.00    +0.161 C 
BRANCH  18  19
ATOM     19  O   UNL     1       5.762  -1.949   0.339  0.00  0.00    -0.380 OA
BRANCH  19  21
ATOM     20  C   UNL     1       6.867  -0.687   2.079  0.00  0.00    +0.034 C 
ATOM     21  C   UNL     1       5.542  -1.259   1.571  0.00  0.00    +0.156 C 
ENDBRANCH  19  21
ENDBRANCH  18  19
ENDBRANCH  17  18
ENDBRANCH  16  17
ENDBRANCH  12  16
ENDBRANCH   4  13
ENDBRANCH   1   4
BRANCH   1  22
ATOM     22  C   UNL     1       2.213  -7.719  -4.152  0.00  0.00    +0.151 C 
BRANCH  22  23
ATOM     23  C   UNL     1       0.725  -7.643  -4.380  0.00  0.00    +0.007 A 
ATOM     24  C   UNL     1      -0.117  -8.598  -4.843  0.00  0.00    +0.013 A 
ATOM     25  C   UNL     1      -1.461  -8.302  -4.971  0.00  0.00    +0.008 A 
ATOM     26  C   UNL     1      -1.897  -7.064  -4.630  0.00  0.00    +0.045 A 
ATOM     27  S   UNL     1      -0.386  -6.274  -4.101  0.00  0.00    -0.100 S 
ENDBRANCH  22  23
ENDBRANCH   1  22
BRANCH   2  28
ATOM     28  C   UNL     1       2.627  -9.475  -6.338  0.00  0.00    +0.129 C 
BRANCH  28  29
ATOM     29  C   UNL     1       2.980 -10.175  -7.625  0.00  0.00    -0.033 C 
ATOM     30  C   UNL     1       4.066 -10.946  -7.860  0.00  0.00    -0.001 A 
ATOM     31  C   UNL     1       5.201 -11.347  -7.020  0.00  0.00    +0.010 A 
ATOM     32  C   UNL     1       6.158 -12.144  -7.547  0.00  0.00    +0.001 A 
ATOM     33  C   UNL     1       6.093 -12.596  -8.872  0.00  0.00    +0.002 A 
ATOM     34  C   UNL     1       5.082 -12.270  -9.705  0.00  0.00    +0.026 A 
ATOM     35  C   UNL     1       4.021 -11.437  -9.256  0.00  0.00    +0.043 A 
ATOM     36  N   UNL     1       2.949 -10.987  -9.861  0.00  0.00    -0.380 N 
ATOM     37  C   UNL     1       2.188 -10.164  -8.914  0.00  0.00    +0.145 C 
ATOM     38  H   UNL     1       2.698 -11.171 -10.779  0.00  0.00    +0.160 HD
ENDBRANCH  28  29
ENDBRANCH   2  28
TORSDOF 12
