REMARK  Name = ZINC12340342
REMARK  7 active torsions:
REMARK  status: ('A' for Active; 'I' for Inactive)
REMARK    1  A    between atoms: C_1  and  C_2
REMARK    2  A    between atoms: C_5  and  S_8
REMARK    3  A    between atoms: S_8  and  N_11
REMARK    4  A    between atoms: N_11  and  N_12
REMARK    5  A    between atoms: C_13  and  C_15
REMARK    6  A    between atoms: C_15  and  S_16
REMARK    7  A    between atoms: S_16  and  C_17
REMARK                            x       y       z     vdW  Elec       q    Type
REMARK                         _______ _______ _______ _____ _____    ______ ____
ROOT
ATOM      1  N   UNL     1      -1.204   3.239  -1.506  0.00  0.00    -0.231 N 
ATOM      2  C   UNL     1      -0.870   3.847  -2.661  0.00  0.00    +0.238 C 
ATOM      3  O   UNL     1      -0.303   3.223  -3.533  0.00  0.00    -0.274 OA
ATOM      4  H   UNL     1      -1.657   3.738  -0.808  0.00  0.00    +0.171 HD
ENDROOT
BRANCH   1   5
ATOM      5  N   UNL     1      -0.897   1.885  -1.312  0.00  0.00    -0.108 NA
ATOM      6  H   UNL     1      -1.201   1.223  -1.952  0.00  0.00    +0.172 HD
BRANCH   5   7
ATOM      7  S   UNL     1      -0.017   1.417   0.010  0.00  0.00    +0.074 S 
ATOM      8  O   UNL     1       0.002  -0.004   0.002  0.00  0.00    -0.152 OA
ATOM      9  O   UNL     1       1.172   2.195   0.003  0.00  0.00    -0.152 OA
BRANCH   7  14
ATOM     10  C   UNL     1      -3.131   3.072   4.906  0.00  0.00    +0.044 C 
ATOM     11  C   UNL     1      -2.353   2.659   3.683  0.00  0.00    -0.050 A 
ATOM     12  C   UNL     1      -2.559   1.412   3.121  0.00  0.00    +0.005 A 
ATOM     13  C   UNL     1      -1.846   1.033   2.000  0.00  0.00    +0.029 A 
ATOM     14  C   UNL     1      -0.927   1.900   1.439  0.00  0.00    +0.107 A 
ATOM     15  C   UNL     1      -0.717   3.145   2.004  0.00  0.00    +0.029 A 
ATOM     16  C   UNL     1      -1.434   3.526   3.123  0.00  0.00    +0.005 A 
ENDBRANCH   7  14
ENDBRANCH   5   7
ENDBRANCH   1   5
BRANCH   2  17
ATOM     17  C   UNL     1      -1.199   5.303  -2.869  0.00  0.00    +0.173 C 
BRANCH  17  18
ATOM     18  S   UNL     1      -0.627   5.823  -4.506  0.00  0.00    -0.096 S 
BRANCH  18  19
ATOM     19  C   UNL     1      -1.127   7.512  -4.482  0.00  0.00    +0.109 A 
ATOM     20  C   UNL     1      -0.876   8.354  -5.602  0.00  0.00    +0.043 A 
ATOM     21  C   UNL     1      -0.220   8.025  -6.868  0.00  0.00    -0.025 A 
ATOM     22  C   UNL     1      -0.107   9.016  -7.775  0.00  0.00    -0.004 A 
ATOM     23  S   UNL     1      -0.856  10.430  -7.010  0.00  0.00    -0.073 S 
ATOM     24  C   UNL     1      -1.321   9.685  -5.469  0.00  0.00    +0.113 A 
ATOM     25  N   UNL     1      -1.926  10.104  -4.375  0.00  0.00    -0.228 NA
ATOM     26  C   UNL     1      -2.131   9.276  -3.368  0.00  0.00    +0.223 A 
ATOM     27  N   UNL     1      -1.746   8.014  -3.425  0.00  0.00    -0.229 NA
ATOM     28  C   UNL     1       0.518   8.937  -9.134  0.00  0.00    +0.043 C 
ATOM     29  C   UNL     1       1.352   7.649  -9.210  0.00  0.00    +0.005 C 
ATOM     30  C   UNL     1       0.507   6.487  -8.680  0.00  0.00    +0.005 C 
ATOM     31  C   UNL     1       0.318   6.628  -7.169  0.00  0.00    +0.037 C 
ENDBRANCH  18  19
ENDBRANCH  17  18
ENDBRANCH   2  17
TORSDOF 6
