REMARK  Name = ZINC20379725
REMARK  3 active torsions:
REMARK  status: ('A' for Active; 'I' for Inactive)
REMARK    1  A    between atoms: C_10  and  C_13
REMARK    2  A    between atoms: C_13  and  C_14
REMARK    3  A    between atoms: N_19  and  C_22
REMARK                            x       y       z     vdW  Elec       q    Type
REMARK                         _______ _______ _______ _____ _____    ______ ____
ROOT
ATOM      1  C   UNL     1      -0.724   2.012   1.250  0.00  0.00    +0.220 C 
ATOM      2  O   UNL     1      -1.167   1.213   2.049  0.00  0.00    -0.275 OA
ATOM      3  N   UNL     1      -0.863   3.334   1.472  0.00  0.00    -0.299 N 
ATOM      4  C   UNL     1      -0.329   4.319   0.520  0.00  0.00    +0.123 C 
ATOM      5  C   UNL     1      -1.450   5.311   0.172  0.00  0.00    +0.103 C 
ATOM      6  N   UNL     1      -1.996   5.879   1.412  0.00  0.00    -0.296 NA
ATOM      7  C   UNL     1      -2.616   4.841   2.246  0.00  0.00    +0.103 C 
ATOM      8  C   UNL     1      -1.548   3.830   2.675  0.00  0.00    +0.123 C 
ENDROOT
BRANCH   6   9
ATOM      9  C   UNL     1      -2.948   6.959   1.122  0.00  0.00    +0.057 C 
ATOM     10  C   UNL     1      -4.156   6.388   0.376  0.00  0.00    +0.019 C 
ATOM     11  C   UNL     1      -5.148   7.513   0.074  0.00  0.00    +0.002 C 
ATOM     12  C   UNL     1      -4.467   8.573  -0.795  0.00  0.00    +0.000 C 
ATOM     13  C   UNL     1      -3.259   9.145  -0.049  0.00  0.00    +0.002 C 
ATOM     14  C   UNL     1      -2.268   8.019   0.253  0.00  0.00    +0.019 C 
ENDBRANCH   6   9
BRANCH   1  15
ATOM     15  C   UNL     1      -0.019   1.526   0.010  0.00  0.00    +0.150 C 
BRANCH  15  25
ATOM     16  C   UNL     1      -3.154  -0.280  -3.802  0.00  0.00    +0.002 A 
ATOM     17  C   UNL     1      -3.912  -0.162  -2.652  0.00  0.00    +0.004 A 
ATOM     18  C   UNL     1      -3.307  -0.222  -1.410  0.00  0.00    +0.047 A 
ATOM     19  C   UNL     1      -1.937  -0.399  -1.317  0.00  0.00    +0.143 A 
ATOM     20  C   UNL     1      -1.170  -0.495  -2.477  0.00  0.00    +0.076 A 
ATOM     21  C   UNL     1      -1.784  -0.450  -3.717  0.00  0.00    +0.027 A 
ATOM     22  N   UNL     1       0.218  -0.659  -2.372  0.00  0.00    -0.280 N 
ATOM     23  C   UNL     1       0.813  -0.489  -1.173  0.00  0.00    +0.259 C 
ATOM     24  O   UNL     1       1.996  -0.725  -1.041  0.00  0.00    -0.271 OA
ATOM     25  C   UNL     1       0.002  -0.004   0.002  0.00  0.00    +0.268 C 
ATOM     26  O   UNL     1      -1.335  -0.497  -0.101  0.00  0.00    -0.477 OA
ATOM     27  H   UNL     1       0.809  -0.923  -3.262  0.00  0.00    +0.155 HD
ENDBRANCH  15  25
ENDBRANCH   1  15
TORSDOF 3
