REMARK  Name = ZINC57415656
REMARK  8 active torsions:
REMARK  status: ('A' for Active; 'I' for Inactive)
REMARK    1  A    between atoms: C_1  and  C_2
REMARK    2  A    between atoms: C_2  and  O_3
REMARK    3  A    between atoms: O_3  and  C_4
REMARK    4  A    between atoms: C_4  and  C_6
REMARK    5  A    between atoms: C_7  and  C_21
REMARK    6  A    between atoms: C_12  and  C_14
REMARK    7  A    between atoms: C_21  and  N_22
REMARK    8  A    between atoms: N_25  and  C_28
REMARK                            x       y       z     vdW  Elec       q    Type
REMARK                         _______ _______ _______ _____ _____    ______ ____
ROOT
ATOM      1  C   UNL     1       1.621  -2.370   2.306  0.00  0.00    +0.079 C 
ATOM      2  C   UNL     1       1.488  -3.675   2.627  0.00  0.00    +0.038 C 
ATOM      3  N   UNL     1       1.954  -4.159   3.816  0.00  0.00    -0.271 N 
ATOM      4  C   UNL     1       2.564  -3.403   4.738  0.00  0.00    +0.304 C 
ATOM      5  O   UNL     1       2.945  -3.925   5.768  0.00  0.00    -0.252 OA
ATOM      6  N   UNL     1       2.769  -2.083   4.561  0.00  0.00    -0.288 N 
ATOM      7  C   UNL     1       2.309  -1.464   3.307  0.00  0.00    +0.144 C 
ATOM      8  H   UNL     1       1.836  -5.103   4.003  0.00  0.00    +0.156 HD
ATOM      9  H   UNL     1       3.213  -1.554   5.242  0.00  0.00    +0.151 HD
ENDROOT
BRANCH   7  10
ATOM     10  C   UNL     1       1.352  -0.356   3.665  0.00  0.00    -0.020 A 
ATOM     11  C   UNL     1       0.349  -0.581   4.590  0.00  0.00    +0.006 A 
ATOM     12  C   UNL     1      -0.529   0.434   4.920  0.00  0.00    +0.003 A 
ATOM     13  C   UNL     1      -0.406   1.675   4.325  0.00  0.00    +0.038 A 
ATOM     14  C   UNL     1       0.598   1.902   3.399  0.00  0.00    +0.124 A 
ATOM     15  C   UNL     1       1.481   0.886   3.074  0.00  0.00    +0.044 A 
ATOM     16  F   UNL     1       0.719   3.115   2.816  0.00  0.00    -0.205 F 
ENDBRANCH   7  10
BRANCH   1  17
ATOM     17  C   UNL     1       1.139  -1.867   1.075  0.00  0.00    +0.339 C 
ATOM     18  O   UNL     1       0.699  -2.631   0.236  0.00  0.00    -0.245 OA
BRANCH  17  19
ATOM     19  O   UNL     1       1.168  -0.540   0.830  0.00  0.00    -0.462 OA
BRANCH  19  21
ATOM     20  C   UNL     1       0.779   1.420  -0.528  0.00  0.00    +0.048 C 
ATOM     21  C   UNL     1       0.665  -0.102  -0.434  0.00  0.00    +0.229 C 
ENDBRANCH  19  21
ENDBRANCH  17  19
ENDBRANCH   1  17
BRANCH   2  22
ATOM     22  C   UNL     1       0.814  -4.612   1.658  0.00  0.00    +0.136 C 
BRANCH  22  23
ATOM     23  N   UNL     1       1.798  -5.095   0.680  0.00  0.00    -0.294 NA
ATOM     24  C   UNL     1       2.740  -6.035   1.302  0.00  0.00    +0.103 C 
ATOM     25  C   UNL     1       3.852  -6.375   0.304  0.00  0.00    +0.120 C 
ATOM     26  N   UNL     1       3.232  -6.849  -0.942  0.00  0.00    -0.327 N 
ATOM     27  C   UNL     1       2.179  -6.024  -1.553  0.00  0.00    +0.120 C 
ATOM     28  C   UNL     1       1.133  -5.699  -0.482  0.00  0.00    +0.103 C 
BRANCH  26  29
ATOM     29  C   UNL     1       3.633  -8.051  -1.531  0.00  0.00    +0.031 A 
ATOM     30  C   UNL     1       2.961  -8.539  -2.644  0.00  0.00    +0.023 A 
ATOM     31  C   UNL     1       3.360  -9.727  -3.224  0.00  0.00    +0.003 A 
ATOM     32  C   UNL     1       4.428 -10.432  -2.698  0.00  0.00    +0.020 A 
ATOM     33  C   UNL     1       5.100  -9.948  -1.589  0.00  0.00    +0.043 A 
ATOM     34  C   UNL     1       4.709  -8.757  -1.007  0.00  0.00    +0.043 A 
ATOM     35 CL   UNL     1       6.439 -10.836  -0.931  0.00  0.00    -0.083 Cl
ENDBRANCH  26  29
ENDBRANCH  22  23
ENDBRANCH   2  22
TORSDOF 7
