REMARK  Name = ZINC64492047
REMARK  10 active torsions:
REMARK  status: ('A' for Active; 'I' for Inactive)
REMARK    1  A    between atoms: C_1  and  C_2
REMARK    2  A    between atoms: C_4  and  C_32
REMARK    3  A    between atoms: C_5  and  C_31
REMARK    4  A    between atoms: C_7  and  C_8
REMARK    5  A    between atoms: C_14  and  C_17
REMARK    6  A    between atoms: N_22  and  C_25
REMARK    7  A    between atoms: C_32  and  O_34
REMARK    8  A    between atoms: O_34  and  C_35
REMARK    9  A    between atoms: C_35  and  C_36
REMARK   10  A    between atoms: C_35  and  C_37
REMARK                            x       y       z     vdW  Elec       q    Type
REMARK                         _______ _______ _______ _____ _____    ______ ____
ROOT
ATOM      1  C   UNL     1       2.076  -0.437   1.615  0.00  0.00    +0.261 C 
ATOM      2  O   UNL     1       2.877   0.091   0.869  0.00  0.00    -0.269 OA
ATOM      3  N   UNL     1       2.459  -0.834   2.844  0.00  0.00    -0.296 N 
ATOM      4  C   UNL     1       1.550  -1.611   3.698  0.00  0.00    +0.108 C 
ATOM      5  C   UNL     1       2.266  -2.887   4.149  0.00  0.00    +0.020 C 
ATOM      6  C   UNL     1       3.591  -2.514   4.818  0.00  0.00    +0.016 C 
ATOM      7  C   UNL     1       4.486  -1.788   3.812  0.00  0.00    +0.092 C 
ATOM      8  C   UNL     1       3.797  -0.504   3.354  0.00  0.00    +0.120 C 
ENDROOT
BRANCH   7   9
ATOM      9  C   UNL     1       5.803  -1.450   4.462  0.00  0.00    +0.220 C 
ATOM     10  O   UNL     1       5.881  -1.372   5.670  0.00  0.00    -0.275 OA
ATOM     11  N   UNL     1       6.895  -1.235   3.701  0.00  0.00    -0.305 N 
ATOM     12  C   UNL     1       6.843  -1.400   2.240  0.00  0.00    +0.089 C 
ATOM     13  C   UNL     1       7.430  -0.143   1.589  0.00  0.00    -0.059 C 
ATOM     14  N   UNL     1       8.775   0.102   2.124  0.00  0.00    +0.384 N 
ATOM     15  C   UNL     1       8.696   0.401   3.559  0.00  0.00    -0.059 C 
ATOM     16  C   UNL     1       8.170  -0.823   4.308  0.00  0.00    +0.089 C 
ATOM     17  H   UNL     1       9.346  -0.719   1.984  0.00  0.00    -0.081 HD
BRANCH  14  18
ATOM     18  C   UNL     1       9.380   1.241   1.420  0.00  0.00    -0.068 C 
ATOM     19  C   UNL     1       9.474   0.926  -0.074  0.00  0.00    -0.015 C 
ATOM     20  C   UNL     1      10.104   2.112  -0.806  0.00  0.00    -0.002 C 
ATOM     21  C   UNL     1      11.506   2.369  -0.250  0.00  0.00    -0.000 C 
ATOM     22  C   UNL     1      11.412   2.684   1.244  0.00  0.00    -0.002 C 
ATOM     23  C   UNL     1      10.782   1.497   1.977  0.00  0.00    -0.015 C 
ENDBRANCH  14  18
ENDBRANCH   7   9
BRANCH   1  29
ATOM     24  C   UNL     1       0.251   1.088  -0.588  0.00  0.00    +0.019 C 
ATOM     25  C   UNL     1       0.119  -0.390  -0.213  0.00  0.00    +0.078 C 
ATOM     26  C   UNL     1      -1.341  -0.780  -0.065  0.00  0.00    +0.066 C 
ATOM     27  C   UNL     1      -1.468  -1.169   1.225  0.00  0.00    +0.049 C 
ATOM     28  N   UNL     1      -0.316  -1.081   1.894  0.00  0.00    -0.250 NA
ATOM     29  C   UNL     1       0.680  -0.644   1.173  0.00  0.00    +0.111 C 
ATOM     30  C   UNL     1      -2.760  -1.648   1.836  0.00  0.00    +0.066 C 
BRANCH  26  31
ATOM     31  C   UNL     1      -2.384  -0.742  -1.094  0.00  0.00    +0.338 C 
ATOM     32  O   UNL     1      -3.517  -1.088  -0.824  0.00  0.00    -0.245 OA
BRANCH  31  33
ATOM     33  O   UNL     1      -2.086  -0.324  -2.341  0.00  0.00    -0.459 OA
BRANCH  33  34
ATOM     34  C   UNL     1      -3.151  -0.313  -3.294  0.00  0.00    +0.171 C 
ATOM     35  C   UNL     1      -2.909   0.798  -4.317  0.00  0.00    +0.052 C 
ATOM     36  C   UNL     1      -3.208  -1.663  -4.011  0.00  0.00    +0.052 C 
ENDBRANCH  33  34
ENDBRANCH  31  33
ENDBRANCH  26  31
ENDBRANCH   1  29
TORSDOF 6
