REMARK  Name = ZINC15874510
REMARK  9 active torsions:
REMARK  status: ('A' for Active; 'I' for Inactive)
REMARK    1  A    between atoms: C_1  and  C_2
REMARK    2  A    between atoms: C_2  and  C_4
REMARK    3  A    between atoms: C_2  and  O_17
REMARK    4  A    between atoms: N_6  and  N_7
REMARK    5  A    between atoms: N_7  and  C_8
REMARK    6  A    between atoms: C_8  and  N_10
REMARK    7  A    between atoms: N_10  and  C_11
REMARK    8  A    between atoms: O_17  and  C_18
REMARK    9  A    between atoms: C_21  and  C_24
REMARK                            x       y       z     vdW  Elec       q    Type
REMARK                         _______ _______ _______ _____ _____    ______ ____
ROOT
ATOM      1  C   UNL     1       0.626  -0.281  -1.345  0.00  0.00    +0.270 C 
ATOM      2  O   UNL     1      -0.045  -0.752  -2.239  0.00  0.00    -0.270 OA
ATOM      3  N   UNL     1       1.927   0.002  -1.556  0.00  0.00    -0.232 N 
ATOM      4  H   UNL     1       2.463   0.379  -0.841  0.00  0.00    +0.173 HD
ENDROOT
BRANCH   1   6
ATOM      5  C   UNL     1       0.004   1.494   0.270  0.00  0.00    +0.062 C 
ATOM      6  C   UNL     1       0.005  -0.012   0.001  0.00  0.00    +0.257 C 
BRANCH   6   7
ATOM      7  O   UNL     1      -1.339  -0.499   0.012  0.00  0.00    -0.480 OA
BRANCH   7   8
ATOM      8  C   UNL     1      -1.869  -0.817   1.221  0.00  0.00    +0.122 A 
ATOM      9  C   UNL     1      -3.126  -1.406   1.292  0.00  0.00    +0.047 A 
ATOM     10  C   UNL     1      -3.667  -1.731   2.516  0.00  0.00    +0.022 A 
ATOM     11  C   UNL     1      -2.951  -1.469   3.687  0.00  0.00    +0.052 A 
ATOM     12  C   UNL     1      -1.687  -0.877   3.610  0.00  0.00    +0.022 A 
ATOM     13  C   UNL     1      -1.151  -0.559   2.382  0.00  0.00    +0.047 A 
BRANCH  11  14
ATOM     14  C   UNL     1      -3.510  -1.805   4.962  0.00  0.00    +0.099 C 
ATOM     15  N   UNL     1      -3.954  -2.072   5.973  0.00  0.00    -0.191 NA
ENDBRANCH  11  14
ENDBRANCH   7   8
ENDBRANCH   6   7
ENDBRANCH   1   6
BRANCH   3  16
ATOM     16  N   UNL     1       2.504  -0.248  -2.808  0.00  0.00    -0.246 N 
ATOM     17  H   UNL     1       1.967  -0.625  -3.523  0.00  0.00    +0.172 HD
BRANCH  16  18
ATOM     18  C   UNL     1       3.804   0.035  -3.019  0.00  0.00    +0.147 C 
ATOM     19  S   UNL     1       4.510  -0.270  -4.549  0.00  0.00    -0.017 S 
BRANCH  18  20
ATOM     20  N   UNL     1       4.550   0.559  -2.026  0.00  0.00    -0.323 N 
ATOM     21  H   UNL     1       4.150   0.732  -1.159  0.00  0.00    +0.148 HD
BRANCH  20  22
ATOM     22  C   UNL     1       5.964   0.867  -2.255  0.00  0.00    +0.072 C 
ATOM     23  C   UNL     1       6.803  -0.391  -2.024  0.00  0.00    +0.022 C 
ATOM     24  C   UNL     1       8.280  -0.070  -2.263  0.00  0.00    +0.002 C 
ATOM     25  C   UNL     1       8.727   1.027  -1.294  0.00  0.00    +0.000 C 
ATOM     26  C   UNL     1       7.887   2.285  -1.526  0.00  0.00    +0.002 C 
ATOM     27  C   UNL     1       6.410   1.964  -1.286  0.00  0.00    +0.022 C 
ENDBRANCH  20  22
ENDBRANCH  18  20
ENDBRANCH  16  18
ENDBRANCH   3  16
TORSDOF 8
