REMARK  Name = ZINC60377196
REMARK  12 active torsions:
REMARK  status: ('A' for Active; 'I' for Inactive)
REMARK    1  A    between atoms: C_1  and  C_2
REMARK    2  A    between atoms: C_2  and  C_4
REMARK    3  A    between atoms: C_2  and  N_14
REMARK    4  A    between atoms: C_8  and  S_10
REMARK    5  A    between atoms: S_10  and  N_13
REMARK    6  A    between atoms: N_14  and  C_15
REMARK    7  A    between atoms: N_14  and  C_16
REMARK    8  A    between atoms: C_16  and  C_17
REMARK    9  A    between atoms: N_19  and  C_20
REMARK   10  A    between atoms: C_21  and  C_29
REMARK   11  A    between atoms: C_29  and  O_31
REMARK   12  A    between atoms: O_31  and  C_32
REMARK                            x       y       z     vdW  Elec       q    Type
REMARK                         _______ _______ _______ _____ _____    ______ ____
ROOT
ATOM      1  C   UNL     1      -1.356  -1.981   0.004  0.00  0.00    +0.019 C 
ENDROOT
BRANCH   1   2
ATOM      2  C   UNL     1      -2.763  -2.504   0.139  0.00  0.00    +0.201 C 
ATOM      3  O   UNL     1      -3.692  -1.728   0.232  0.00  0.00    -0.278 OA
ATOM      4  N   UNL     1      -2.990  -3.832   0.155  0.00  0.00    -0.281 N 
ATOM      5  H   UNL     1      -2.248  -4.452   0.081  0.00  0.00    +0.155 HD
BRANCH   4   6
ATOM      6  C   UNL     1      -4.285  -4.312   0.279  0.00  0.00    +0.086 A 
ATOM      7  C   UNL     1      -4.704  -5.634   0.320  0.00  0.00    +0.091 A 
ATOM      8  C   UNL     1      -6.130  -5.874   0.456  0.00  0.00    -0.021 A 
ATOM      9  C   UNL     1      -6.875  -4.750   0.526  0.00  0.00    -0.004 A 
ATOM     10  S   UNL     1      -5.705  -3.428   0.421  0.00  0.00    -0.077 S 
ATOM     11  C   UNL     1      -8.364  -4.665   0.667  0.00  0.00    +0.043 C 
ATOM     12  C   UNL     1      -8.959  -6.043   0.341  0.00  0.00    +0.005 C 
ATOM     13  C   UNL     1      -8.177  -7.114   1.107  0.00  0.00    +0.005 C 
ATOM     14  C   UNL     1      -6.771  -7.253   0.520  0.00  0.00    +0.037 C 
BRANCH   7  15
ATOM     15  C   UNL     1      -3.749  -6.740   0.229  0.00  0.00    +0.342 C 
ATOM     16  O   UNL     1      -3.252  -7.200   1.240  0.00  0.00    -0.245 OA
BRANCH  15  17
ATOM     17  O   UNL     1      -3.420  -7.250  -0.976  0.00  0.00    -0.464 OA
ATOM     18  C   UNL     1      -2.483  -8.329  -0.990  0.00  0.00    +0.280 C 
ENDBRANCH  15  17
ENDBRANCH   7  15
ENDBRANCH   4   6
ENDBRANCH   1   2
BRANCH   1  19
ATOM     19  N   UNL     1      -1.376  -0.512   0.012  0.00  0.00    +0.388 N 
ATOM     20  C   UNL     1      -2.087  -0.026  -1.178  0.00  0.00    -0.095 C 
ATOM     21  H   UNL     1      -1.848  -0.187   0.843  0.00  0.00    -0.081 HD
BRANCH  19  23
ATOM     22  C   UNL     1      -0.019   1.526   0.010  0.00  0.00    -0.008 C 
ATOM     23  C   UNL     1       0.002  -0.004   0.002  0.00  0.00    -0.040 C 
BRANCH  23  24
ATOM     24  C   UNL     1       0.731  -0.503   1.223  0.00  0.00    -0.059 A 
ATOM     25  C   UNL     1       0.081  -0.558   2.442  0.00  0.00    +0.002 A 
ATOM     26  C   UNL     1       0.749  -1.016   3.562  0.00  0.00    +0.002 A 
ATOM     27  C   UNL     1       2.068  -1.420   3.463  0.00  0.00    +0.028 A 
ATOM     28  C   UNL     1       2.718  -1.365   2.244  0.00  0.00    +0.105 A 
ATOM     29  C   UNL     1       2.048  -0.911   1.123  0.00  0.00    +0.030 A 
BRANCH  28  30
ATOM     30  S   UNL     1       4.399  -1.879   2.118  0.00  0.00    +0.056 S 
ATOM     31  O   UNL     1       4.941  -1.217   0.984  0.00  0.00    -0.153 OA
ATOM     32  O   UNL     1       4.961  -1.749   3.417  0.00  0.00    -0.153 OA
BRANCH  30  33
ATOM     33  N   UNL     1       4.391  -3.496   1.764  0.00  0.00    -0.204 NA
ATOM     34  H   UNL     1       5.113  -3.882   1.244  0.00  0.00    +0.144 HD
ATOM     35  H   UNL     1       3.665  -4.058   2.077  0.00  0.00    +0.144 HD
ENDBRANCH  30  33
ENDBRANCH  28  30
ENDBRANCH  23  24
ENDBRANCH  19  23
ENDBRANCH   1  19
TORSDOF 9
