REMARK  Name = ZINC14531054
REMARK  15 active torsions:
REMARK  status: ('A' for Active; 'I' for Inactive)
REMARK    1  A    between atoms: C_1  and  C_2
REMARK    2  A    between atoms: C_2  and  C_3
REMARK    3  A    between atoms: C_2  and  C_4
REMARK    4  A    between atoms: C_2  and  C_5
REMARK    5  A    between atoms: C_5  and  C_6
REMARK    6  A    between atoms: C_8  and  C_26
REMARK    7  A    between atoms: N_13  and  C_15
REMARK    8  A    between atoms: C_15  and  C_16
REMARK    9  A    between atoms: C_20  and  O_22
REMARK   10  A    between atoms: O_22  and  C_23
REMARK   11  A    between atoms: C_23  and  C_24
REMARK   12  A    between atoms: C_24  and  O_25
REMARK   13  A    between atoms: C_26  and  C_27
REMARK   14  A    between atoms: C_30  and  O_33
REMARK   15  A    between atoms: O_33  and  C_34
REMARK                            x       y       z     vdW  Elec       q    Type
REMARK                         _______ _______ _______ _____ _____    ______ ____
ROOT
ATOM      1  C   UNL     1       2.132   0.024  -1.268  0.00  0.00    +0.088 A 
ATOM      2  N   UNL     1       3.157  -0.534  -0.676  0.00  0.00    -0.346 N 
ATOM      3  C   UNL     1       4.258   0.206  -0.900  0.00  0.00    +0.042 A 
ATOM      4  C   UNL     1       3.901   1.251  -1.653  0.00  0.00    +0.054 A 
ATOM      5  N   UNL     1       2.553   1.135  -1.890  0.00  0.00    -0.330 N 
ATOM      6  C   UNL     1       1.789   2.100  -2.685  0.00  0.00    +0.138 C 
ATOM      7  C   UNL     1       2.626   3.380  -2.817  0.00  0.00    +0.106 C 
ATOM      8  N   UNL     1       3.985   3.044  -3.263  0.00  0.00    -0.291 NA
ATOM      9  C   UNL     1       4.746   2.378  -2.187  0.00  0.00    +0.140 C 
ATOM     10  H   UNL     1       3.128  -1.353  -0.156  0.00  0.00    +0.167 HD
ENDROOT
BRANCH   1  11
ATOM     11  C   UNL     1       0.718  -0.497  -1.257  0.00  0.00    +0.078 C 
BRANCH  11  13
ATOM     12  C   UNL     1      -0.019   1.526   0.010  0.00  0.00    +0.011 C 
ATOM     13  C   UNL     1       0.002  -0.004   0.002  0.00  0.00    -0.031 C 
ATOM     14  C   UNL     1       0.742  -0.511   1.242  0.00  0.00    +0.011 C 
ATOM     15  C   UNL     1      -1.433  -0.534   0.013  0.00  0.00    +0.011 C 
ENDBRANCH  11  13
ENDBRANCH   1  11
BRANCH   8  16
ATOM     16  C   UNL     1       4.691   4.239  -3.744  0.00  0.00    +0.120 C 
BRANCH  16  17
ATOM     17  C   UNL     1       4.020   4.750  -4.993  0.00  0.00    -0.030 A 
ATOM     18  C   UNL     1       4.423   4.289  -6.232  0.00  0.00    +0.005 A 
ATOM     19  C   UNL     1       3.809   4.756  -7.380  0.00  0.00    +0.004 A 
ATOM     20  C   UNL     1       2.791   5.686  -7.290  0.00  0.00    +0.045 A 
ATOM     21  C   UNL     1       2.385   6.150  -6.048  0.00  0.00    +0.121 A 
ATOM     22  C   UNL     1       2.998   5.675  -4.897  0.00  0.00    +0.050 A 
BRANCH  21  23
ATOM     23  O   UNL     1       1.383   7.065  -5.957  0.00  0.00    -0.490 OA
BRANCH  23  24
ATOM     24  C   UNL     1       0.794   7.505  -7.182  0.00  0.00    +0.256 C 
BRANCH  24  25
ATOM     25  C   UNL     1      -0.306   8.525  -6.881  0.00  0.00    +0.196 C 
BRANCH  25  26
ATOM     26  O   UNL     1       0.275   9.694  -6.300  0.00  0.00    -0.392 OA
ATOM     27  H   UNL     1      -0.366  10.385  -6.082  0.00  0.00    +0.210 HD
ENDBRANCH  25  26
ENDBRANCH  24  25
ENDBRANCH  23  24
ENDBRANCH  21  23
ENDBRANCH  16  17
ENDBRANCH   8  16
BRANCH   3  28
ATOM     28  C   UNL     1       5.646  -0.091  -0.393  0.00  0.00    +0.090 C 
BRANCH  28  29
ATOM     29  C   UNL     1       5.884   0.664   0.890  0.00  0.00    -0.041 A 
ATOM     30  C   UNL     1       6.414   1.940   0.852  0.00  0.00    +0.007 A 
ATOM     31  C   UNL     1       6.634   2.633   2.026  0.00  0.00    +0.046 A 
ATOM     32  C   UNL     1       6.321   2.048   3.244  0.00  0.00    +0.120 A 
ATOM     33  C   UNL     1       5.788   0.768   3.280  0.00  0.00    +0.046 A 
ATOM     34  C   UNL     1       5.566   0.081   2.103  0.00  0.00    +0.007 A 
BRANCH  32  35
ATOM     35  O   UNL     1       6.536   2.728   4.401  0.00  0.00    -0.495 OA
ATOM     36  C   UNL     1       6.191   2.064   5.618  0.00  0.00    +0.277 C 
ENDBRANCH  32  35
ENDBRANCH  28  29
ENDBRANCH   3  28
TORSDOF 11
