REMARK  Name = ZINC21866733
REMARK  7 active torsions:
REMARK  status: ('A' for Active; 'I' for Inactive)
REMARK    1  A    between atoms: C_1  and  C_2
REMARK    2  A    between atoms: N_4  and  C_5
REMARK    3  A    between atoms: N_16  and  C_30
REMARK    4  A    between atoms: C_17  and  C_19
REMARK    5  A    between atoms: C_17  and  C_20
REMARK    6  A    between atoms: N_22  and  C_23
REMARK    7  A    between atoms: C_30  and  C_31
REMARK                            x       y       z     vdW  Elec       q    Type
REMARK                         _______ _______ _______ _____ _____    ______ ____
ROOT
ATOM      1  C   UNL     1      -1.829   1.968   0.468  0.00  0.00    +0.072 A 
ATOM      2  C   UNL     1      -0.456   1.623   0.858  0.00  0.00    +0.022 A 
ATOM      3  C   UNL     1       0.606   2.363   1.383  0.00  0.00    +0.012 A 
ATOM      4  C   UNL     1       1.792   1.747   1.662  0.00  0.00    +0.001 A 
ATOM      5  C   UNL     1       1.952   0.388   1.427  0.00  0.00    +0.002 A 
ATOM      6  C   UNL     1       0.921  -0.362   0.908  0.00  0.00    +0.026 A 
ATOM      7  C   UNL     1      -0.300   0.243   0.613  0.00  0.00    +0.052 A 
ATOM      8  N   UNL     1      -1.475  -0.228   0.097  0.00  0.00    -0.332 N 
ATOM      9  C   UNL     1      -2.405   0.815   0.019  0.00  0.00    +0.127 A 
ATOM     10  C   UNL     1      -3.765   0.572  -0.477  0.00  0.00    +0.266 C 
ATOM     11  O   UNL     1      -4.533   1.487  -0.714  0.00  0.00    -0.268 OA
ATOM     12  N   UNL     1      -4.120  -0.721  -0.657  0.00  0.00    -0.273 N 
ATOM     13  C   UNL     1      -3.307  -1.822  -0.153  0.00  0.00    +0.129 C 
ATOM     14  C   UNL     1      -1.810  -1.586  -0.349  0.00  0.00    +0.157 C 
ATOM     15  C   UNL     1      -3.704  -3.105  -0.888  0.00  0.00    +0.043 C 
ENDROOT
BRANCH   1  19
ATOM     16  C   UNL     1      -2.296   5.692   0.645  0.00  0.00    +0.109 C 
ATOM     17  C   UNL     1      -1.663   4.335   0.479  0.00  0.00    +0.214 C 
ATOM     18  O   UNL     1      -0.468   4.242   0.292  0.00  0.00    -0.276 OA
ATOM     19  N   UNL     1      -2.424   3.224   0.539  0.00  0.00    -0.283 N 
ATOM     20  H   UNL     1      -3.515   3.310   0.643  0.00  0.00    +0.155 HD
ENDBRANCH   1  19
BRANCH  13  21
ATOM     21  C   UNL     1      -3.584  -1.999   1.317  0.00  0.00    +0.238 C 
ATOM     22  O   UNL     1      -2.692  -2.335   2.067  0.00  0.00    -0.273 OA
ATOM     23  N   UNL     1      -4.824  -1.782   1.800  0.00  0.00    -0.311 N 
ATOM     24  H   UNL     1      -5.633  -1.477   1.121  0.00  0.00    +0.149 HD
BRANCH  23  25
ATOM     25  C   UNL     1      -5.093  -1.954   3.230  0.00  0.00    +0.073 C 
ATOM     26  C   UNL     1      -5.325  -3.451   3.519  0.00  0.00    +0.022 C 
ATOM     27  C   UNL     1      -5.094  -3.697   4.985  0.00  0.00    +0.002 C 
ATOM     28  C   UNL     1      -6.395  -3.630   5.807  0.00  0.00    +0.000 C 
ATOM     29  C   UNL     1      -7.315  -2.472   5.376  0.00  0.00    +0.000 C 
ATOM     30  C   UNL     1      -6.554  -1.203   5.104  0.00  0.00    +0.002 C 
ATOM     31  C   UNL     1      -6.239  -1.134   3.595  0.00  0.00    +0.022 C 
ENDBRANCH  23  25
ENDBRANCH  13  21
BRANCH  12  32
ATOM     32  C   UNL     1      -5.357  -1.024  -1.380  0.00  0.00    +0.183 C 
BRANCH  32  33
ATOM     33  C   UNL     1      -5.087  -1.016  -2.863  0.00  0.00    +0.122 A 
ATOM     34  C   UNL     1      -4.828  -2.096  -3.621  0.00  0.00    +0.046 A 
ATOM     35  C   UNL     1      -4.638  -1.632  -4.943  0.00  0.00    +0.041 A 
ATOM     36  C   UNL     1      -4.793  -0.296  -4.914  0.00  0.00    +0.195 A 
ATOM     37  O   UNL     1      -5.071   0.071  -3.652  0.00  0.00    -0.466 OA
ENDBRANCH  32  33
ENDBRANCH  12  32
TORSDOF 5
