REMARK  Name = ZINC63111973
REMARK  5 active torsions:
REMARK  status: ('A' for Active; 'I' for Inactive)
REMARK    1  A    between atoms: C_7  and  C_10
REMARK    2  A    between atoms: C_10  and  C_11
REMARK    3  A    between atoms: C_11  and  N_12
REMARK    4  A    between atoms: C_13  and  C_15
REMARK    5  A    between atoms: C_16  and  C_17
REMARK                            x       y       z     vdW  Elec       q    Type
REMARK                         _______ _______ _______ _____ _____    ______ ____
ROOT
ATOM      1  N   UNL     1      -0.458  -4.798  -1.460  0.00  0.00    -0.312 N 
ATOM      2  C   UNL     1      -0.811  -5.380  -2.623  0.00  0.00    +0.237 C 
ATOM      3  O   UNL     1      -0.369  -4.956  -3.675  0.00  0.00    -0.271 OA
ATOM      4  H   UNL     1      -0.810  -5.136  -0.622  0.00  0.00    +0.149 HD
ENDROOT
BRANCH   2   5
ATOM      5  C   UNL     1      -1.724  -6.523  -2.622  0.00  0.00    +0.068 C 
ATOM      6  C   UNL     1      -2.077  -7.106  -3.787  0.00  0.00    +0.013 C 
BRANCH   6   7
ATOM      7  C   UNL     1      -2.995  -8.254  -3.785  0.00  0.00    -0.020 A 
ATOM      8  C   UNL     1      -3.358  -8.865  -4.991  0.00  0.00    +0.057 A 
ATOM      9  C   UNL     1      -4.220  -9.943  -4.985  0.00  0.00    +0.168 A 
ATOM     10  C   UNL     1      -4.728 -10.424  -3.777  0.00  0.00    +0.184 A 
ATOM     11  C   UNL     1      -4.368  -9.818  -2.580  0.00  0.00    +0.087 A 
ATOM     12  C   UNL     1      -3.504  -8.744  -2.577  0.00  0.00    +0.031 A 
ATOM     13 CL   UNL     1      -5.005 -10.420  -1.081  0.00  0.00    -0.080 Cl
ATOM     14  O   UNL     1      -5.547 -11.483  -4.041  0.00  0.00    -0.451 OA
ATOM     15  C   UNL     1      -5.858 -11.389  -5.443  0.00  0.00    +0.466 C 
ATOM     16  O   UNL     1      -4.722 -10.703  -6.002  0.00  0.00    -0.453 OA
ENDBRANCH   6   7
ENDBRANCH   2   5
BRANCH   1  17
ATOM     17  C   UNL     1       0.457  -3.653  -1.462  0.00  0.00    +0.109 C 
BRANCH  17  18
ATOM     18  C   UNL     1       0.691  -3.186  -0.024  0.00  0.00    +0.052 C 
BRANCH  18  25
ATOM     19  C   UNL     1      -0.016   1.348   0.009  0.00  0.00    +0.001 A 
ATOM     20  C   UNL     1       1.166   2.101   0.002  0.00  0.00    +0.002 A 
ATOM     21  C   UNL     1       2.391   1.535  -0.013  0.00  0.00    +0.026 A 
ATOM     22  C   UNL     1       2.529   0.120  -0.022  0.00  0.00    +0.043 A 
ATOM     23  N   UNL     1       3.587  -0.654  -0.037  0.00  0.00    -0.380 N 
ATOM     24  C   UNL     1       3.143  -2.053  -0.041  0.00  0.00    +0.144 C 
ATOM     25  C   UNL     1       1.631  -2.008  -0.025  0.00  0.00    -0.040 C 
ATOM     26  C   UNL     1       1.295  -0.698  -0.014  0.00  0.00    -0.001 A 
ATOM     27  C   UNL     1       0.002  -0.004   0.002  0.00  0.00    +0.010 A 
ATOM     28  H   UNL     1       4.509  -0.353  -0.045  0.00  0.00    +0.160 HD
ENDBRANCH  18  25
ENDBRANCH  17  18
ENDBRANCH   1  17
TORSDOF 5
