REMARK  Name = ZINC19971912
REMARK  6 active torsions:
REMARK  status: ('A' for Active; 'I' for Inactive)
REMARK    1  A    between atoms: C_1  and  O_2
REMARK    2  A    between atoms: O_2  and  C_3
REMARK    3  A    between atoms: C_6  and  N_19
REMARK    4  A    between atoms: C_8  and  C_9
REMARK    5  A    between atoms: C_9  and  C_11
REMARK    6  A    between atoms: C_9  and  N_18
REMARK                            x       y       z     vdW  Elec       q    Type
REMARK                         _______ _______ _______ _____ _____    ______ ____
ROOT
ATOM      1  C   UNL     1       1.149   3.593   0.010  0.00  0.00    -0.009 C 
ENDROOT
BRANCH   1   2
ATOM      2  C   UNL     1       1.375   4.106  -1.389  0.00  0.00    -0.044 A 
ATOM      3  C   UNL     1       1.152   3.278  -2.473  0.00  0.00    +0.003 A 
ATOM      4  C   UNL     1       1.354   3.750  -3.757  0.00  0.00    +0.000 A 
ATOM      5  C   UNL     1       1.791   5.047  -3.956  0.00  0.00    +0.001 A 
ATOM      6  C   UNL     1       2.020   5.873  -2.872  0.00  0.00    +0.015 A 
ATOM      7  C   UNL     1       1.812   5.403  -1.588  0.00  0.00    +0.020 A 
ATOM      8 BR   UNL     1       2.124   6.534  -0.105  0.00  0.00    -0.050 Br
ENDBRANCH   1   2
BRANCH   1  14
ATOM      9  C   UNL     1       2.278   1.355   0.065  0.00  0.00    +0.122 A 
ATOM     10  C   UNL     1       2.231  -0.032   0.047  0.00  0.00    +0.048 A 
ATOM     11  C   UNL     1       1.015  -0.679  -0.044  0.00  0.00    +0.036 A 
ATOM     12  C   UNL     1      -0.156   0.052  -0.117  0.00  0.00    +0.127 A 
ATOM     13  C   UNL     1      -0.113   1.434  -0.100  0.00  0.00    +0.038 A 
ATOM     14  C   UNL     1       1.102   2.087  -0.009  0.00  0.00    -0.014 A 
BRANCH  12  15
ATOM     15  N   UNL     1      -1.458  -0.644  -0.215  0.00  0.00    +0.056 N 
ATOM     16  O   UNL     1      -2.490  -0.001  -0.280  0.00  0.00    -0.126 OA
ATOM     17  O   UNL     1      -1.498  -1.862  -0.231  0.00  0.00    -0.126 OA
ENDBRANCH  12  15
BRANCH   9  19
ATOM     18  C   UNL     1       4.643   1.177   0.228  0.00  0.00    +0.277 C 
ATOM     19  O   UNL     1       3.473   1.995   0.156  0.00  0.00    -0.495 OA
ENDBRANCH   9  19
ENDBRANCH   1  14
BRANCH   1  20
ATOM     20  N   UNL     1      -0.125   4.117   0.523  0.00  0.00    +0.385 N 
ATOM     21  H   UNL     1      -0.090   5.216   0.537  0.00  0.00    -0.089 HD
ATOM     22  H   UNL     1      -0.290   3.742   1.544  0.00  0.00    -0.089 HD
ATOM     23  H   UNL     1      -0.947   3.783  -0.127  0.00  0.00    -0.089 HD
ENDBRANCH   1  20
TORSDOF 5
