REMARK  Name = ZINC13125749
REMARK  5 active torsions:
REMARK  status: ('A' for Active; 'I' for Inactive)
REMARK    1  A    between atoms: N_8  and  N_9
REMARK    2  A    between atoms: C_10  and  C_12
REMARK    3  A    between atoms: C_12  and  S_13
REMARK    4  A    between atoms: S_13  and  C_14
REMARK    5  A    between atoms: C_14  and  C_15
REMARK                            x       y       z     vdW  Elec       q    Type
REMARK                         _______ _______ _______ _____ _____    ______ ____
ROOT
ATOM      1  N   UNL     1      -0.610  -2.946   0.098  0.00  0.00    -0.206 N 
ATOM      2  C   UNL     1      -1.435  -4.006   0.201  0.00  0.00    +0.242 C 
ATOM      3  O   UNL     1      -0.981  -5.131   0.191  0.00  0.00    -0.273 OA
ATOM      4  H   UNL     1      -0.972  -2.046   0.106  0.00  0.00    +0.177 HD
ENDROOT
BRANCH   1  12
ATOM      5  C   UNL     1       0.047   1.318   0.764  0.00  0.00    +0.001 A 
ATOM      6  C   UNL     1       1.229   2.035   0.677  0.00  0.00    +0.002 A 
ATOM      7  C   UNL     1       2.418   1.397   0.386  0.00  0.00    +0.024 A 
ATOM      8  C   UNL     1       2.440   0.022   0.176  0.00  0.00    +0.043 A 
ATOM      9  C   UNL     1       1.242  -0.698   0.266  0.00  0.00    +0.028 A 
ATOM     10  C   UNL     1       0.050  -0.047   0.559  0.00  0.00    +0.012 A 
ATOM     11  C   UNL     1       1.585  -2.115  -0.002  0.00  0.00    +0.152 C 
ATOM     12  N   UNL     1       0.772  -3.143  -0.023  0.00  0.00    -0.175 NA
ATOM     13  C   UNL     1       3.043  -2.115  -0.242  0.00  0.00    +0.269 C 
ATOM     14  O   UNL     1       3.726  -3.088  -0.500  0.00  0.00    -0.268 OA
ATOM     15  N   UNL     1       3.480  -0.850  -0.125  0.00  0.00    -0.280 N 
ATOM     16  H   UNL     1       4.405  -0.579  -0.236  0.00  0.00    +0.155 HD
ENDBRANCH   1  12
BRANCH   2  17
ATOM     17  C   UNL     1      -2.921  -3.794   0.330  0.00  0.00    +0.166 C 
BRANCH  17  18
ATOM     18  S   UNL     1      -3.753  -5.402   0.450  0.00  0.00    -0.147 S 
BRANCH  18  19
ATOM     19  C   UNL     1      -5.510  -4.977   0.597  0.00  0.00    +0.104 C 
BRANCH  19  20
ATOM     20  C   UNL     1      -6.325  -6.240   0.706  0.00  0.00    -0.037 A 
ATOM     21  C   UNL     1      -6.802  -6.855  -0.437  0.00  0.00    +0.004 A 
ATOM     22  C   UNL     1      -7.550  -8.013  -0.338  0.00  0.00    +0.001 A 
ATOM     23  C   UNL     1      -7.821  -8.558   0.903  0.00  0.00    +0.015 A 
ATOM     24  C   UNL     1      -7.343  -7.943   2.046  0.00  0.00    +0.018 A 
ATOM     25  C   UNL     1      -6.591  -6.787   1.947  0.00  0.00    +0.019 A 
ATOM     26 BR   UNL     1      -7.714  -8.687   3.745  0.00  0.00    -0.050 Br
ENDBRANCH  19  20
ENDBRANCH  18  19
ENDBRANCH  17  18
ENDBRANCH   2  17
TORSDOF 5
