REMARK  Name = ZINC12339407
REMARK  2 active torsions:
REMARK  status: ('A' for Active; 'I' for Inactive)
REMARK    1  A    between atoms: C_17  and  N_87
REMARK    2  A    between atoms: C_20  and  N_87
REMARK                            x       y       z     vdW  Elec       q    Type
REMARK                         _______ _______ _______ _____ _____    ______ ____
ROOT
ATOM      1  N   UNL     1      -0.139   3.776  -1.736  0.00  0.00    +0.413 N 
ATOM      2  H   UNL     1      -1.008   4.207  -1.400  0.00  0.00    -0.078 HD
ATOM      3  H   UNL     1       0.665   4.303  -1.375  0.00  0.00    -0.078 HD
ENDROOT
BRANCH   1  18
ATOM      4  C   UNL     1       0.972  10.962  -4.088  0.00  0.00    +0.000 C 
ATOM      5  C   UNL     1       1.046  10.902  -2.561  0.00  0.00    +0.000 C 
ATOM      6  C   UNL     1       1.667   9.571  -2.132  0.00  0.00    +0.000 C 
ATOM      7  C   UNL     1       0.571   8.646  -1.598  0.00  0.00    +0.000 C 
ATOM      8  C   UNL     1       1.196   7.330  -1.129  0.00  0.00    +0.003 C 
ATOM      9  C   UNL     1       0.359   6.157  -1.642  0.00  0.00    +0.032 C 
ATOM     10  C   UNL     1       0.366   6.156  -3.172  0.00  0.00    +0.119 C 
ATOM     11  C   UNL     1      -1.031   6.504  -3.689  0.00  0.00    +0.018 C 
ATOM     12  C   UNL     1      -1.004   6.583  -5.217  0.00  0.00    +0.006 C 
ATOM     13  C   UNL     1      -0.996   8.051  -5.651  0.00  0.00    +0.000 C 
ATOM     14  C   UNL     1       0.181   8.771  -4.989  0.00  0.00    +0.000 C 
ATOM     15  C   UNL     1      -0.250  10.178  -4.571  0.00  0.00    +0.000 C 
ATOM     16  C   UNL     1      -2.022   5.425  -3.251  0.00  0.00    +0.006 C 
ATOM     17  C   UNL     1      -1.535   4.057  -3.733  0.00  0.00    +0.012 C 
ATOM     18  C   UNL     1      -0.119   3.808  -3.211  0.00  0.00    +0.067 C 
ATOM     19  O   UNL     1       0.742   4.862  -3.647  0.00  0.00    -0.391 OA
ENDBRANCH   1  18
BRANCH   1  20
ATOM     20  C   UNL     1      -0.066   2.384  -1.252  0.00  0.00    +0.067 C 
ATOM     21  C   UNL     1      -0.853   2.252   0.046  0.00  0.00    +0.012 C 
ATOM     22  C   UNL     1      -0.028   2.745   1.234  0.00  0.00    +0.006 C 
ATOM     23  C   UNL     1       1.280   1.949   1.272  0.00  0.00    +0.018 C 
ATOM     24  C   UNL     1       2.096   2.342   2.499  0.00  0.00    +0.006 C 
ATOM     25  C   UNL     1       3.556   1.926   2.312  0.00  0.00    +0.000 C 
ATOM     26  C   UNL     1       4.256   1.870   3.671  0.00  0.00    +0.000 C 
ATOM     27  C   UNL     1       5.428   2.853   3.686  0.00  0.00    +0.000 C 
ATOM     28  C   UNL     1       6.420   2.493   2.579  0.00  0.00    +0.000 C 
ATOM     29  C   UNL     1       6.678   3.715   1.698  0.00  0.00    +0.000 C 
ATOM     30  C   UNL     1       6.111   3.474   0.298  0.00  0.00    +0.000 C 
ATOM     31  C   UNL     1       4.943   4.430   0.045  0.00  0.00    +0.000 C 
ATOM     32  C   UNL     1       3.883   3.731  -0.807  0.00  0.00    +0.003 C 
ATOM     33  C   UNL     1       2.565   3.664  -0.032  0.00  0.00    +0.032 C 
ATOM     34  C   UNL     1       2.058   2.223  -0.013  0.00  0.00    +0.119 C 
ATOM     35  O   UNL     1       1.269   1.942  -1.154  0.00  0.00    -0.391 OA
ENDBRANCH   1  20
TORSDOF 2
