REMARK  Name = ZINC39335203
REMARK  8 active torsions:
REMARK  status: ('A' for Active; 'I' for Inactive)
REMARK    1  A    between atoms: C_4  and  C_7
REMARK    2  A    between atoms: C_10  and  C_13
REMARK    3  A    between atoms: C_13  and  C_15
REMARK    4  A    between atoms: C_15  and  S_16
REMARK    5  A    between atoms: S_16  and  C_17
REMARK    6  A    between atoms: C_18  and  C_31
REMARK    7  A    between atoms: C_25  and  C_29
REMARK    8  A    between atoms: C_26  and  N_28
REMARK                            x       y       z     vdW  Elec       q    Type
REMARK                         _______ _______ _______ _____ _____    ______ ____
ROOT
ATOM      1  C   UNL     1       9.005  -6.589  -0.132  0.00  0.00    +0.081 C 
ATOM      2  C   UNL     1      10.129  -7.352  -0.142  0.00  0.00    +0.068 C 
ATOM      3  C   UNL     1      10.061  -8.854  -0.144  0.00  0.00    +0.045 C 
ATOM      4  C   UNL     1      11.081  -9.405  -1.147  0.00  0.00    +0.018 C 
ATOM      5  C   UNL     1      11.016 -10.934  -1.150  0.00  0.00    +0.001 C 
ATOM      6  C   UNL     1      11.346 -11.461   0.248  0.00  0.00    +0.000 C 
ATOM      7  C   UNL     1      10.336 -10.907   1.254  0.00  0.00    +0.001 C 
ATOM      8  C   UNL     1      10.401  -9.379   1.255  0.00  0.00    +0.018 C 
ATOM      9  C   UNL     1       8.685  -9.323  -0.529  0.00  0.00    +0.076 C 
ATOM     10  C   UNL     1       7.615  -8.488  -0.505  0.00  0.00    +0.100 C 
ATOM     11  N   UNL     1       7.758  -7.172  -0.128  0.00  0.00    -0.296 N 
ATOM     12  H   UNL     1       6.981  -6.655   0.138  0.00  0.00    +0.154 HD
ENDROOT
BRANCH  10  13
ATOM     13  N   UNL     1       6.375  -8.964  -0.857  0.00  0.00    -0.346 N 
ATOM     14  H   UNL     1       6.268  -9.891  -1.120  0.00  0.00    +0.143 HD
ATOM     15  H   UNL     1       5.607  -8.372  -0.842  0.00  0.00    +0.143 HD
ENDBRANCH  10  13
BRANCH   9  16
ATOM     16  C   UNL     1       8.499 -10.685  -0.932  0.00  0.00    +0.099 C 
ATOM     17  N   UNL     1       8.351 -11.765  -1.251  0.00  0.00    -0.191 NA
ENDBRANCH   9  16
BRANCH   2  18
ATOM     18  C   UNL     1      11.409  -6.711  -0.151  0.00  0.00    +0.098 C 
ATOM     19  N   UNL     1      12.424  -6.202  -0.158  0.00  0.00    -0.191 NA
ENDBRANCH   2  18
BRANCH   1  20
ATOM     20  S   UNL     1       9.145  -4.832  -0.117  0.00  0.00    -0.101 S 
BRANCH  20  21
ATOM     21  C   UNL     1       7.426  -4.255  -0.098  0.00  0.00    +0.155 C 
BRANCH  21  22
ATOM     22  C   UNL     1       7.402  -2.748  -0.084  0.00  0.00    +0.173 C 
ATOM     23  O   UNL     1       8.442  -2.125  -0.086  0.00  0.00    -0.291 OA
BRANCH  22  27
ATOM     24  C   UNL     1       3.698  -0.688  -0.037  0.00  0.00    -0.018 A 
ATOM     25  C   UNL     1       4.895   0.030  -0.040  0.00  0.00    +0.009 A 
ATOM     26  C   UNL     1       6.094  -0.634  -0.054  0.00  0.00    +0.012 A 
ATOM     27  C   UNL     1       6.117  -2.034  -0.068  0.00  0.00    +0.018 A 
ATOM     28  C   UNL     1       4.915  -2.752  -0.065  0.00  0.00    +0.012 A 
ATOM     29  C   UNL     1       3.719  -2.083  -0.045  0.00  0.00    +0.009 A 
BRANCH  24  33
ATOM     30  C   UNL     1      -0.017   1.379   0.010  0.00  0.00    +0.000 A 
ATOM     31  C   UNL     1       1.169   2.092   0.002  0.00  0.00    +0.001 A 
ATOM     32  C   UNL     1       2.377   1.427  -0.013  0.00  0.00    +0.008 A 
ATOM     33  C   UNL     1       2.403   0.033  -0.021  0.00  0.00    -0.018 A 
ATOM     34  C   UNL     1       1.205  -0.680  -0.013  0.00  0.00    +0.008 A 
ATOM     35  C   UNL     1       0.002  -0.004   0.002  0.00  0.00    +0.001 A 
ENDBRANCH  24  33
ENDBRANCH  22  27
ENDBRANCH  21  22
ENDBRANCH  20  21
ENDBRANCH   1  20
TORSDOF 8
