REMARK  Name = ZINC27113027
REMARK  7 active torsions:
REMARK  status: ('A' for Active; 'I' for Inactive)
REMARK    1  A    between atoms: C_5  and  C_6
REMARK    2  A    between atoms: C_8  and  C_11
REMARK    3  A    between atoms: C_11  and  N_12
REMARK    4  A    between atoms: N_15  and  C_18
REMARK    5  A    between atoms: C_18  and  C_19
REMARK    6  A    between atoms: N_21  and  C_22
REMARK    7  A    between atoms: C_23  and  C_27
REMARK                            x       y       z     vdW  Elec       q    Type
REMARK                         _______ _______ _______ _____ _____    ______ ____
ROOT
ATOM      1  N   UNL     1      -2.764  -4.610  -1.363  0.00  0.00    +0.385 N 
ATOM      2  C   UNL     1      -1.424  -4.372  -1.917  0.00  0.00    -0.063 C 
ATOM      3  C   UNL     1      -1.373  -4.875  -3.361  0.00  0.00    +0.066 C 
ATOM      4  N   UNL     1      -1.687  -6.311  -3.389  0.00  0.00    -0.298 NA
ATOM      5  C   UNL     1      -3.015  -6.566  -2.814  0.00  0.00    +0.066 C 
ATOM      6  C   UNL     1      -3.052  -6.050  -1.374  0.00  0.00    -0.063 C 
ATOM      7  H   UNL     1      -3.449  -4.125  -1.922  0.00  0.00    -0.081 HD
ENDROOT
BRANCH   1   8
ATOM      8  C   UNL     1      -2.817  -4.111   0.018  0.00  0.00    -0.022 C 
BRANCH   8  11
ATOM      9  C   UNL     1      -1.257  -0.778   0.010  0.00  0.00    +0.109 A 
ATOM     10  N   UNL     1      -1.437  -2.092   0.011  0.00  0.00    -0.246 NA
ATOM     11  C   UNL     1      -2.643  -2.614   0.019  0.00  0.00    +0.033 A 
ATOM     12  C   UNL     1      -3.732  -1.803   0.027  0.00  0.00    +0.068 A 
ATOM     13  S   UNL     1      -2.947  -0.196   0.031  0.00  0.00    -0.075 S 
BRANCH   9  18
ATOM     14  C   UNL     1      -0.017   1.389   0.010  0.00  0.00    +0.018 A 
ATOM     15  C   UNL     1       1.155   2.061   0.002  0.00  0.00    +0.046 A 
ATOM     16  S   UNL     1       2.352   0.738  -0.016  0.00  0.00    -0.104 S 
ATOM     17  C   UNL     1       1.216  -0.638  -0.013  0.00  0.00    +0.055 A 
ATOM     18  C   UNL     1       0.002  -0.004   0.002  0.00  0.00    +0.014 A 
ENDBRANCH   9  18
ENDBRANCH   8  11
ENDBRANCH   1   8
BRANCH   4  19
ATOM     19  C   UNL     1      -1.592  -6.844  -4.755  0.00  0.00    +0.180 C 
BRANCH  19  20
ATOM     20  C   UNL     1      -1.676  -8.348  -4.713  0.00  0.00    +0.232 C 
ATOM     21  O   UNL     1      -1.802  -8.919  -3.651  0.00  0.00    -0.274 OA
ATOM     22  N   UNL     1      -1.611  -9.058  -5.857  0.00  0.00    -0.278 N 
ATOM     23  H   UNL     1      -1.511  -8.601  -6.707  0.00  0.00    +0.155 HD
BRANCH  22  24
ATOM     24  C   UNL     1      -1.688 -10.443  -5.819  0.00  0.00    +0.089 A 
ATOM     25  C   UNL     1      -1.634 -11.329  -6.884  0.00  0.00    +0.080 A 
ATOM     26  C   UNL     1      -1.738 -12.733  -6.563  0.00  0.00    +0.028 A 
ATOM     27  C   UNL     1      -1.878 -13.028  -5.257  0.00  0.00    +0.048 A 
ATOM     28  S   UNL     1      -1.861 -11.430  -4.474  0.00  0.00    -0.081 S 
BRANCH  25  29
ATOM     29  C   UNL     1      -1.483 -10.875  -8.234  0.00  0.00    +0.102 C 
ATOM     30  N   UNL     1      -1.363 -10.514  -9.305  0.00  0.00    -0.191 NA
ENDBRANCH  25  29
ENDBRANCH  22  24
ENDBRANCH  19  20
ENDBRANCH   4  19
TORSDOF 7
