REMARK  Name = ZINC27742722
REMARK  6 active torsions:
REMARK  status: ('A' for Active; 'I' for Inactive)
REMARK    1  A    between atoms: C_4  and  C_7
REMARK    2  A    between atoms: C_7  and  S_8
REMARK    3  A    between atoms: S_8  and  C_9
REMARK    4  A    between atoms: C_13  and  C_15
REMARK    5  A    between atoms: N_17  and  C_18
REMARK    6  A    between atoms: C_19  and  C_27
REMARK                            x       y       z     vdW  Elec       q    Type
REMARK                         _______ _______ _______ _____ _____    ______ ____
ROOT
ATOM      1  C   UNL     1      -2.997  10.813  -2.755  0.00  0.00    +0.189 A 
ATOM      2  N   UNL     1      -3.312  11.127  -4.005  0.00  0.00    -0.229 NA
ATOM      3  C   UNL     1      -3.311  10.211  -4.957  0.00  0.00    +0.136 A 
ATOM      4  C   UNL     1      -2.973   8.901  -4.638  0.00  0.00    +0.090 A 
ATOM      5  C   UNL     1      -2.646   8.603  -3.314  0.00  0.00    +0.148 A 
ATOM      6  N   UNL     1      -2.675   9.578  -2.408  0.00  0.00    -0.216 NA
ATOM      7 CL   UNL     1      -2.956   7.666  -5.858  0.00  0.00    -0.080 Cl
ENDROOT
BRANCH   5   8
ATOM      8  C   UNL     1      -2.278   7.221  -2.922  0.00  0.00    +0.269 C 
ATOM      9  O   UNL     1      -2.259   6.338  -3.756  0.00  0.00    -0.268 OA
ATOM     10  N   UNL     1      -1.964   6.945  -1.641  0.00  0.00    -0.274 N 
ATOM     11  H   UNL     1      -1.981   7.745  -0.886  0.00  0.00    +0.156 HD
BRANCH  10  12
ATOM     12  C   UNL     1      -1.621   5.653  -1.274  0.00  0.00    +0.090 A 
ATOM     13  C   UNL     1      -1.270   5.177  -0.019  0.00  0.00    +0.084 A 
ATOM     14  C   UNL     1      -0.951   3.765   0.100  0.00  0.00    -0.018 A 
ATOM     15  C   UNL     1      -1.032   3.059  -1.049  0.00  0.00    -0.004 A 
ATOM     16  S   UNL     1      -1.524   4.240  -2.273  0.00  0.00    -0.077 S 
ATOM     17  C   UNL     1      -0.761   1.597  -1.232  0.00  0.00    +0.043 C 
ATOM     18  C   UNL     1      -0.013   1.086   0.008  0.00  0.00    +0.005 C 
ATOM     19  C   UNL     1      -0.735   1.583   1.264  0.00  0.00    +0.005 C 
ATOM     20  C   UNL     1      -0.551   3.094   1.408  0.00  0.00    +0.037 C 
BRANCH  13  21
ATOM     21  C   UNL     1      -1.226   6.046   1.119  0.00  0.00    +0.102 C 
ATOM     22  N   UNL     1      -1.191   6.736   2.021  0.00  0.00    -0.191 NA
ENDBRANCH  13  21
ENDBRANCH  10  12
ENDBRANCH   5   8
BRANCH   1  23
ATOM     23  S   UNL     1      -3.015  12.073  -1.524  0.00  0.00    -0.081 S 
BRANCH  23  24
ATOM     24  C   UNL     1      -3.513  13.491  -2.533  0.00  0.00    +0.112 C 
BRANCH  24  28
ATOM     25  C   UNL     1      -3.751  16.976  -0.074  0.00  0.00    +0.000 A 
ATOM     26  C   UNL     1      -2.563  16.652  -0.701  0.00  0.00    +0.000 A 
ATOM     27  C   UNL     1      -2.486  15.525  -1.497  0.00  0.00    +0.004 A 
ATOM     28  C   UNL     1      -3.597  14.720  -1.665  0.00  0.00    -0.037 A 
ATOM     29  C   UNL     1      -4.787  15.046  -1.042  0.00  0.00    +0.004 A 
ATOM     30  C   UNL     1      -4.863  16.171  -0.242  0.00  0.00    +0.000 A 
ENDBRANCH  24  28
ENDBRANCH  23  24
ENDBRANCH   1  23
TORSDOF 6
