REMARK  Name = ZINC09969080
REMARK  8 active torsions:
REMARK  status: ('A' for Active; 'I' for Inactive)
REMARK    1  A    between atoms: C_7  and  C_11
REMARK    2  A    between atoms: C_11  and  C_12
REMARK    3  A    between atoms: C_12  and  N_13
REMARK    4  A    between atoms: N_13  and  C_14
REMARK    5  A    between atoms: C_14  and  C_15
REMARK    6  A    between atoms: N_22  and  C_27
REMARK    7  A    between atoms: C_23  and  C_24
REMARK    8  A    between atoms: C_27  and  C_28
REMARK                            x       y       z     vdW  Elec       q    Type
REMARK                         _______ _______ _______ _____ _____    ______ ____
ROOT
ATOM      1  C   UNL     1      -2.155  -6.126  -2.736  0.00  0.00    -0.025 A 
ATOM      2  C   UNL     1      -1.614  -7.433  -2.705  0.00  0.00    +0.002 A 
ATOM      3  C   UNL     1      -0.305  -7.932  -2.670  0.00  0.00    +0.010 A 
ATOM      4  C   UNL     1      -0.092  -9.279  -2.646  0.00  0.00    +0.001 A 
ATOM      5  C   UNL     1      -1.163 -10.165  -2.658  0.00  0.00    +0.002 A 
ATOM      6  C   UNL     1      -2.458  -9.700  -2.693  0.00  0.00    +0.026 A 
ATOM      7  C   UNL     1      -2.701  -8.329  -2.716  0.00  0.00    +0.050 A 
ATOM      8  N   UNL     1      -3.853  -7.580  -2.752  0.00  0.00    -0.330 N 
ATOM      9  C   UNL     1      -3.511  -6.240  -2.759  0.00  0.00    +0.134 A 
ENDROOT
BRANCH   9  10
ATOM     10  C   UNL     1      -4.458  -5.121  -2.788  0.00  0.00    +0.403 C 
ATOM     11  O   UNL     1      -5.660  -5.334  -2.696  0.00  0.00    -0.239 OA
ATOM     12  O   UNL     1      -4.047  -3.974  -2.905  0.00  0.00    -0.239 OA
ENDBRANCH   9  10
BRANCH   1  13
ATOM     13  C   UNL     1      -1.371  -4.839  -2.738  0.00  0.00    -0.044 C 
BRANCH  13  14
ATOM     14  N   UNL     1      -1.141  -4.405  -1.353  0.00  0.00    +0.382 N 
ATOM     15  H   UNL     1      -0.621  -5.115  -0.860  0.00  0.00    -0.085 HD
ATOM     16  H   UNL     1      -2.028  -4.258  -0.895  0.00  0.00    -0.085 HD
BRANCH  14  17
ATOM     17  C   UNL     1      -0.376  -3.150  -1.355  0.00  0.00    -0.077 C 
BRANCH  17  18
ATOM     18  C   UNL     1      -0.137  -2.698   0.087  0.00  0.00    +0.018 C 
BRANCH  18  25
ATOM     19  C   UNL     1      -1.370   1.809  -0.288  0.00  0.00    +0.001 A 
ATOM     20  C   UNL     1      -0.284   2.673  -0.236  0.00  0.00    +0.002 A 
ATOM     21  C   UNL     1       0.996   2.185  -0.089  0.00  0.00    +0.026 A 
ATOM     22  C   UNL     1       1.205   0.813   0.009  0.00  0.00    +0.047 A 
ATOM     23  C   UNL     1       0.102  -0.058  -0.043  0.00  0.00    +0.003 A 
ATOM     24  C   UNL     1      -1.187   0.459  -0.193  0.00  0.00    +0.010 A 
ATOM     25  C   UNL     1       0.648  -1.411   0.086  0.00  0.00    -0.024 A 
ATOM     26  C   UNL     1       1.979  -1.287   0.202  0.00  0.00    +0.087 A 
ATOM     27  N   UNL     1       2.330   0.035   0.159  0.00  0.00    -0.360 N 
ATOM     28  H   UNL     1       3.237   0.373   0.224  0.00  0.00    +0.165 HD
ENDBRANCH  18  25
ENDBRANCH  17  18
ENDBRANCH  14  17
ENDBRANCH  13  14
ENDBRANCH   1  13
BRANCH   8  29
ATOM     29  C   UNL     1      -5.217  -8.113  -2.775  0.00  0.00    +0.159 C 
BRANCH  29  30
ATOM     30  C   UNL     1      -5.706  -8.184  -4.199  0.00  0.00    -0.009 A 
ATOM     31  C   UNL     1      -6.350  -7.099  -4.763  0.00  0.00    +0.009 A 
ATOM     32  C   UNL     1      -6.798  -7.162  -6.068  0.00  0.00    +0.039 A 
ATOM     33  C   UNL     1      -6.602  -8.314  -6.812  0.00  0.00    +0.125 A 
ATOM     34  C   UNL     1      -5.956  -9.400  -6.248  0.00  0.00    +0.058 A 
ATOM     35  C   UNL     1      -5.503  -9.333  -4.943  0.00  0.00    +0.049 A 
ATOM     36 CL   UNL     1      -4.688 -10.692  -4.235  0.00  0.00    -0.083 Cl
ATOM     37  F   UNL     1      -7.041  -8.377  -8.089  0.00  0.00    -0.205 F 
ENDBRANCH  29  30
ENDBRANCH   8  29
TORSDOF 8
