REMARK  Name = ZINC33271105
REMARK  4 active torsions:
REMARK  status: ('A' for Active; 'I' for Inactive)
REMARK    1  A    between atoms: C_2  and  C_3
REMARK    2  A    between atoms: C_3  and  O_4
REMARK    3  A    between atoms: O_4  and  C_5
REMARK    4  A    between atoms: C_8  and  C_11
REMARK                            x       y       z     vdW  Elec       q    Type
REMARK                         _______ _______ _______ _____ _____    ______ ____
ROOT
ATOM      1  C   UNL     1       1.605   2.003   2.501  0.00  0.00    +0.106 C 
ATOM      2  C   UNL     1       2.182   1.460   1.191  0.00  0.00    +0.047 C 
ATOM      3  C   UNL     1       1.425   2.040  -0.001  0.00  0.00    +0.011 C 
ATOM      4  C   UNL     1      -0.019   1.528   0.010  0.00  0.00    +0.028 C 
ATOM      5  C   UNL     1       0.002  -0.004   0.002  0.00  0.00    +0.160 C 
ATOM      6  O   UNL     1       0.718  -0.468   1.147  0.00  0.00    -0.372 OA
ATOM      7  C   UNL     1       2.088  -0.064   1.195  0.00  0.00    +0.155 C 
ATOM      8  C   UNL     1       2.710  -0.614   2.455  0.00  0.00    +0.004 A 
ATOM      9  C   UNL     1       3.137  -1.931   2.470  0.00  0.00    +0.028 A 
ATOM     10  C   UNL     1       3.706  -2.465   3.611  0.00  0.00    +0.041 A 
ATOM     11  C   UNL     1       3.853  -1.684   4.745  0.00  0.00    +0.022 A 
ATOM     12  C   UNL     1       3.430  -0.370   4.735  0.00  0.00    +0.025 A 
ATOM     13  C   UNL     1       2.858   0.170   3.588  0.00  0.00    +0.033 A 
ATOM     14  N   UNL     1       2.447   1.508   3.599  0.00  0.00    -0.336 N 
ATOM     15 CL   UNL     1       4.239  -4.117   3.622  0.00  0.00    -0.084 Cl
ATOM     16  H   UNL     1       2.744   2.186   4.413  0.00  0.00    +0.147 HD
ENDROOT
BRANCH   1  20
ATOM     17  C   UNL     1       1.658   6.276   2.447  0.00  0.00    +0.122 A 
ATOM     18  C   UNL     1       0.476   5.593   2.203  0.00  0.00    +0.046 A 
ATOM     19  C   UNL     1       0.461   4.212   2.221  0.00  0.00    +0.009 A 
ATOM     20  C   UNL     1       1.623   3.510   2.482  0.00  0.00    -0.027 A 
ATOM     21  C   UNL     1       2.802   4.189   2.731  0.00  0.00    +0.009 A 
ATOM     22  C   UNL     1       2.824   5.570   2.708  0.00  0.00    +0.046 A 
BRANCH  17  23
ATOM     23  O   UNL     1       1.675   7.635   2.431  0.00  0.00    -0.480 OA
BRANCH  23  24
ATOM     24  C   UNL     1       2.928   8.271   2.691  0.00  0.00    +0.317 C 
BRANCH  24  26
ATOM     25  C   UNL     1       2.622  10.898   2.587  0.00  0.00    +0.007 C 
ATOM     26  C   UNL     1       2.758   9.732   2.633  0.00  0.00    -0.065 C 
ENDBRANCH  24  26
ENDBRANCH  23  24
ENDBRANCH  17  23
ENDBRANCH   1  20
TORSDOF 4
