REMARK  Name = ZINC02117324
REMARK  6 active torsions:
REMARK  status: ('A' for Active; 'I' for Inactive)
REMARK    1  A    between atoms: C_3  and  N_23
REMARK    2  A    between atoms: C_6  and  C_7
REMARK    3  A    between atoms: C_8  and  C_9
REMARK    4  A    between atoms: C_8  and  N_13
REMARK    5  A    between atoms: N_11  and  N_12
REMARK    6  A    between atoms: C_14  and  C_16
REMARK                            x       y       z     vdW  Elec       q    Type
REMARK                         _______ _______ _______ _____ _____    ______ ____
ROOT
ATOM      1  C   UNL     1       2.450   1.069   0.074  0.00  0.00    +0.036 C 
ATOM      2  C   UNL     1       1.276   1.727  -0.067  0.00  0.00    +0.098 C 
ENDROOT
BRANCH   1   8
ATOM      3  C   UNL     1       1.352  -1.096   0.618  0.00  0.00    +0.010 A 
ATOM      4  C   UNL     1       1.373  -2.474   0.668  0.00  0.00    +0.033 A 
ATOM      5  C   UNL     1       2.497  -3.168   0.256  0.00  0.00    +0.126 A 
ATOM      6  C   UNL     1       3.606  -2.487  -0.216  0.00  0.00    +0.033 A 
ATOM      7  C   UNL     1       3.598  -1.109  -0.278  0.00  0.00    +0.010 A 
ATOM      8  C   UNL     1       2.466  -0.400   0.137  0.00  0.00    -0.023 A 
BRANCH   5   9
ATOM      9  N   UNL     1       2.513  -4.647   0.319  0.00  0.00    +0.056 N 
ATOM     10  O   UNL     1       3.501  -5.261  -0.042  0.00  0.00    -0.126 OA
ATOM     11  O   UNL     1       1.539  -5.249   0.734  0.00  0.00    -0.126 OA
ENDBRANCH   5   9
ENDBRANCH   1   8
BRANCH   2  12
ATOM     12  C   UNL     1       1.240   3.194   0.029  0.00  0.00    +0.272 C 
ATOM     13  O   UNL     1       0.209   3.794  -0.211  0.00  0.00    -0.268 OA
ATOM     14  N   UNL     1       2.349   3.874   0.381  0.00  0.00    -0.249 N 
ATOM     15  H   UNL     1       3.171   3.396   0.572  0.00  0.00    +0.169 HD
BRANCH  14  16
ATOM     16  N   UNL     1       2.315   5.237   0.470  0.00  0.00    -0.254 NA
ATOM     17  H   UNL     1       3.214   5.604   0.743  0.00  0.00    +0.140 HD
ATOM     18  H   UNL     1       2.004   5.648  -0.397  0.00  0.00    +0.140 HD
ENDBRANCH  14  16
ENDBRANCH   2  12
BRANCH   2  19
ATOM     19  N   UNL     1       0.099   1.013  -0.304  0.00  0.00    -0.277 N 
ATOM     20  C   UNL     1      -0.966   1.181   0.505  0.00  0.00    +0.248 C 
ATOM     21  O   UNL     1      -0.926   2.004   1.399  0.00  0.00    -0.270 OA
ATOM     22  H   UNL     1       0.046   0.399  -1.054  0.00  0.00    +0.155 HD
BRANCH  20  23
ATOM     23  C   UNL     1      -2.182   0.365   0.305  0.00  0.00    +0.037 A 
ATOM     24  C   UNL     1      -2.233  -0.576  -0.724  0.00  0.00    +0.014 A 
ATOM     25  C   UNL     1      -3.368  -1.339  -0.902  0.00  0.00    +0.016 A 
ATOM     26  C   UNL     1      -4.460  -1.163  -0.069  0.00  0.00    +0.018 A 
ATOM     27  C   UNL     1      -4.418  -0.227   0.951  0.00  0.00    +0.016 A 
ATOM     28  C   UNL     1      -3.286   0.537   1.142  0.00  0.00    +0.014 A 
ATOM     29 BR   UNL     1      -6.016  -2.207  -0.324  0.00  0.00    -0.050 Br
ENDBRANCH  20  23
ENDBRANCH   2  19
TORSDOF 6
