REMARK  Name = ZINC50893529
REMARK  6 active torsions:
REMARK  status: ('A' for Active; 'I' for Inactive)
REMARK    1  A    between atoms: C_1  and  C_2
REMARK    2  A    between atoms: C_2  and  C_3
REMARK    3  A    between atoms: C_3  and  C_4
REMARK    4  A    between atoms: N_7  and  S_10
REMARK    5  A    between atoms: S_10  and  C_13
REMARK    6  A    between atoms: C_15  and  N_18
REMARK                            x       y       z     vdW  Elec       q    Type
REMARK                         _______ _______ _______ _____ _____    ______ ____
ROOT
ATOM      1  S   UNL     1       3.265  -5.628  -1.524  0.00  0.00    +0.067 S 
ATOM      2  O   UNL     1       3.809  -5.470  -2.827  0.00  0.00    -0.152 OA
ATOM      3  O   UNL     1       4.049  -5.480  -0.348  0.00  0.00    -0.152 OA
ENDROOT
BRANCH   1   7
ATOM      4  C   UNL     1       0.739  -2.027  -1.265  0.00  0.00    -0.008 C 
ATOM      5  C   UNL     1       1.583  -2.532  -0.093  0.00  0.00    +0.020 C 
ATOM      6  C   UNL     1       1.573  -4.064  -0.084  0.00  0.00    +0.110 C 
ATOM      7  N   UNL     1       2.016  -4.547  -1.399  0.00  0.00    -0.176 NA
ATOM      8  C   UNL     1       1.331  -4.053  -2.601  0.00  0.00    +0.110 C 
ATOM      9  C   UNL     1       1.343  -2.522  -2.582  0.00  0.00    +0.020 C 
BRANCH   4  10
ATOM     10  C   UNL     1       0.718  -0.497  -1.257  0.00  0.00    +0.003 C 
BRANCH  10  12
ATOM     11  C   UNL     1      -0.019   1.526   0.010  0.00  0.00    +0.004 C 
ATOM     12  C   UNL     1       0.002  -0.004   0.002  0.00  0.00    -0.003 C 
ENDBRANCH  10  12
ENDBRANCH   4  10
ENDBRANCH   1   7
BRANCH   1  13
ATOM     13  C   UNL     1       2.564  -7.243  -1.463  0.00  0.00    +0.144 A 
ATOM     14  C   UNL     1       2.129  -8.023  -2.483  0.00  0.00    +0.059 A 
ATOM     15  C   UNL     1       1.608  -9.275  -2.195  0.00  0.00    +0.034 A 
ATOM     16  C   UNL     1       1.551  -9.680  -0.899  0.00  0.00    +0.069 A 
ATOM     17  S   UNL     1       2.252  -8.279  -0.043  0.00  0.00    -0.075 S 
BRANCH  15  18
ATOM     18  N   UNL     1       1.146 -10.112  -3.228  0.00  0.00    -0.358 N 
ATOM     19  H   UNL     1       1.190  -9.815  -4.150  0.00  0.00    +0.142 HD
ATOM     20  H   UNL     1       0.783 -10.987  -3.018  0.00  0.00    +0.142 HD
ENDBRANCH  15  18
ENDBRANCH   1  13
TORSDOF 5
