REMARK  Name = ZINC39666470
REMARK  11 active torsions:
REMARK  status: ('A' for Active; 'I' for Inactive)
REMARK    1  A    between atoms: C_1  and  C_2
REMARK    2  A    between atoms: C_2  and  C_3
REMARK    3  A    between atoms: C_3  and  C_4
REMARK    4  A    between atoms: C_3  and  C_6
REMARK    5  A    between atoms: C_4  and  C_5
REMARK    6  A    between atoms: C_10  and  C_19
REMARK    7  A    between atoms: N_21  and  C_22
REMARK    8  A    between atoms: C_22  and  C_23
REMARK    9  A    between atoms: C_23  and  C_25
REMARK   10  A    between atoms: C_23  and  O_26
REMARK   11  A    between atoms: O_26  and  C_27
REMARK                            x       y       z     vdW  Elec       q    Type
REMARK                         _______ _______ _______ _____ _____    ______ ____
ROOT
ATOM      1  C   UNL     1      -1.268  -2.145   0.339  0.00  0.00    +0.219 C 
ATOM      2  O   UNL     1      -0.212  -2.698   0.561  0.00  0.00    -0.275 OA
ATOM      3  N   UNL     1      -2.402  -2.868   0.249  0.00  0.00    -0.300 N 
ATOM      4  C   UNL     1      -3.787  -2.368   0.078  0.00  0.00    +0.121 C 
ATOM      5  C   UNL     1      -4.443  -3.367  -0.902  0.00  0.00    +0.100 C 
ATOM      6  C   UNL     1      -3.626  -4.660  -0.750  0.00  0.00    -0.004 C 
ATOM      7  C   UNL     1      -2.545  -4.343   0.293  0.00  0.00    +0.115 C 
ATOM      8  C   UNL     1      -2.975  -5.033  -2.079  0.00  0.00    -0.010 C 
ATOM      9  C   UNL     1      -2.215  -6.352  -1.917  0.00  0.00    -0.082 C 
ATOM     10  N   UNL     1      -3.144  -7.406  -1.492  0.00  0.00    +0.379 N 
ATOM     11  C   UNL     1      -3.696  -7.084  -0.171  0.00  0.00    -0.082 C 
ATOM     12  C   UNL     1      -4.519  -5.796  -0.258  0.00  0.00    -0.010 C 
ATOM     13  H   UNL     1      -3.897  -7.478  -2.161  0.00  0.00    -0.086 HD
ATOM     14  H   UNL     1      -2.654  -8.287  -1.446  0.00  0.00    -0.086 HD
ENDROOT
BRANCH   5  15
ATOM     15  C   UNL     1      -4.355  -2.850  -2.315  0.00  0.00    +0.218 C 
ATOM     16  O   UNL     1      -3.391  -2.204  -2.665  0.00  0.00    -0.275 OA
ATOM     17  N   UNL     1      -5.349  -3.107  -3.189  0.00  0.00    -0.312 N 
ATOM     18  H   UNL     1      -6.120  -3.624  -2.909  0.00  0.00    +0.149 HD
BRANCH  17  19
ATOM     19  C   UNL     1      -5.263  -2.605  -4.562  0.00  0.00    +0.148 C 
BRANCH  19  20
ATOM     20  C   UNL     1      -6.509  -3.033  -5.340  0.00  0.00    +0.187 C 
ATOM     21  C   UNL     1      -6.420  -2.508  -6.775  0.00  0.00    +0.053 C 
BRANCH  20  22
ATOM     22  O   UNL     1      -6.593  -4.459  -5.359  0.00  0.00    -0.486 OA
BRANCH  22  23
ATOM     23  C   UNL     1      -7.828  -5.003  -5.522  0.00  0.00    +0.139 A 
ATOM     24  C   UNL     1      -8.920  -4.184  -5.771  0.00  0.00    +0.047 A 
ATOM     25  C   UNL     1     -10.174  -4.739  -5.937  0.00  0.00    +0.004 A 
ATOM     26  C   UNL     1     -10.342  -6.109  -5.855  0.00  0.00    +0.002 A 
ATOM     27  C   UNL     1      -9.256  -6.928  -5.606  0.00  0.00    +0.023 A 
ATOM     28  C   UNL     1      -7.998  -6.378  -5.446  0.00  0.00    +0.083 A 
ATOM     29 CL   UNL     1      -6.633  -7.407  -5.141  0.00  0.00    -0.080 Cl
ENDBRANCH  22  23
ENDBRANCH  20  22
ENDBRANCH  19  20
ENDBRANCH  17  19
ENDBRANCH   5  15
BRANCH   1  30
ATOM     30  C   UNL     1      -1.312  -0.649   0.163  0.00  0.00    +0.075 C 
BRANCH  30  32
ATOM     31  C   UNL     1      -1.593   1.532   1.350  0.00  0.00    +0.004 C 
ATOM     32  C   UNL     1      -1.422   0.023   1.534  0.00  0.00    +0.009 C 
ENDBRANCH  30  32
BRANCH  30  33
ATOM     33  C   UNL     1      -0.034  -0.179  -0.534  0.00  0.00    +0.009 C 
ATOM     34  C   UNL     1       0.006  -0.740  -1.957  0.00  0.00    +0.004 C 
ENDBRANCH  30  33
ENDBRANCH   1  30
TORSDOF 8
