REMARK  Name = ZINC16195313
REMARK  9 active torsions:
REMARK  status: ('A' for Active; 'I' for Inactive)
REMARK    1  A    between atoms: C_1  and  O_2
REMARK    2  A    between atoms: O_2  and  C_3
REMARK    3  A    between atoms: C_7  and  C_13
REMARK    4  A    between atoms: C_8  and  O_9
REMARK    5  A    between atoms: O_9  and  C_10
REMARK    6  A    between atoms: C_10  and  C_11
REMARK    7  A    between atoms: N_14  and  N_15
REMARK    8  A    between atoms: N_15  and  C_16
REMARK    9  A    between atoms: C_19  and  C_24
REMARK                            x       y       z     vdW  Elec       q    Type
REMARK                         _______ _______ _______ _____ _____    ______ ____
ROOT
ATOM      1  N   UNL     1      -4.931   3.521  -0.907  0.00  0.00    -0.232 N 
ATOM      2  H   UNL     1      -5.125   2.599  -0.676  0.00  0.00    +0.175 HD
ENDROOT
BRANCH   1   3
ATOM      3  C   UNL     1      -5.914   4.313  -1.507  0.00  0.00    +0.124 A 
ATOM      4  C   UNL     1      -6.000   5.667  -1.202  0.00  0.00    +0.184 A 
ATOM      5  C   UNL     1      -6.972   6.450  -1.802  0.00  0.00    +0.175 A 
ATOM      6  C   UNL     1      -7.865   5.884  -2.695  0.00  0.00    +0.131 A 
ATOM      7  C   UNL     1      -7.787   4.534  -2.996  0.00  0.00    +0.175 A 
ATOM      8  C   UNL     1      -6.813   3.747  -2.404  0.00  0.00    +0.184 A 
ATOM      9  F   UNL     1      -6.737   2.430  -2.698  0.00  0.00    -0.200 F 
ATOM     10  F   UNL     1      -8.661   3.985  -3.868  0.00  0.00    -0.202 F 
ATOM     11  F   UNL     1      -7.052   7.767  -1.511  0.00  0.00    -0.202 F 
ATOM     12  F   UNL     1      -5.132   6.220  -0.327  0.00  0.00    -0.200 F 
BRANCH   6  13
ATOM     13  C   UNL     1      -8.926   6.737  -3.342  0.00  0.00    +0.423 C 
ATOM     14  F   UNL     1     -10.077   6.732  -2.547  0.00  0.00    -0.166 F 
ATOM     15  F   UNL     1      -8.454   8.048  -3.470  0.00  0.00    -0.166 F 
ATOM     16  F   UNL     1      -9.230   6.225  -4.607  0.00  0.00    -0.166 F 
ENDBRANCH   6  13
ENDBRANCH   1   3
BRANCH   1  18
ATOM     17  C   UNL     1      -2.721   3.298  -0.176  0.00  0.00    +0.142 C 
ATOM     18  N   UNL     1      -3.664   4.059  -0.642  0.00  0.00    -0.190 NA
BRANCH  17  23
ATOM     19  C   UNL     1       0.963   3.508   0.561  0.00  0.00    +0.163 A 
ATOM     20  C   UNL     1       1.203   4.854   0.326  0.00  0.00    +0.064 A 
ATOM     21  C   UNL     1       0.171   5.690  -0.064  0.00  0.00    +0.022 A 
ATOM     22  C   UNL     1      -1.105   5.190  -0.230  0.00  0.00    +0.028 A 
ATOM     23  C   UNL     1      -1.359   3.835  -0.002  0.00  0.00    +0.041 A 
ATOM     24  C   UNL     1      -0.315   2.991   0.394  0.00  0.00    +0.172 A 
ATOM     25 BR   UNL     1       0.511   7.524  -0.374  0.00  0.00    -0.050 Br
BRANCH  19  27
ATOM     26  C   UNL     1       3.269   3.293   1.103  0.00  0.00    +0.277 C 
ATOM     27  O   UNL     1       1.980   2.694   0.950  0.00  0.00    -0.491 OA
ENDBRANCH  19  27
BRANCH  24  28
ATOM     28  O   UNL     1      -0.552   1.671   0.619  0.00  0.00    -0.475 OA
BRANCH  28  29
ATOM     29  C   UNL     1      -0.308   0.774  -0.467  0.00  0.00    +0.317 C 
BRANCH  29  30
ATOM     30  C   UNL     1      -0.504  -0.612  -0.011  0.00  0.00    -0.065 C 
ATOM     31  C   UNL     1      -0.660  -1.717   0.352  0.00  0.00    +0.007 C 
ENDBRANCH  29  30
ENDBRANCH  28  29
ENDBRANCH  24  28
ENDBRANCH  17  23
ENDBRANCH   1  18
TORSDOF 8
