REMARK  Name = ZINC00887798
REMARK  4 active torsions:
REMARK  status: ('A' for Active; 'I' for Inactive)
REMARK    1  A    between atoms: C_1  and  C_2
REMARK    2  A    between atoms: C_4  and  C_27
REMARK    3  A    between atoms: C_8  and  C_26
REMARK    4  A    between atoms: C_14  and  C_20
REMARK                            x       y       z     vdW  Elec       q    Type
REMARK                         _______ _______ _______ _____ _____    ______ ____
ROOT
ATOM      1  C   UNL     1      -0.013   1.089   0.007  0.00  0.00    +0.044 C 
ATOM      2  C   UNL     1      -0.718   1.575   1.247  0.00  0.00    -0.049 A 
ATOM      3  C   UNL     1       0.018   1.814   2.406  0.00  0.00    +0.008 A 
ATOM      4  C   UNL     1      -0.587   2.254   3.544  0.00  0.00    -0.024 A 
ATOM      5  C   UNL     1      -1.973   2.472   3.553  0.00  0.00    +0.079 A 
ATOM      6  C   UNL     1      -2.721   2.228   2.372  0.00  0.00    +0.022 A 
ATOM      7  C   UNL     1      -2.064   1.780   1.216  0.00  0.00    +0.015 A 
ATOM      8  C   UNL     1      -4.110   2.452   2.402  0.00  0.00    +0.051 A 
ATOM      9  N   UNL     1      -4.653   2.877   3.524  0.00  0.00    -0.219 NA
ATOM     10  C   UNL     1      -3.920   3.096   4.614  0.00  0.00    +0.222 A 
ATOM     11  N   UNL     1      -2.616   2.904   4.644  0.00  0.00    -0.214 NA
ATOM     12  N   UNL     1      -4.554   3.544   5.763  0.00  0.00    -0.258 N 
ATOM     13  C   UNL     1      -5.895   3.858   5.732  0.00  0.00    +0.167 C 
ATOM     14  C   UNL     1      -8.001   3.945   4.567  0.00  0.00    +0.121 C 
ATOM     15  C   UNL     1      -8.306   5.200   5.388  0.00  0.00    +0.125 C 
ATOM     16  C   UNL     1      -7.653   5.072   6.743  0.00  0.00    +0.221 C 
ATOM     17  O   UNL     1      -8.173   5.563   7.722  0.00  0.00    -0.275 OA
ATOM     18  N   UNL     1      -6.486   4.404   6.852  0.00  0.00    -0.260 N 
ATOM     19  C   UNL     1      -4.956   2.211   1.179  0.00  0.00    +0.066 C 
ATOM     20  C   UNL     1       0.227   2.507   4.787  0.00  0.00    +0.046 C 
ATOM     21  H   UNL     1      -4.053   3.636   6.588  0.00  0.00    +0.158 HD
ATOM     22  H   UNL     1      -6.062   4.309   7.719  0.00  0.00    +0.157 HD
ATOM     23  N   UNL     1      -6.534   3.607   4.586  0.00  0.00    -0.353 N 
ATOM     24  H   UNL     1      -6.055   3.209   3.770  0.00  0.00    +0.163 HD
ENDROOT
BRANCH  14  25
ATOM     25  C   UNL     1      -8.378   4.185   3.128  0.00  0.00    -0.025 A 
ATOM     26  C   UNL     1      -7.530   4.897   2.301  0.00  0.00    +0.005 A 
ATOM     27  C   UNL     1      -7.874   5.112   0.979  0.00  0.00    +0.000 A 
ATOM     28  C   UNL     1      -9.070   4.624   0.488  0.00  0.00    +0.000 A 
ATOM     29  C   UNL     1      -9.920   3.916   1.316  0.00  0.00    +0.000 A 
ATOM     30  C   UNL     1      -9.574   3.696   2.636  0.00  0.00    +0.005 A 
ENDBRANCH  14  25
TORSDOF 1
