REMARK  Name = ZINC39599105
REMARK  11 active torsions:
REMARK  status: ('A' for Active; 'I' for Inactive)
REMARK    1  A    between atoms: C_1  and  C_2
REMARK    2  A    between atoms: C_2  and  C_3
REMARK    3  A    between atoms: C_3  and  C_4
REMARK    4  A    between atoms: C_3  and  C_6
REMARK    5  A    between atoms: C_4  and  C_5
REMARK    6  A    between atoms: C_10  and  C_19
REMARK    7  A    between atoms: N_21  and  C_22
REMARK    8  A    between atoms: C_22  and  C_23
REMARK    9  A    between atoms: C_23  and  C_24
REMARK   10  A    between atoms: C_27  and  O_33
REMARK   11  A    between atoms: O_33  and  C_34
REMARK                            x       y       z     vdW  Elec       q    Type
REMARK                         _______ _______ _______ _____ _____    ______ ____
ROOT
ATOM      1  C   UNL     1       0.551  -2.017  -1.678  0.00  0.00    +0.219 C 
ATOM      2  O   UNL     1       1.474  -2.775  -1.891  0.00  0.00    -0.275 OA
ATOM      3  N   UNL     1      -0.703  -2.496  -1.568  0.00  0.00    -0.300 N 
ATOM      4  C   UNL     1      -1.949  -1.733  -1.319  0.00  0.00    +0.121 C 
ATOM      5  C   UNL     1      -3.008  -2.409  -2.218  0.00  0.00    +0.100 C 
ATOM      6  C   UNL     1      -2.478  -3.836  -2.442  0.00  0.00    -0.004 C 
ATOM      7  C   UNL     1      -1.150  -3.906  -1.675  0.00  0.00    +0.115 C 
ATOM      8  C   UNL     1      -2.236  -4.082  -3.928  0.00  0.00    -0.010 C 
ATOM      9  C   UNL     1      -1.765  -5.524  -4.132  0.00  0.00    -0.082 C 
ATOM     10  N   UNL     1      -2.783  -6.450  -3.622  0.00  0.00    +0.379 N 
ATOM     11  C   UNL     1      -2.943  -6.270  -2.174  0.00  0.00    -0.082 C 
ATOM     12  C   UNL     1      -3.464  -4.859  -1.887  0.00  0.00    -0.010 C 
ATOM     13  H   UNL     1      -3.663  -6.267  -4.082  0.00  0.00    -0.086 HD
ATOM     14  H   UNL     1      -2.498  -7.399  -3.812  0.00  0.00    -0.086 HD
ENDROOT
BRANCH   5  15
ATOM     15  C   UNL     1      -4.343  -2.446  -1.519  0.00  0.00    +0.218 C 
ATOM     16  O   UNL     1      -4.394  -2.427  -0.307  0.00  0.00    -0.275 OA
ATOM     17  N   UNL     1      -5.480  -2.502  -2.240  0.00  0.00    -0.315 N 
ATOM     18  H   UNL     1      -5.439  -2.518  -3.209  0.00  0.00    +0.149 HD
BRANCH  17  19
ATOM     19  C   UNL     1      -6.777  -2.538  -1.561  0.00  0.00    +0.109 C 
BRANCH  19  20
ATOM     20  C   UNL     1      -7.896  -2.598  -2.603  0.00  0.00    +0.056 C 
BRANCH  20  21
ATOM     21  C   UNL     1      -9.231  -2.636  -1.904  0.00  0.00    -0.021 A 
ATOM     22  C   UNL     1      -9.999  -1.481  -1.430  0.00  0.00    +0.006 A 
ATOM     23  C   UNL     1      -9.789  -0.101  -1.456  0.00  0.00    +0.056 A 
ATOM     24  C   UNL     1     -10.734   0.743  -0.909  0.00  0.00    +0.121 A 
ATOM     25  C   UNL     1     -11.890   0.223  -0.333  0.00  0.00    +0.047 A 
ATOM     26  C   UNL     1     -12.108  -1.137  -0.301  0.00  0.00    +0.030 A 
ATOM     27  C   UNL     1     -11.168  -2.004  -0.848  0.00  0.00    +0.047 A 
ATOM     28  N   UNL     1     -11.102  -3.376  -0.967  0.00  0.00    -0.360 N 
ATOM     29  C   UNL     1      -9.944  -3.732  -1.603  0.00  0.00    +0.087 A 
ATOM     30  H   UNL     1     -11.777  -3.996  -0.650  0.00  0.00    +0.165 HD
BRANCH  24  31
ATOM     31  O   UNL     1     -10.535   2.088  -0.931  0.00  0.00    -0.495 OA
ATOM     32  C   UNL     1     -11.553   2.905  -0.348  0.00  0.00    +0.277 C 
ENDBRANCH  24  31
ENDBRANCH  20  21
ENDBRANCH  19  20
ENDBRANCH  17  19
ENDBRANCH   5  15
BRANCH   1  33
ATOM     33  C   UNL     1       0.808  -0.538  -1.538  0.00  0.00    +0.075 C 
BRANCH  33  35
ATOM     34  C   UNL     1       0.483   1.450  -0.061  0.00  0.00    +0.004 C 
ATOM     35  C   UNL     1       0.354  -0.071  -0.153  0.00  0.00    +0.009 C 
ENDBRANCH  33  35
BRANCH  33  36
ATOM     36  C   UNL     1       2.304  -0.262  -1.704  0.00  0.00    +0.009 C 
ATOM     37  C   UNL     1       2.724  -0.577  -3.141  0.00  0.00    +0.004 C 
ENDBRANCH  33  36
ENDBRANCH   1  33
TORSDOF 8
