REMARK  Name = ZINC02693082
REMARK  8 active torsions:
REMARK  status: ('A' for Active; 'I' for Inactive)
REMARK    1  A    between atoms: C_1  and  C_2
REMARK    2  A    between atoms: C_5  and  S_8
REMARK    3  A    between atoms: S_8  and  C_11
REMARK    4  A    between atoms: N_13  and  C_22
REMARK    5  A    between atoms: C_22  and  C_23
REMARK    6  A    between atoms: N_25  and  C_26
REMARK    7  A    between atoms: C_28  and  C_33
REMARK    8  A    between atoms: C_31  and  C_32
REMARK                            x       y       z     vdW  Elec       q    Type
REMARK                         _______ _______ _______ _____ _____    ______ ____
ROOT
ATOM      1  C   UNL     1       1.168   1.963  -0.011  0.00  0.00    +0.157 A 
ATOM      2  C   UNL     1       1.127   3.312  -0.003  0.00  0.00    +0.118 A 
ATOM      3  N   UNL     1      -0.037   4.005   0.021  0.00  0.00    -0.336 N 
ATOM      4  C   UNL     1      -1.257   3.367   0.038  0.00  0.00    +0.053 A 
ATOM      5  C   UNL     1      -2.446   4.089   0.061  0.00  0.00    +0.026 A 
ATOM      6  C   UNL     1      -3.651   3.420   0.063  0.00  0.00    +0.002 A 
ATOM      7  C   UNL     1      -3.691   2.033   0.056  0.00  0.00    +0.001 A 
ATOM      8  C   UNL     1      -2.534   1.304   0.037  0.00  0.00    +0.014 A 
ATOM      9  C   UNL     1      -1.304   1.962   0.026  0.00  0.00    +0.047 A 
ATOM     10  C   UNL     1      -0.033   1.217   0.005  0.00  0.00    +0.214 A 
ATOM     11  O   UNL     1      -0.018  -0.003  -0.002  0.00  0.00    -0.285 OA
ENDROOT
BRANCH   1  12
ATOM     12  S   UNL     1       2.721   1.130  -0.042  0.00  0.00    +0.030 S 
ATOM     13  O   UNL     1       2.638   0.154  -1.072  0.00  0.00    -0.164 OA
ATOM     14  O   UNL     1       3.723   2.138  -0.027  0.00  0.00    -0.164 OA
BRANCH  12  19
ATOM     15  C   UNL     1       3.231  -1.887   5.158  0.00  0.00    +0.044 C 
ATOM     16  C   UNL     1       3.104  -1.134   3.859  0.00  0.00    -0.050 A 
ATOM     17  C   UNL     1       2.523  -1.741   2.761  0.00  0.00    +0.005 A 
ATOM     18  C   UNL     1       2.406  -1.050   1.570  0.00  0.00    +0.027 A 
ATOM     19  C   UNL     1       2.870   0.249   1.476  0.00  0.00    +0.094 A 
ATOM     20  C   UNL     1       3.455   0.855   2.572  0.00  0.00    +0.027 A 
ATOM     21  C   UNL     1       3.567   0.165   3.765  0.00  0.00    +0.005 A 
ENDBRANCH  12  19
ENDBRANCH   1  12
BRANCH   3  22
ATOM     22  C   UNL     1       0.004   5.469   0.027  0.00  0.00    +0.217 C 
BRANCH  22  23
ATOM     23  C   UNL     1      -0.081   5.967   1.447  0.00  0.00    +0.237 C 
ATOM     24  O   UNL     1      -0.168   5.177   2.363  0.00  0.00    -0.274 OA
ATOM     25  N   UNL     1      -0.062   7.291   1.699  0.00  0.00    -0.284 N 
ATOM     26  H   UNL     1       0.088   7.920   0.976  0.00  0.00    +0.155 HD
BRANCH  25  27
ATOM     27  C   UNL     1      -0.257   7.758   3.004  0.00  0.00    +0.037 A 
ATOM     28  C   UNL     1      -0.958   6.986   3.921  0.00  0.00    +0.027 A 
ATOM     29  C   UNL     1      -1.149   7.450   5.208  0.00  0.00    -0.049 A 
ATOM     30  C   UNL     1      -0.643   8.681   5.583  0.00  0.00    +0.004 A 
ATOM     31  C   UNL     1       0.054   9.452   4.672  0.00  0.00    +0.005 A 
ATOM     32  C   UNL     1       0.254   8.991   3.385  0.00  0.00    -0.029 A 
ATOM     33  C   UNL     1       1.021   9.829   2.394  0.00  0.00    +0.045 C 
ATOM     34  C   UNL     1      -1.909   6.613   6.205  0.00  0.00    +0.044 C 
ENDBRANCH  25  27
ENDBRANCH  22  23
ENDBRANCH   3  22
TORSDOF 5
