REMARK  Name = ZINC15016598
REMARK  7 active torsions:
REMARK  status: ('A' for Active; 'I' for Inactive)
REMARK    1  A    between atoms: C_1  and  C_2
REMARK    2  A    between atoms: C_5  and  C_26
REMARK    3  A    between atoms: C_6  and  C_8
REMARK    4  A    between atoms: N_12  and  N_16
REMARK    5  A    between atoms: C_17  and  C_18
REMARK    6  A    between atoms: C_20  and  C_25
REMARK    7  A    between atoms: C_23  and  C_24
REMARK                            x       y       z     vdW  Elec       q    Type
REMARK                         _______ _______ _______ _____ _____    ______ ____
ROOT
ATOM      1  C   UNL     1       6.734   7.160   0.496  0.00  0.00    +0.028 C 
ATOM      2  C   UNL     1       6.357   5.858   0.531  0.00  0.00    +0.079 C 
ATOM      3  C   UNL     1       5.002   5.270   0.584  0.00  0.00    +0.278 C 
ATOM      4  O   UNL     1       4.003   5.966   0.603  0.00  0.00    -0.267 OA
ATOM      5  N   UNL     1       4.930   3.950   0.613  0.00  0.00    -0.142 N 
ATOM      6  C   UNL     1       6.039   3.183   0.587  0.00  0.00    +0.142 C 
ATOM      7  S   UNL     1       6.150   1.475   0.611  0.00  0.00    -0.025 S 
ATOM      8  S   UNL     1       7.362   4.379   0.520  0.00  0.00    -0.059 S 
ENDROOT
BRANCH   1  14
ATOM      9  C   UNL     1      11.354   5.959   1.933  0.00  0.00    +0.044 C 
ATOM     10  C   UNL     1      10.380   6.946   1.342  0.00  0.00    -0.050 A 
ATOM     11  C   UNL     1      10.821   8.196   0.943  0.00  0.00    +0.003 A 
ATOM     12  C   UNL     1       9.935   9.110   0.400  0.00  0.00    +0.004 A 
ATOM     13  C   UNL     1       8.605   8.779   0.246  0.00  0.00    -0.043 A 
ATOM     14  C   UNL     1       8.151   7.519   0.651  0.00  0.00    -0.021 A 
ATOM     15  C   UNL     1       9.053   6.601   1.200  0.00  0.00    +0.011 A 
ATOM     16  C   UNL     1       7.643   9.773  -0.351  0.00  0.00    +0.044 C 
ENDBRANCH   1  14
BRANCH   5  17
ATOM     17  N   UNL     1       3.673   3.334   0.668  0.00  0.00    -0.179 NA
ATOM     18  C   UNL     1       3.365   2.575   1.674  0.00  0.00    +0.139 C 
BRANCH  18  19
ATOM     19  C   UNL     1       2.088   1.837   1.678  0.00  0.00    -0.002 A 
ATOM     20  C   UNL     1       1.750   1.025   2.763  0.00  0.00    +0.013 A 
ATOM     21  C   UNL     1       0.554   0.338   2.760  0.00  0.00    -0.050 A 
ATOM     22  C   UNL     1      -0.311   0.453   1.686  0.00  0.00    +0.003 A 
ATOM     23  C   UNL     1       0.017   1.256   0.608  0.00  0.00    +0.004 A 
ATOM     24  C   UNL     1       1.210   1.948   0.597  0.00  0.00    -0.042 A 
ATOM     25  C   UNL     1       1.566   2.822  -0.578  0.00  0.00    +0.044 C 
ATOM     26  C   UNL     1       0.188  -0.539   3.930  0.00  0.00    +0.044 C 
ENDBRANCH  18  19
ENDBRANCH   5  17
TORSDOF 3
