REMARK  Name = ZINC04690574
REMARK  8 active torsions:
REMARK  status: ('A' for Active; 'I' for Inactive)
REMARK    1  A    between atoms: C_1  and  C_2
REMARK    2  A    between atoms: C_2  and  O_3
REMARK    3  A    between atoms: O_3  and  C_4
REMARK    4  A    between atoms: C_9  and  N_10
REMARK    5  A    between atoms: C_14  and  C_15
REMARK    6  A    between atoms: C_18  and  C_21
REMARK    7  A    between atoms: C_21  and  C_22
REMARK    8  A    between atoms: C_21  and  C_23
REMARK                            x       y       z     vdW  Elec       q    Type
REMARK                         _______ _______ _______ _____ _____    ______ ____
ROOT
ATOM      1  N   UNL     1      -0.098   0.142   0.795  0.00  0.00    -0.220 N 
ATOM      2  C   UNL     1      -0.075   1.420   0.457  0.00  0.00    +0.263 C 
ATOM      3  O   UNL     1      -1.099   2.046   0.253  0.00  0.00    -0.269 OA
ATOM      4  C   UNL     1       1.257   2.048   0.333  0.00  0.00    +0.078 C 
ATOM      5  C   UNL     1       1.585   3.323   0.005  0.00  0.00    +0.028 C 
ATOM      6  S   UNL     1       2.317   0.666   0.733  0.00  0.00    -0.061 S 
ATOM      7  C   UNL     1       1.039  -0.549   1.015  0.00  0.00    +0.125 C 
ATOM      8  S   UNL     1       1.215  -2.194   1.456  0.00  0.00    -0.027 S 
ENDROOT
BRANCH   1  14
ATOM      9  C   UNL     1      -1.982  -0.531   2.161  0.00  0.00    +0.142 A 
ATOM     10  C   UNL     1      -3.204  -1.172   2.285  0.00  0.00    +0.047 A 
ATOM     11  C   UNL     1      -3.771  -1.799   1.191  0.00  0.00    +0.004 A 
ATOM     12  C   UNL     1      -3.124  -1.783  -0.031  0.00  0.00    +0.002 A 
ATOM     13  C   UNL     1      -1.907  -1.141  -0.165  0.00  0.00    +0.027 A 
ATOM     14  C   UNL     1      -1.333  -0.510   0.929  0.00  0.00    +0.084 A 
BRANCH   9  15
ATOM     15  O   UNL     1      -1.421   0.081   3.237  0.00  0.00    -0.490 OA
BRANCH  15  17
ATOM     16  C   UNL     1      -1.361   0.758   5.556  0.00  0.00    +0.048 C 
ATOM     17  C   UNL     1      -2.143   0.020   4.468  0.00  0.00    +0.226 C 
ENDBRANCH  15  17
ENDBRANCH   9  15
ENDBRANCH   1  14
BRANCH   5  18
ATOM     18  C   UNL     1       2.981   3.771   0.105  0.00  0.00    -0.024 A 
ATOM     19  C   UNL     1       3.942   2.951   0.707  0.00  0.00    +0.008 A 
ATOM     20  C   UNL     1       5.251   3.377   0.791  0.00  0.00    +0.004 A 
ATOM     21  C   UNL     1       5.613   4.617   0.294  0.00  0.00    -0.045 A 
ATOM     22  C   UNL     1       4.667   5.437  -0.297  0.00  0.00    +0.004 A 
ATOM     23  C   UNL     1       3.356   5.023  -0.395  0.00  0.00    +0.008 A 
BRANCH  21  24
ATOM     24  C   UNL     1       7.044   5.076   0.396  0.00  0.00    +0.013 C 
ATOM     25  C   UNL     1       7.458   5.131   1.868  0.00  0.00    +0.012 C 
ATOM     26  C   UNL     1       7.950   4.096  -0.352  0.00  0.00    +0.012 C 
ENDBRANCH  21  24
ENDBRANCH   5  18
TORSDOF 5
