REMARK  Name = ZINC50612525
REMARK  7 active torsions:
REMARK  status: ('A' for Active; 'I' for Inactive)
REMARK    1  A    between atoms: C_1  and  C_2
REMARK    2  A    between atoms: C_2  and  N_3
REMARK    3  A    between atoms: N_6  and  N_7
REMARK    4  A    between atoms: C_8  and  C_10
REMARK    5  A    between atoms: C_10  and  S_11
REMARK    6  A    between atoms: S_11  and  C_12
REMARK    7  A    between atoms: C_12  and  C_13
REMARK                            x       y       z     vdW  Elec       q    Type
REMARK                         _______ _______ _______ _____ _____    ______ ____
ROOT
ATOM      1  N   UNL     1      -3.942  -1.410   0.032  0.00  0.00    -0.233 N 
ATOM      2  C   UNL     1      -5.207  -1.877   0.042  0.00  0.00    +0.239 C 
ATOM      3  O   UNL     1      -5.412  -3.072   0.037  0.00  0.00    -0.273 OA
ATOM      4  H   UNL     1      -3.778  -0.454   0.036  0.00  0.00    +0.173 HD
ENDROOT
BRANCH   1   8
ATOM      5  N   UNL     1      -1.372  -0.511   0.012  0.00  0.00    -0.298 N 
ATOM      6  C   UNL     1      -1.601  -1.839   0.007  0.00  0.00    +0.316 C 
ATOM      7  O   UNL     1      -0.666  -2.617  -0.006  0.00  0.00    -0.251 OA
ATOM      8  N   UNL     1      -2.865  -2.306   0.017  0.00  0.00    -0.218 N 
ATOM      9  H   UNL     1      -2.118   0.109   0.023  0.00  0.00    +0.150 HD
ATOM     10  H   UNL     1      -3.029  -3.262   0.013  0.00  0.00    +0.174 HD
BRANCH   5  12
ATOM     11  C   UNL     1      -0.019   1.526   0.010  0.00  0.00    +0.024 C 
ATOM     12  C   UNL     1       0.002  -0.004   0.002  0.00  0.00    +0.102 C 
ENDBRANCH   5  12
ENDBRANCH   1   8
BRANCH   2  13
ATOM     13  C   UNL     1      -6.365  -0.913   0.058  0.00  0.00    +0.166 C 
BRANCH  13  14
ATOM     14  S   UNL     1      -7.923  -1.841   0.068  0.00  0.00    -0.147 S 
BRANCH  14  15
ATOM     15  C   UNL     1      -9.201  -0.554   0.087  0.00  0.00    +0.107 C 
BRANCH  15  16
ATOM     16  C   UNL     1     -10.563  -1.198   0.097  0.00  0.00    -0.002 A 
ATOM     17  C   UNL     1     -11.197  -1.492  -1.096  0.00  0.00    +0.008 A 
ATOM     18  C   UNL     1     -12.446  -2.083  -1.088  0.00  0.00    +0.016 A 
ATOM     19  C   UNL     1     -13.064  -2.381   0.114  0.00  0.00    +0.021 A 
ATOM     20  C   UNL     1     -12.432  -2.087   1.308  0.00  0.00    +0.054 A 
ATOM     21  C   UNL     1     -11.178  -1.500   1.300  0.00  0.00    +0.128 A 
ATOM     22  F   UNL     1     -10.557  -1.218   2.466  0.00  0.00    -0.205 F 
ATOM     23 BR   UNL     1     -14.774  -3.189   0.123  0.00  0.00    -0.050 Br
ENDBRANCH  15  16
ENDBRANCH  14  15
ENDBRANCH  13  14
ENDBRANCH   2  13
TORSDOF 6
