REMARK  Name = ZINC66954343
REMARK  10 active torsions:
REMARK  status: ('A' for Active; 'I' for Inactive)
REMARK    1  A    between atoms: C_1  and  C_2
REMARK    2  A    between atoms: C_2  and  C_4
REMARK    3  A    between atoms: C_2  and  S_7
REMARK    4  A    between atoms: C_4  and  C_5
REMARK    5  A    between atoms: S_7  and  C_8
REMARK    6  A    between atoms: C_13  and  N_14
REMARK    7  A    between atoms: N_17  and  C_18
REMARK    8  A    between atoms: C_18  and  C_19
REMARK    9  A    between atoms: C_19  and  C_21
REMARK   10  A    between atoms: C_19  and  O_27
REMARK                            x       y       z     vdW  Elec       q    Type
REMARK                         _______ _______ _______ _____ _____    ______ ____
ROOT
ATOM      1  N   UNL     1      -4.438  -1.165  -0.532  0.00  0.00    -0.268 N 
ATOM      2  C   UNL     1      -5.765  -1.380  -0.626  0.00  0.00    +0.304 C 
ATOM      3  O   UNL     1      -6.355  -1.102  -1.652  0.00  0.00    -0.253 OA
ATOM      4  N   UNL     1      -6.439  -1.904   0.417  0.00  0.00    -0.297 N 
ATOM      5  H   UNL     1      -3.953  -1.462   0.254  0.00  0.00    +0.156 HD
ATOM      6  H   UNL     1      -5.968  -2.126   1.236  0.00  0.00    +0.150 HD
ENDROOT
BRANCH   1  12
ATOM      7  C   UNL     1      -2.391  -0.719  -1.749  0.00  0.00    +0.029 A 
ATOM      8  C   UNL     1      -1.725  -0.074  -2.782  0.00  0.00    +0.016 A 
ATOM      9  C   UNL     1      -2.417   0.775  -3.625  0.00  0.00    +0.001 A 
ATOM     10  C   UNL     1      -3.771   0.985  -3.443  0.00  0.00    +0.002 A 
ATOM     11  C   UNL     1      -4.442   0.347  -2.416  0.00  0.00    +0.024 A 
ATOM     12  C   UNL     1      -3.759  -0.512  -1.569  0.00  0.00    +0.048 A 
BRANCH   7  13
ATOM     13  S   UNL     1      -1.512  -1.803  -0.673  0.00  0.00    -0.119 S 
BRANCH  13  15
ATOM     14  C   UNL     1       0.730  -0.241  -0.790  0.00  0.00    +0.020 C 
ATOM     15  C   UNL     1       0.218  -1.627  -1.189  0.00  0.00    +0.062 C 
BRANCH  15  16
ATOM     16  C   UNL     1       1.066  -2.700  -0.505  0.00  0.00    +0.132 C 
BRANCH  16  17
ATOM     17  C   UNL     1       0.652  -4.030  -0.980  0.00  0.00    +0.064 C 
ATOM     18  N   UNL     1       0.332  -5.057  -1.347  0.00  0.00    -0.197 NA
ENDBRANCH  16  17
ENDBRANCH  15  16
ENDBRANCH  13  15
ENDBRANCH   7  13
ENDBRANCH   1  12
BRANCH   4  19
ATOM     19  C   UNL     1      -7.881  -2.138   0.315  0.00  0.00    +0.137 C 
BRANCH  19  20
ATOM     20  C   UNL     1      -8.396  -2.734   1.627  0.00  0.00    +0.135 C 
BRANCH  20  21
ATOM     21  C   UNL     1      -9.903  -2.978   1.519  0.00  0.00    +0.019 C 
ATOM     22  C   UNL     1     -10.172  -4.046   0.457  0.00  0.00    +0.006 C 
ATOM     23  C   UNL     1     -11.678  -4.290   0.350  0.00  0.00    +0.000 C 
ATOM     24  C   UNL     1     -12.215  -4.768   1.701  0.00  0.00    +0.000 C 
ATOM     25  C   UNL     1     -11.946  -3.700   2.763  0.00  0.00    +0.000 C 
ATOM     26  C   UNL     1     -10.439  -3.456   2.870  0.00  0.00    +0.006 C 
ENDBRANCH  20  21
BRANCH  20  27
ATOM     27  O   UNL     1      -7.729  -3.972   1.881  0.00  0.00    -0.390 OA
ATOM     28  H   UNL     1      -7.862  -4.639   1.194  0.00  0.00    +0.210 HD
ENDBRANCH  20  27
ENDBRANCH  19  20
ENDBRANCH   4  19
TORSDOF 9
