REMARK  Name = ZINC03361197
REMARK  8 active torsions:
REMARK  status: ('A' for Active; 'I' for Inactive)
REMARK    1  A    between atoms: C_1  and  C_2
REMARK    2  A    between atoms: C_14  and  C_15
REMARK    3  A    between atoms: C_15  and  O_17
REMARK    4  A    between atoms: O_17  and  C_18
REMARK    5  A    between atoms: C_18  and  C_19
REMARK    6  A    between atoms: N_21  and  C_22
REMARK    7  A    between atoms: C_23  and  C_33
REMARK    8  A    between atoms: C_28  and  C_32
REMARK                            x       y       z     vdW  Elec       q    Type
REMARK                         _______ _______ _______ _____ _____    ______ ____
ROOT
ATOM      1  O   UNL     1       2.477   8.680   0.029  0.00  0.00    -0.450 OA
ENDROOT
BRANCH   1   2
ATOM      2  C   UNL     1       1.128   8.691   0.042  0.00  0.00    +0.376 C 
ATOM      3  O   UNL     1       0.528   9.748   0.055  0.00  0.00    -0.241 OA
BRANCH   2  17
ATOM      4  C   UNL     1      -1.969   8.437   0.070  0.00  0.00    +0.048 C 
ATOM      5  C   UNL     1      -0.970   7.309   0.053  0.00  0.00    +0.010 A 
ATOM      6  C   UNL     1      -1.263   5.922   0.047  0.00  0.00    +0.025 A 
ATOM      7  C   UNL     1      -2.468   5.190   0.054  0.00  0.00    +0.012 A 
ATOM      8  C   UNL     1      -2.456   3.837   0.046  0.00  0.00    +0.009 A 
ATOM      9  C   UNL     1      -1.232   3.135   0.030  0.00  0.00    -0.014 A 
ATOM     10  C   UNL     1      -1.207   1.731   0.017  0.00  0.00    +0.008 A 
ATOM     11  C   UNL     1      -0.013   1.076   0.008  0.00  0.00    +0.001 A 
ATOM     12  C   UNL     1       1.189   1.778   0.000  0.00  0.00    +0.001 A 
ATOM     13  C   UNL     1       1.202   3.141   0.007  0.00  0.00    +0.012 A 
ATOM     14  C   UNL     1      -0.009   3.848   0.022  0.00  0.00    +0.025 A 
ATOM     15  C   UNL     1      -0.031   5.260   0.030  0.00  0.00    +0.144 A 
ATOM     16  O   UNL     1       0.937   6.194   0.028  0.00  0.00    -0.447 OA
ATOM     17  C   UNL     1       0.385   7.426   0.041  0.00  0.00    +0.216 A 
ENDBRANCH   2  17
ENDBRANCH   1   2
BRANCH   1  18
ATOM     18  C   UNL     1       3.146   9.969   0.031  0.00  0.00    +0.328 C 
BRANCH  18  19
ATOM     19  C   UNL     1       4.638   9.760   0.015  0.00  0.00    +0.255 C 
ATOM     20  O   UNL     1       5.093   8.636   0.003  0.00  0.00    -0.272 OA
ATOM     21  N   UNL     1       5.468  10.822   0.014  0.00  0.00    -0.276 N 
ATOM     22  H   UNL     1       5.104  11.722   0.024  0.00  0.00    +0.155 HD
BRANCH  21  23
ATOM     23  C   UNL     1       6.842  10.630  -0.000  0.00  0.00    +0.090 A 
ATOM     24  C   UNL     1       7.846  11.587  -0.004  0.00  0.00    +0.084 A 
ATOM     25  C   UNL     1       9.221  11.118  -0.020  0.00  0.00    -0.018 A 
ATOM     26  C   UNL     1       9.371   9.775  -0.030  0.00  0.00    -0.004 A 
ATOM     27  S   UNL     1       7.720   9.136  -0.011  0.00  0.00    -0.077 S 
ATOM     28  C   UNL     1      10.658   9.010  -0.047  0.00  0.00    +0.046 C 
ATOM     29  C   UNL     1      11.796   9.971   0.327  0.00  0.00    -0.009 C 
ATOM     30  C   UNL     1      11.652  11.252  -0.500  0.00  0.00    +0.008 C 
ATOM     31  C   UNL     1      10.432  12.043  -0.027  0.00  0.00    +0.037 C 
ATOM     32  C   UNL     1      13.145   9.315   0.025  0.00  0.00    +0.008 C 
BRANCH  24  33
ATOM     33  C   UNL     1       7.539  12.985   0.008  0.00  0.00    +0.102 C 
ATOM     34  N   UNL     1       7.295  14.095   0.018  0.00  0.00    -0.191 NA
ENDBRANCH  24  33
ENDBRANCH  21  23
ENDBRANCH  18  19
ENDBRANCH   1  18
TORSDOF 6
