REMARK  Name = ZINC21727691
REMARK  9 active torsions:
REMARK  status: ('A' for Active; 'I' for Inactive)
REMARK    1  A    between atoms: C_1  and  N_2
REMARK    2  A    between atoms: N_11  and  C_23
REMARK    3  A    between atoms: N_17  and  C_20
REMARK    4  A    between atoms: C_20  and  C_21
REMARK    5  A    between atoms: C_21  and  O_22
REMARK    6  A    between atoms: C_23  and  C_24
REMARK    7  A    between atoms: C_24  and  C_25
REMARK    8  A    between atoms: C_25  and  S_26
REMARK    9  A    between atoms: S_26  and  C_27
REMARK                            x       y       z     vdW  Elec       q    Type
REMARK                         _______ _______ _______ _____ _____    ______ ____
ROOT
ATOM      1  C   UNL     1      -6.417  10.356  -1.127  0.00  0.00    +0.155 C 
ATOM      2  N   UNL     1      -5.459   9.351  -1.595  0.00  0.00    -0.280 N 
ATOM      3  C   UNL     1      -4.626   8.714  -0.690  0.00  0.00    +0.170 A 
ATOM      4  C   UNL     1      -3.723   7.768  -1.161  0.00  0.00    +0.153 A 
ATOM      5  C   UNL     1      -3.679   7.487  -2.538  0.00  0.00    +0.280 A 
ATOM      6  O   UNL     1      -2.897   6.660  -2.974  0.00  0.00    -0.265 OA
ATOM      7  N   UNL     1      -4.511   8.143  -3.373  0.00  0.00    -0.273 N 
ATOM      8  H   UNL     1      -4.487   7.933  -4.452  0.00  0.00    +0.173 HD
ATOM      9  C   UNL     1      -5.379   9.058  -2.907  0.00  0.00    +0.331 A 
ATOM     10  O   UNL     1      -6.114   9.630  -3.688  0.00  0.00    -0.246 OA
ATOM     11  N   UNL     1      -3.034   7.298  -0.051  0.00  0.00    -0.306 N 
ATOM     12  C   UNL     1      -3.526   7.965   1.026  0.00  0.00    +0.201 A 
ATOM     13  N   UNL     1      -4.467   8.799   0.632  0.00  0.00    -0.196 NA
ATOM     14  N   UNL     1      -3.106   7.796   2.326  0.00  0.00    -0.298 N 
ATOM     15  C   UNL     1      -4.208   7.329   3.178  0.00  0.00    +0.123 C 
ATOM     16  C   UNL     1      -3.683   7.077   4.594  0.00  0.00    +0.103 C 
ATOM     17  N   UNL     1      -3.100   8.318   5.124  0.00  0.00    -0.297 NA
ATOM     18  C   UNL     1      -1.998   8.784   4.272  0.00  0.00    +0.103 C 
ATOM     19  C   UNL     1      -2.522   9.036   2.856  0.00  0.00    +0.123 C 
ENDROOT
BRANCH  17  20
ATOM     20  C   UNL     1      -2.652   8.137   6.512  0.00  0.00    +0.112 C 
BRANCH  20  21
ATOM     21  C   UNL     1      -2.511   9.504   7.184  0.00  0.00    +0.171 C 
BRANCH  21  22
ATOM     22  O   UNL     1      -3.792  10.133   7.258  0.00  0.00    -0.394 OA
ATOM     23  H   UNL     1      -3.890  11.130   7.713  0.00  0.00    +0.209 HD
ENDBRANCH  21  22
ENDBRANCH  20  21
ENDBRANCH  17  20
BRANCH  11  24
ATOM     24  C   UNL     1      -1.976   6.284  -0.044  0.00  0.00    +0.126 C 
BRANCH  24  25
ATOM     25  C   UNL     1      -2.602   4.896   0.104  0.00  0.00    +0.033 C 
BRANCH  25  26
ATOM     26  C   UNL     1      -1.506   3.831   0.024  0.00  0.00    +0.081 C 
BRANCH  26  27
ATOM     27  S   UNL     1      -2.246   2.189   0.199  0.00  0.00    -0.067 S 
BRANCH  27  28
ATOM     28  C   UNL     1      -0.802   1.187   0.073  0.00  0.00    +0.258 A 
ATOM     29  N   UNL     1       0.413   1.641  -0.106  0.00  0.00    -0.203 NA
ATOM     30  C   UNL     1       1.270   0.585  -0.161  0.00  0.00    +0.110 A 
ATOM     31  C   UNL     1       2.651   0.473  -0.331  0.00  0.00    +0.031 A 
ATOM     32  C   UNL     1       3.239  -0.773  -0.343  0.00  0.00    +0.002 A 
ATOM     33  C   UNL     1       2.467  -1.914  -0.186  0.00  0.00    +0.004 A 
ATOM     34  C   UNL     1       1.100  -1.817  -0.016  0.00  0.00    +0.048 A 
ATOM     35  C   UNL     1       0.493  -0.572  -0.003  0.00  0.00    +0.156 A 
ATOM     36  O   UNL     1      -0.787  -0.156   0.140  0.00  0.00    -0.431 OA
ENDBRANCH  27  28
ENDBRANCH  26  27
ENDBRANCH  25  26
ENDBRANCH  24  25
ENDBRANCH  11  24
TORSDOF 8
