REMARK  Name = ZINC23054929
REMARK  6 active torsions:
REMARK  status: ('A' for Active; 'I' for Inactive)
REMARK    1  A    between atoms: C_7  and  C_20
REMARK    2  A    between atoms: C_12  and  C_13
REMARK    3  A    between atoms: C_20  and  O_22
REMARK    4  A    between atoms: O_22  and  C_23
REMARK    5  A    between atoms: C_23  and  C_24
REMARK    6  A    between atoms: C_24  and  C_26
REMARK                            x       y       z     vdW  Elec       q    Type
REMARK                         _______ _______ _______ _____ _____    ______ ____
ROOT
ATOM      1  C   UNL     1       1.191   1.777   0.000  0.00  0.00    +0.001 A 
ATOM      2  C   UNL     1      -0.013   1.076   0.008  0.00  0.00    +0.002 A 
ATOM      3  C   UNL     1      -1.207   1.729   0.017  0.00  0.00    +0.028 A 
ATOM      4  C   UNL     1      -1.233   3.136   0.031  0.00  0.00    +0.072 A 
ATOM      5  C   UNL     1      -0.004   3.843   0.022  0.00  0.00    +0.015 A 
ATOM      6  C   UNL     1       1.204   3.141   0.007  0.00  0.00    +0.011 A 
ATOM      7  C   UNL     1      -0.042   5.306   0.029  0.00  0.00    +0.073 A 
ATOM      8  C   UNL     1      -1.287   5.916   0.044  0.00  0.00    -0.007 A 
ATOM      9  C   UNL     1      -2.453   5.131   0.052  0.00  0.00    +0.072 A 
ATOM     10  N   UNL     1      -2.385   3.802   0.045  0.00  0.00    -0.247 NA
ATOM     11  C   UNL     1      -3.646   5.995   0.067  0.00  0.00    -0.020 C 
ATOM     12  C   UNL     1      -4.928   5.571   0.077  0.00  0.00    +0.020 C 
ATOM     13  C   UNL     1      -3.192   7.433   0.069  0.00  0.00    +0.042 C 
ATOM     14  C   UNL     1      -1.658   7.379   0.054  0.00  0.00    +0.043 C 
ENDROOT
BRANCH  12  15
ATOM     15  C   UNL     1      -6.020   6.545   0.091  0.00  0.00    +0.013 A 
ATOM     16  C   UNL     1      -7.389   6.323   0.102  0.00  0.00    +0.015 A 
ATOM     17  C   UNL     1      -8.226   7.412   0.115  0.00  0.00    +0.008 A 
ATOM     18  C   UNL     1      -7.692   8.663   0.116  0.00  0.00    +0.046 A 
ATOM     19  S   UNL     1      -5.939   8.328   0.105  0.00  0.00    -0.097 S 
ENDBRANCH  12  15
BRANCH   7  20
ATOM     20  C   UNL     1       1.202   6.104   0.022  0.00  0.00    +0.341 C 
ATOM     21  O   UNL     1       1.704   6.437  -1.033  0.00  0.00    -0.245 OA
BRANCH  20  22
ATOM     22  O   UNL     1       1.780   6.463   1.185  0.00  0.00    -0.453 OA
BRANCH  22  23
ATOM     23  C   UNL     1       3.000   7.246   1.101  0.00  0.00    +0.311 C 
BRANCH  23  24
ATOM     24  C   UNL     1       3.497   7.551   2.491  0.00  0.00    +0.200 C 
ATOM     25  O   UNL     1       2.884   7.147   3.457  0.00  0.00    -0.288 OA
BRANCH  24  26
ATOM     26  C   UNL     1       4.724   8.336   2.676  0.00  0.00    +0.023 A 
ATOM     27  C   UNL     1       5.434   8.803   1.562  0.00  0.00    +0.015 A 
ATOM     28  C   UNL     1       6.584   9.539   1.736  0.00  0.00    +0.048 A 
ATOM     29  C   UNL     1       7.044   9.822   3.014  0.00  0.00    +0.142 A 
ATOM     30  C   UNL     1       6.341   9.360   4.131  0.00  0.00    +0.076 A 
ATOM     31  C   UNL     1       5.185   8.625   3.967  0.00  0.00    +0.038 A 
ATOM     32  N   UNL     1       6.824   9.655   5.414  0.00  0.00    -0.280 N 
ATOM     33  C   UNL     1       7.752  10.627   5.557  0.00  0.00    +0.255 C 
ATOM     34  O   UNL     1       8.205  10.881   6.653  0.00  0.00    -0.272 OA
ATOM     35  C   UNL     1       8.221  11.395   4.347  0.00  0.00    +0.325 C 
ATOM     36  O   UNL     1       8.176  10.551   3.194  0.00  0.00    -0.481 OA
ATOM     37  H   UNL     1       6.447   9.099   6.285  0.00  0.00    +0.155 HD
ENDBRANCH  24  26
ENDBRANCH  23  24
ENDBRANCH  22  23
ENDBRANCH  20  22
ENDBRANCH   7  20
TORSDOF 6
