REMARK  Name = ZINC28461592
REMARK  12 active torsions:
REMARK  status: ('A' for Active; 'I' for Inactive)
REMARK    1  A    between atoms: C_1  and  C_2
REMARK    2  A    between atoms: C_2  and  C_3
REMARK    3  A    between atoms: C_2  and  C_4
REMARK    4  A    between atoms: C_2  and  C_5
REMARK    5  A    between atoms: C_8  and  C_11
REMARK    6  A    between atoms: C_11  and  N_12
REMARK    7  A    between atoms: N_12  and  C_13
REMARK    8  A    between atoms: C_13  and  N_14
REMARK    9  A    between atoms: N_14  and  C_15
REMARK   10  A    between atoms: C_15  and  C_16
REMARK   11  A    between atoms: N_22  and  S_23
REMARK   12  A    between atoms: S_23  and  C_26
REMARK                            x       y       z     vdW  Elec       q    Type
REMARK                         _______ _______ _______ _____ _____    ______ ____
ROOT
ATOM      1  C   UNL     1       3.067  -1.125  -7.045  0.00  0.00    +0.131 C 
ATOM      2  S   UNL     1       3.979  -2.547  -7.319  0.00  0.00    -0.019 S 
ENDROOT
BRANCH   1   3
ATOM      3  N   UNL     1       2.520  -0.898  -5.833  0.00  0.00    -0.322 N 
ATOM      4  H   UNL     1       2.003  -0.092  -5.678  0.00  0.00    +0.148 HD
BRANCH   3   5
ATOM      5  C   UNL     1       2.707  -1.868  -4.752  0.00  0.00    +0.138 C 
BRANCH   5   9
ATOM      6  C   UNL     1       0.707  -0.490  -1.238  0.00  0.00    -0.042 A 
ATOM      7  C   UNL     1       0.036  -1.284  -2.148  0.00  0.00    +0.004 A 
ATOM      8  C   UNL     1       0.683  -1.730  -3.286  0.00  0.00    +0.005 A 
ATOM      9  C   UNL     1       2.001  -1.381  -3.513  0.00  0.00    -0.030 A 
ATOM     10  C   UNL     1       2.672  -0.586  -2.603  0.00  0.00    +0.005 A 
ATOM     11  C   UNL     1       2.024  -0.137  -1.467  0.00  0.00    +0.004 A 
BRANCH   6  13
ATOM     12  C   UNL     1      -0.019   1.526   0.010  0.00  0.00    +0.015 C 
ATOM     13  C   UNL     1       0.002  -0.004   0.002  0.00  0.00    -0.013 C 
ATOM     14  C   UNL     1       0.742  -0.511   1.242  0.00  0.00    +0.015 C 
ATOM     15  C   UNL     1      -1.433  -0.534   0.013  0.00  0.00    +0.015 C 
ENDBRANCH   6  13
ENDBRANCH   5   9
ENDBRANCH   3   5
ENDBRANCH   1   3
BRANCH   1  16
ATOM     16  N   UNL     1       2.895  -0.232  -8.039  0.00  0.00    -0.322 N 
ATOM     17  H   UNL     1       2.378   0.574  -7.884  0.00  0.00    +0.148 HD
BRANCH  16  18
ATOM     18  C   UNL     1       3.489  -0.478  -9.356  0.00  0.00    +0.140 C 
BRANCH  18  19
ATOM     19  C   UNL     1       3.150   0.662 -10.281  0.00  0.00    -0.014 A 
ATOM     20  C   UNL     1       1.927   0.660 -10.974  0.00  0.00    +0.010 A 
ATOM     21  C   UNL     1       1.625   1.690 -11.807  0.00  0.00    +0.048 A 
ATOM     22  C   UNL     1       2.551   2.749 -11.963  0.00  0.00    +0.152 A 
ATOM     23  N   UNL     1       3.737   2.720 -11.271  0.00  0.00    -0.345 N 
ATOM     24  C   UNL     1       4.021   1.682 -10.435  0.00  0.00    +0.089 A 
ATOM     25  N   UNL     1       2.277   3.755 -12.767  0.00  0.00    -0.116 NA
ATOM     26  H   UNL     1       4.375   3.444 -11.375  0.00  0.00    +0.167 HD
BRANCH  25  27
ATOM     27  S   UNL     1       3.364   4.992 -12.945  0.00  0.00    +0.068 S 
ATOM     28  O   UNL     1       3.443   5.593 -11.660  0.00  0.00    -0.152 OA
ATOM     29  O   UNL     1       4.507   4.388 -13.534  0.00  0.00    -0.152 OA
ATOM     30  C   UNL     1       2.584   6.132 -14.121  0.00  0.00    +0.223 C 
ENDBRANCH  25  27
ENDBRANCH  18  19
ENDBRANCH  16  18
ENDBRANCH   1  16
TORSDOF 8
