REMARK  Name = ZINC36374959
REMARK  8 active torsions:
REMARK  status: ('A' for Active; 'I' for Inactive)
REMARK    1  A    between atoms: C_1  and  C_2
REMARK    2  A    between atoms: C_2  and  C_3
REMARK    3  A    between atoms: C_2  and  C_4
REMARK    4  A    between atoms: C_2  and  O_29
REMARK    5  A    between atoms: C_6  and  O_28
REMARK    6  A    between atoms: C_13  and  O_14
REMARK    7  A    between atoms: C_17  and  C_20
REMARK    8  A    between atoms: C_23  and  O_26
REMARK                            x       y       z     vdW  Elec       q    Type
REMARK                         _______ _______ _______ _____ _____    ______ ____
ROOT
ATOM      1  C   UNL     1      -1.413  -0.529  -0.246  0.00  0.00    +0.237 C 
ATOM      2  C   UNL     1      -1.494  -2.046   0.044  0.00  0.00    +0.195 C 
ATOM      3  C   UNL     1      -2.880  -2.176   0.644  0.00  0.00    +0.068 A 
ATOM      4  C   UNL     1      -3.298  -0.893   0.991  0.00  0.00    +0.134 A 
ATOM      5  C   UNL     1      -4.553  -0.710   1.563  0.00  0.00    +0.093 A 
ATOM      6  C   UNL     1      -5.387  -1.793   1.794  0.00  0.00    +0.145 A 
ATOM      7  C   UNL     1      -4.954  -3.083   1.438  0.00  0.00    +0.106 A 
ATOM      8  C   UNL     1      -3.690  -3.270   0.866  0.00  0.00    +0.140 A 
ATOM      9  C   UNL     1      -5.867  -4.213   1.679  0.00  0.00    +0.204 A 
ATOM     10  O   UNL     1      -5.493  -5.372   1.610  0.00  0.00    -0.286 OA
ATOM     11  C   UNL     1      -7.261  -3.859   2.009  0.00  0.00    +0.064 A 
ATOM     12  C   UNL     1      -7.536  -2.566   2.321  0.00  0.00    +0.208 A 
ATOM     13  O   UNL     1      -6.599  -1.616   2.356  0.00  0.00    -0.462 OA
ATOM     14  O   UNL     1      -2.338   0.031   0.701  0.00  0.00    -0.482 OA
ENDROOT
BRANCH  11  15
ATOM     15  C   UNL     1      -8.332  -4.886   1.998  0.00  0.00    -0.011 A 
ATOM     16  C   UNL     1      -8.303  -5.934   2.917  0.00  0.00    +0.012 A 
ATOM     17  C   UNL     1      -9.300  -6.887   2.905  0.00  0.00    +0.046 A 
ATOM     18  C   UNL     1     -10.332  -6.802   1.980  0.00  0.00    +0.117 A 
ATOM     19  C   UNL     1     -10.363  -5.760   1.064  0.00  0.00    +0.046 A 
ATOM     20  C   UNL     1      -9.372  -4.801   1.075  0.00  0.00    +0.012 A 
BRANCH  18  21
ATOM     21  O   UNL     1     -11.313  -7.743   1.971  0.00  0.00    -0.507 OA
ATOM     22  H   UNL     1     -12.067  -7.530   2.538  0.00  0.00    +0.292 HD
ENDBRANCH  18  21
ENDBRANCH  11  15
BRANCH   1  24
ATOM     23  C   UNL     1       0.964  -0.634  -1.007  0.00  0.00    +0.045 C 
ATOM     24  C   UNL     1       0.002  -0.004   0.002  0.00  0.00    +0.100 C 
ATOM     25  C   UNL     1       0.018   1.517  -0.160  0.00  0.00    +0.045 C 
BRANCH  24  26
ATOM     26  O   UNL     1       0.411  -0.346   1.328  0.00  0.00    -0.385 OA
ATOM     27  H   UNL     1       1.301  -0.044   1.555  0.00  0.00    +0.210 HD
ENDBRANCH  24  26
ENDBRANCH   1  24
BRANCH   8  28
ATOM     28  O   UNL     1      -3.265  -4.515   0.533  0.00  0.00    -0.505 OA
ATOM     29  H   UNL     1      -2.792  -4.972   1.242  0.00  0.00    +0.292 HD
ENDBRANCH   8  28
BRANCH   2  30
ATOM     30  O   UNL     1      -1.385  -2.804  -1.162  0.00  0.00    -0.383 OA
ATOM     31  H   UNL     1      -1.430  -3.761  -1.031  0.00  0.00    +0.210 HD
ENDBRANCH   2  30
TORSDOF 6
