REMARK  Name = ZINC04504184
REMARK  7 active torsions:
REMARK  status: ('A' for Active; 'I' for Inactive)
REMARK    1  A    between atoms: C_1  and  C_2
REMARK    2  A    between atoms: C_3  and  C_7
REMARK    3  A    between atoms: N_9  and  N_10
REMARK    4  A    between atoms: C_11  and  C_12
REMARK    5  A    between atoms: C_14  and  C_19
REMARK    6  A    between atoms: C_17  and  O_18
REMARK    7  A    between atoms: C_19  and  C_20
REMARK                            x       y       z     vdW  Elec       q    Type
REMARK                         _______ _______ _______ _____ _____    ______ ____
ROOT
ATOM      1  C   UNL     1       0.002  -0.004   0.002  0.00  0.00    +0.036 A 
ATOM      2  C   UNL     1       1.225  -0.678  -0.013  0.00  0.00    +0.017 A 
ATOM      3  C   UNL     1       2.404   0.038  -0.021  0.00  0.00    -0.042 A 
ATOM      4  C   UNL     1       2.381   1.422  -0.013  0.00  0.00    +0.007 A 
ATOM      5  C   UNL     1       1.177   2.100   0.002  0.00  0.00    +0.046 A 
ATOM      6  C   UNL     1      -0.017   1.397   0.010  0.00  0.00    +0.125 A 
ENDROOT
BRANCH   1   8
ATOM      7  N   UNL     1      -2.397  -0.132   0.025  0.00  0.00    -0.187 NA
ATOM      8  C   UNL     1      -1.262  -0.762   0.011  0.00  0.00    +0.142 C 
BRANCH   7  11
ATOM      9  C   UNL     1      -4.776  -0.199   0.048  0.00  0.00    +0.267 C 
ATOM     10  O   UNL     1      -4.796   1.017   0.055  0.00  0.00    -0.268 OA
ATOM     11  N   UNL     1      -3.598  -0.853   0.033  0.00  0.00    -0.203 N 
ATOM     12  H   UNL     1      -3.581  -1.823   0.028  0.00  0.00    +0.178 HD
BRANCH   9  15
ATOM     13  C   UNL     1      -7.670   1.013   0.084  0.00  0.00    +0.087 C 
ATOM     14  C   UNL     1      -7.306  -0.450   0.072  0.00  0.00    +0.114 A 
ATOM     15  C   UNL     1      -6.040  -0.957   0.057  0.00  0.00    +0.079 A 
ATOM     16  C   UNL     1      -6.199  -2.419   0.044  0.00  0.00    +0.054 A 
ATOM     17  C   UNL     1      -7.521  -2.646   0.062  0.00  0.00    +0.196 A 
ATOM     18  O   UNL     1      -8.169  -1.470   0.075  0.00  0.00    -0.467 OA
ENDBRANCH   9  15
ENDBRANCH   7  11
ENDBRANCH   1   8
BRANCH   6  19
ATOM     19  O   UNL     1      -1.201   2.063   0.019  0.00  0.00    -0.506 OA
ATOM     20  H   UNL     1      -1.539   2.251   0.905  0.00  0.00    +0.292 HD
ENDBRANCH   6  19
BRANCH   3  21
ATOM     21  C   UNL     1       3.724  -0.690  -0.038  0.00  0.00    +0.071 C 
BRANCH  21  22
ATOM     22  C   UNL     1       4.150  -0.925  -1.464  0.00  0.00    -0.025 A 
ATOM     23  C   UNL     1       3.861  -2.126  -2.083  0.00  0.00    +0.005 A 
ATOM     24  C   UNL     1       4.247  -2.340  -3.393  0.00  0.00    +0.000 A 
ATOM     25  C   UNL     1       4.932  -1.356  -4.081  0.00  0.00    +0.001 A 
ATOM     26  C   UNL     1       5.226  -0.156  -3.462  0.00  0.00    +0.020 A 
ATOM     27  C   UNL     1       4.835   0.060  -2.152  0.00  0.00    +0.044 A 
ATOM     28 CL   UNL     1       5.204   1.567  -1.373  0.00  0.00    -0.083 Cl
ENDBRANCH  21  22
ENDBRANCH   3  21
TORSDOF 6
