REMARK  Name = ZINC08845211
REMARK  12 active torsions:
REMARK  status: ('A' for Active; 'I' for Inactive)
REMARK    1  A    between atoms: C_1  and  C_2
REMARK    2  A    between atoms: C_2  and  O_3
REMARK    3  A    between atoms: O_3  and  C_4
REMARK    4  A    between atoms: C_7  and  C_10
REMARK    5  A    between atoms: C_13  and  C_31
REMARK    6  A    between atoms: N_20  and  C_21
REMARK    7  A    between atoms: C_21  and  C_22
REMARK    8  A    between atoms: C_22  and  C_23
REMARK    9  A    between atoms: C_26  and  O_29
REMARK   10  A    between atoms: O_29  and  C_30
REMARK   11  A    between atoms: C_34  and  C_38
REMARK   12  A    between atoms: C_36  and  O_37
REMARK                            x       y       z     vdW  Elec       q    Type
REMARK                         _______ _______ _______ _____ _____    ______ ____
ROOT
ATOM      1  C   UNL     1      -2.001  -6.092  -0.011  0.00  0.00    +0.141 C 
ATOM      2  C   UNL     1      -2.365  -6.563  -1.393  0.00  0.00    +0.035 A 
ATOM      3  C   UNL     1      -2.015  -6.660  -2.701  0.00  0.00    +0.075 A 
ATOM      4  N   UNL     1      -3.039  -7.306  -3.333  0.00  0.00    -0.276 N 
ATOM      5  H   UNL     1      -3.064  -7.517  -4.280  0.00  0.00    +0.189 HD
ATOM      6  N   UNL     1      -3.963  -7.595  -2.488  0.00  0.00    -0.168 NA
ATOM      7  C   UNL     1      -3.633  -7.177  -1.282  0.00  0.00    +0.153 A 
ATOM      8  C   UNL     1      -4.054  -7.095   0.128  0.00  0.00    +0.268 C 
ATOM      9  O   UNL     1      -5.102  -7.530   0.565  0.00  0.00    -0.268 OA
ATOM     10  N   UNL     1      -3.117  -6.471   0.863  0.00  0.00    -0.285 N 
ENDROOT
BRANCH   3  11
ATOM     11  C   UNL     1      -0.768  -6.162  -3.322  0.00  0.00    +0.043 A 
ATOM     12  C   UNL     1      -0.815  -5.136  -4.264  0.00  0.00    +0.034 A 
ATOM     13  C   UNL     1       0.352  -4.675  -4.840  0.00  0.00    +0.045 A 
ATOM     14  C   UNL     1       1.571  -5.229  -4.484  0.00  0.00    -0.029 A 
ATOM     15  C   UNL     1       1.629  -6.247  -3.551  0.00  0.00    +0.050 A 
ATOM     16  C   UNL     1       0.466  -6.715  -2.961  0.00  0.00    +0.126 A 
ATOM     17  C   UNL     1       2.839  -4.720  -5.119  0.00  0.00    +0.045 C 
ATOM     18 CL   UNL     1       0.292  -3.397  -6.013  0.00  0.00    -0.083 Cl
BRANCH  16  19
ATOM     19  O   UNL     1       0.523  -7.712  -2.040  0.00  0.00    -0.506 OA
ATOM     20  H   UNL     1       0.459  -8.600  -2.416  0.00  0.00    +0.292 HD
ENDBRANCH  16  19
ENDBRANCH   3  11
BRANCH   1  24
ATOM     21  C   UNL     1      -1.498  -1.848   0.006  0.00  0.00    +0.121 A 
ATOM     22  C   UNL     1      -0.388  -2.679  -0.003  0.00  0.00    +0.046 A 
ATOM     23  C   UNL     1      -0.553  -4.051  -0.008  0.00  0.00    +0.009 A 
ATOM     24  C   UNL     1      -1.823  -4.596  -0.005  0.00  0.00    -0.022 A 
ATOM     25  C   UNL     1      -2.932  -3.769   0.004  0.00  0.00    +0.009 A 
ATOM     26  C   UNL     1      -2.772  -2.397   0.016  0.00  0.00    +0.046 A 
BRANCH  21  27
ATOM     27  O   UNL     1      -1.339  -0.499   0.012  0.00  0.00    -0.492 OA
BRANCH  27  29
ATOM     28  C   UNL     1      -0.019   1.526   0.010  0.00  0.00    +0.048 C 
ATOM     29  C   UNL     1       0.002  -0.004   0.002  0.00  0.00    +0.225 C 
ENDBRANCH  27  29
ENDBRANCH  21  27
ENDBRANCH   1  24
BRANCH  10  30
ATOM     30  C   UNL     1      -3.196  -6.212   2.303  0.00  0.00    +0.114 C 
BRANCH  30  31
ATOM     31  C   UNL     1      -3.860  -4.854   2.541  0.00  0.00    +0.054 C 
BRANCH  31  32
ATOM     32  C   UNL     1      -3.941  -4.587   4.022  0.00  0.00    -0.046 A 
ATOM     33  C   UNL     1      -5.049  -5.002   4.738  0.00  0.00    +0.007 A 
ATOM     34  C   UNL     1      -5.126  -4.758   6.096  0.00  0.00    +0.046 A 
ATOM     35  C   UNL     1      -4.090  -4.097   6.741  0.00  0.00    +0.120 A 
ATOM     36  C   UNL     1      -2.979  -3.683   6.020  0.00  0.00    +0.046 A 
ATOM     37  C   UNL     1      -2.905  -3.934   4.663  0.00  0.00    +0.007 A 
BRANCH  35  38
ATOM     38  O   UNL     1      -4.164  -3.856   8.076  0.00  0.00    -0.495 OA
ATOM     39  C   UNL     1      -3.061  -3.171   8.673  0.00  0.00    +0.277 C 
ENDBRANCH  35  38
ENDBRANCH  31  32
ENDBRANCH  30  31
ENDBRANCH  10  30
TORSDOF 9
