REMARK  Name = ZINC03646351
REMARK  5 active torsions:
REMARK  status: ('A' for Active; 'I' for Inactive)
REMARK    1  A    between atoms: C_1  and  O_2
REMARK    2  A    between atoms: O_2  and  C_3
REMARK    3  A    between atoms: C_3  and  C_4
REMARK    4  A    between atoms: C_4  and  N_5
REMARK    5  A    between atoms: C_14  and  C_27
REMARK                            x       y       z     vdW  Elec       q    Type
REMARK                         _______ _______ _______ _____ _____    ______ ____
ROOT
ATOM      1  N   UNL     1      -2.193   1.095   3.594  0.00  0.00    -0.279 N 
ATOM      2  C   UNL     1      -3.228   1.703   2.919  0.00  0.00    +0.116 A 
ATOM      3  C   UNL     1      -4.464   1.133   2.940  0.00  0.00    +0.067 A 
ATOM      4  C   UNL     1      -4.650  -0.065   3.659  0.00  0.00    +0.260 A 
ATOM      5  O   UNL     1      -5.748  -0.593   3.694  0.00  0.00    -0.267 OA
ATOM      6  N   UNL     1      -3.611  -0.624   4.307  0.00  0.00    -0.275 N 
ATOM      7  H   UNL     1      -3.743  -1.475   4.816  0.00  0.00    +0.173 HD
ATOM      8  C   UNL     1      -2.396  -0.047   4.274  0.00  0.00    +0.331 A 
ATOM      9  O   UNL     1      -1.469  -0.565   4.867  0.00  0.00    -0.246 OA
ATOM     10  C   UNL     1      -5.647   1.740   2.229  0.00  0.00    +0.094 C 
ATOM     11  C   UNL     1      -5.169   2.802   1.274  0.00  0.00    +0.034 C 
ATOM     12  C   UNL     1      -3.895   3.308   1.309  0.00  0.00    +0.048 C 
ATOM     13  N   UNL     1      -2.966   2.864   2.224  0.00  0.00    -0.299 N 
ATOM     14  C   UNL     1      -3.754   4.321   0.257  0.00  0.00    +0.007 A 
ATOM     15  C   UNL     1      -2.686   5.120  -0.122  0.00  0.00    +0.010 A 
ATOM     16  C   UNL     1      -2.898   5.996  -1.189  0.00  0.00    +0.001 A 
ATOM     17  C   UNL     1      -4.107   6.070  -1.841  0.00  0.00    +0.001 A 
ATOM     18  C   UNL     1      -5.194   5.271  -1.471  0.00  0.00    +0.012 A 
ATOM     19  C   UNL     1      -4.999   4.401  -0.416  0.00  0.00    +0.031 A 
ATOM     20  C   UNL     1      -5.900   3.426   0.238  0.00  0.00    +0.193 C 
ATOM     21  O   UNL     1      -7.057   3.204  -0.061  0.00  0.00    -0.287 OA
ATOM     22  H   UNL     1      -2.147   3.359   2.378  0.00  0.00    +0.154 HD
ENDROOT
BRANCH  10  23
ATOM     23  C   UNL     1      -6.579   2.357   3.241  0.00  0.00    -0.027 A 
ATOM     24  C   UNL     1      -6.112   3.277   4.129  0.00  0.00    +0.005 A 
ATOM     25  C   UNL     1      -6.958   3.858   5.071  0.00  0.00    +0.001 A 
ATOM     26  C   UNL     1      -8.276   3.523   5.131  0.00  0.00    +0.008 A 
ATOM     27  C   UNL     1      -8.794   2.576   4.231  0.00  0.00    -0.018 A 
ATOM     28  C   UNL     1      -7.934   1.989   3.269  0.00  0.00    -0.014 A 
ATOM     29  C   UNL     1      -8.454   1.047   2.365  0.00  0.00    +0.009 A 
ATOM     30  C   UNL     1      -9.773   0.715   2.422  0.00  0.00    +0.001 A 
ATOM     31  C   UNL     1     -10.619   1.296   3.365  0.00  0.00    +0.001 A 
ATOM     32  C   UNL     1     -10.149   2.205   4.262  0.00  0.00    +0.008 A 
ENDBRANCH  10  23
BRANCH   1  33
ATOM     33  C   UNL     1      -0.860   1.702   3.577  0.00  0.00    +0.156 C 
BRANCH  33  34
ATOM     34  C   UNL     1      -0.065   1.153   2.391  0.00  0.00    +0.181 C 
BRANCH  34  36
ATOM     35  C   UNL     1      -0.016   1.102  -0.005  0.00  0.00    +0.194 C 
ATOM     36  O   UNL     1      -0.684   1.565   1.171  0.00  0.00    -0.381 OA
ENDBRANCH  34  36
ENDBRANCH  33  34
ENDBRANCH   1  33
TORSDOF 4
