REMARK  Name = ZINC63139802
REMARK  7 active torsions:
REMARK  status: ('A' for Active; 'I' for Inactive)
REMARK    1  A    between atoms: C_1  and  C_2
REMARK    2  A    between atoms: C_2  and  C_3
REMARK    3  A    between atoms: C_2  and  C_4
REMARK    4  A    between atoms: C_7  and  C_10
REMARK    5  A    between atoms: N_29  and  C_32
REMARK    6  A    between atoms: C_32  and  C_33
REMARK    7  A    between atoms: C_33  and  C_34
REMARK                            x       y       z     vdW  Elec       q    Type
REMARK                         _______ _______ _______ _____ _____    ______ ____
ROOT
ATOM      1  C   UNL     1       2.797  -1.919   4.683  0.00  0.00    +0.133 C 
ATOM      2  C   UNL     1       3.137  -3.402   4.513  0.00  0.00    +0.131 C 
ATOM      3  C   UNL     1       1.821  -4.165   4.588  0.00  0.00    -0.034 C 
ATOM      4  C   UNL     1       1.738  -4.880   3.472  0.00  0.00    -0.001 A 
ATOM      5  C   UNL     1       0.743  -5.859   3.008  0.00  0.00    +0.010 A 
ATOM      6  C   UNL     1       0.964  -6.405   1.783  0.00  0.00    +0.001 A 
ATOM      7  C   UNL     1       2.062  -6.076   0.982  0.00  0.00    +0.002 A 
ATOM      8  C   UNL     1       3.029  -5.191   1.331  0.00  0.00    +0.026 A 
ATOM      9  C   UNL     1       2.909  -4.555   2.601  0.00  0.00    +0.043 A 
ATOM     10  N   UNL     1       3.705  -3.685   3.194  0.00  0.00    -0.375 N 
ATOM     11  C   UNL     1       0.849  -3.990   5.729  0.00  0.00    +0.065 C 
ATOM     12  C   UNL     1       0.639  -2.474   5.897  0.00  0.00    +0.167 C 
ATOM     13  N   UNL     1       1.929  -1.789   5.875  0.00  0.00    -0.279 N 
ATOM     14  C   UNL     1       2.371  -1.043   6.894  0.00  0.00    +0.234 C 
ATOM     15  O   UNL     1       3.465  -0.532   6.785  0.00  0.00    -0.274 OA
ATOM     16  C   UNL     1       1.612  -0.793   8.155  0.00  0.00    +0.203 C 
ATOM     17  N   UNL     1       0.316  -1.452   8.156  0.00  0.00    -0.291 N 
ATOM     18  C   UNL     1      -0.129  -2.209   7.150  0.00  0.00    +0.237 C 
ATOM     19  O   UNL     1      -1.228  -2.711   7.259  0.00  0.00    -0.274 OA
ATOM     20  H   UNL     1       4.516  -3.296   2.830  0.00  0.00    +0.160 HD
ENDROOT
BRANCH   1  24
ATOM     21  C   UNL     1       0.731  -0.503   1.223  0.00  0.00    -0.045 A 
ATOM     22  C   UNL     1       1.922   0.085   1.606  0.00  0.00    +0.004 A 
ATOM     23  C   UNL     1       2.591  -0.373   2.726  0.00  0.00    +0.006 A 
ATOM     24  C   UNL     1       2.068  -1.419   3.463  0.00  0.00    -0.025 A 
ATOM     25  C   UNL     1       0.877  -2.006   3.080  0.00  0.00    +0.006 A 
ATOM     26  C   UNL     1       0.206  -1.546   1.963  0.00  0.00    +0.004 A 
BRANCH  21  28
ATOM     27  C   UNL     1      -0.351   1.473   0.188  0.00  0.00    +0.012 C 
ATOM     28  C   UNL     1       0.003  -0.004   0.002  0.00  0.00    +0.013 C 
ATOM     29  C   UNL     1       0.899  -0.162  -1.228  0.00  0.00    +0.012 C 
ENDBRANCH  21  28
ENDBRANCH   1  24
BRANCH  17  30
ATOM     30  C   UNL     1      -0.548  -1.278   9.326  0.00  0.00    +0.112 C 
BRANCH  30  31
ATOM     31  C   UNL     1      -1.442  -0.052   9.122  0.00  0.00    +0.049 C 
BRANCH  31  32
ATOM     32  C   UNL     1      -2.331   0.127  10.325  0.00  0.00    -0.072 C 
ATOM     33  C   UNL     1      -1.940   0.941  11.253  0.00  0.00    -0.028 C 
ATOM     34  C   UNL     1      -2.711   1.214  12.511  0.00  0.00    +0.027 C 
ATOM     35  C   UNL     1      -4.162   0.754  12.351  0.00  0.00    +0.004 C 
ATOM     36  C   UNL     1      -4.158  -0.679  11.804  0.00  0.00    +0.005 C 
ATOM     37  C   UNL     1      -3.616  -0.646  10.372  0.00  0.00    +0.030 C 
ENDBRANCH  31  32
ENDBRANCH  30  31
ENDBRANCH  17  30
TORSDOF 5
