REMARK  Name = ZINC07754795
REMARK  3 active torsions:
REMARK  status: ('A' for Active; 'I' for Inactive)
REMARK    1  A    between atoms: C_5  and  C_7
REMARK    2  A    between atoms: N_9  and  N_10
REMARK    3  A    between atoms: C_11  and  C_13
REMARK                            x       y       z     vdW  Elec       q    Type
REMARK                         _______ _______ _______ _____ _____    ______ ____
ROOT
ATOM      1  N   UNL     1       0.121  -4.256  -0.024  0.00  0.00    -0.234 N 
ATOM      2  C   UNL     1      -1.033  -4.952  -0.017  0.00  0.00    +0.236 C 
ATOM      3  O   UNL     1      -2.094  -4.365  -0.003  0.00  0.00    -0.274 OA
ATOM      4  H   UNL     1       0.970  -4.726  -0.035  0.00  0.00    +0.173 HD
ENDROOT
BRANCH   2   5
ATOM      5  C   UNL     1      -1.005  -6.459  -0.026  0.00  0.00    +0.118 C 
ATOM      6  C   UNL     1      -2.436  -7.002  -0.001  0.00  0.00    +0.055 C 
ATOM      7  C   UNL     1      -2.413  -8.481   0.286  0.00  0.00    -0.004 A 
ATOM      8  C   UNL     1      -3.536  -9.236  -0.011  0.00  0.00    +0.027 A 
ATOM      9  C   UNL     1      -3.551 -10.594   0.243  0.00  0.00    +0.041 A 
ATOM     10  C   UNL     1      -2.440 -11.206   0.797  0.00  0.00    +0.023 A 
ATOM     11  C   UNL     1      -1.319 -10.459   1.094  0.00  0.00    +0.047 A 
ATOM     12  C   UNL     1      -1.300  -9.091   0.838  0.00  0.00    +0.124 A 
ATOM     13  O   UNL     1      -0.173  -8.392   1.134  0.00  0.00    -0.491 OA
ATOM     14  C   UNL     1      -0.273  -6.970   1.221  0.00  0.00    +0.242 C 
ATOM     15 CL   UNL     1      -4.962 -11.533  -0.134  0.00  0.00    -0.084 Cl
ENDBRANCH   2   5
BRANCH   1  18
ATOM     16  C   UNL     1       1.250  -2.160  -0.023  0.00  0.00    +0.262 C 
ATOM     17  O   UNL     1       2.313  -2.748  -0.037  0.00  0.00    -0.269 OA
ATOM     18  N   UNL     1       0.095  -2.856  -0.015  0.00  0.00    -0.230 N 
ATOM     19  H   UNL     1      -0.754  -2.386  -0.004  0.00  0.00    +0.173 HD
BRANCH  16  24
ATOM     20  C   UNL     1      -0.017   1.375   0.010  0.00  0.00    +0.001 A 
ATOM     21  C   UNL     1       1.170   2.087   0.002  0.00  0.00    +0.001 A 
ATOM     22  C   UNL     1       2.383   1.423  -0.013  0.00  0.00    +0.021 A 
ATOM     23  C   UNL     1       2.417   0.041  -0.021  0.00  0.00    +0.053 A 
ATOM     24  C   UNL     1       1.222  -0.683  -0.014  0.00  0.00    +0.056 A 
ATOM     25  C   UNL     1       0.002  -0.004   0.002  0.00  0.00    +0.014 A 
ATOM     26 CL   UNL     1       3.940  -0.792  -0.041  0.00  0.00    -0.083 Cl
ENDBRANCH  16  24
ENDBRANCH   1  18
TORSDOF 3
