REMARK  Name = ZINC46038218
REMARK  7 active torsions:
REMARK  status: ('A' for Active; 'I' for Inactive)
REMARK    1  A    between atoms: C_1  and  C_2
REMARK    2  A    between atoms: C_5  and  S_8
REMARK    3  A    between atoms: S_8  and  C_9
REMARK    4  A    between atoms: C_9  and  C_10
REMARK    5  A    between atoms: N_12  and  N_13
REMARK    6  A    between atoms: N_16  and  C_17
REMARK    7  A    between atoms: C_17  and  C_18
REMARK                            x       y       z     vdW  Elec       q    Type
REMARK                         _______ _______ _______ _____ _____    ______ ____
ROOT
ATOM      1  C   UNL     1       0.097  -6.482   1.870  0.00  0.00    +0.239 C 
ATOM      2  O   UNL     1       0.101  -7.180   0.879  0.00  0.00    -0.273 OA
ATOM      3  N   UNL     1       0.110  -7.048   3.093  0.00  0.00    -0.233 N 
ATOM      4  H   UNL     1       0.107  -6.489   3.886  0.00  0.00    +0.173 HD
ENDROOT
BRANCH   3   5
ATOM      5  N   UNL     1       0.129  -8.443   3.219  0.00  0.00    -0.218 N 
ATOM      6  C   UNL     1       0.142  -9.009   4.442  0.00  0.00    +0.316 C 
ATOM      7  O   UNL     1       0.159 -10.220   4.551  0.00  0.00    -0.251 OA
ATOM      8  N   UNL     1       0.138  -8.233   5.544  0.00  0.00    -0.294 N 
ATOM      9  H   UNL     1       0.132  -9.002   2.426  0.00  0.00    +0.174 HD
ATOM     10  H   UNL     1       0.125  -7.267   5.457  0.00  0.00    +0.151 HD
BRANCH   8  11
ATOM     11  C   UNL     1       0.153  -8.849   6.873  0.00  0.00    +0.141 C 
BRANCH  11  12
ATOM     12  C   UNL     1       0.144  -7.771   7.926  0.00  0.00    -0.023 A 
ATOM     13  C   UNL     1       1.331  -7.250   8.406  0.00  0.00    +0.013 A 
ATOM     14  C   UNL     1       1.288  -6.281   9.353  0.00  0.00    +0.045 A 
ATOM     15  S   UNL     1      -0.469  -6.077   9.594  0.00  0.00    -0.105 S 
ATOM     16  C   UNL     1      -1.028  -7.293   8.412  0.00  0.00    +0.050 A 
ENDBRANCH  11  12
ENDBRANCH   8  11
ENDBRANCH   3   5
BRANCH   1  17
ATOM     17  C   UNL     1       0.077  -4.981   1.735  0.00  0.00    +0.171 C 
BRANCH  17  18
ATOM     18  S   UNL     1       0.062  -4.533  -0.023  0.00  0.00    -0.116 S 
BRANCH  18  23
ATOM     19  C   UNL     1      -0.018   1.503   0.010  0.00  0.00    +0.044 C 
ATOM     20  C   UNL     1       0.002  -0.004   0.002  0.00  0.00    -0.050 A 
ATOM     21  C   UNL     1       0.006  -0.687  -1.200  0.00  0.00    +0.004 A 
ATOM     22  C   UNL     1       0.024  -2.068  -1.212  0.00  0.00    +0.015 A 
ATOM     23  C   UNL     1       0.039  -2.771  -0.013  0.00  0.00    +0.008 A 
ATOM     24  C   UNL     1       0.036  -2.081   1.193  0.00  0.00    +0.015 A 
ATOM     25  C   UNL     1       0.023  -0.700   1.197  0.00  0.00    +0.004 A 
ENDBRANCH  18  23
ENDBRANCH  17  18
ENDBRANCH   1  17
TORSDOF 6
