REMARK  Name = ZINC09292219
REMARK  7 active torsions:
REMARK  status: ('A' for Active; 'I' for Inactive)
REMARK    1  A    between atoms: C_1  and  C_2
REMARK    2  A    between atoms: C_10  and  C_18
REMARK    3  A    between atoms: C_25  and  C_28
REMARK    4  A    between atoms: C_30  and  O_36
REMARK    5  A    between atoms: C_33  and  O_34
REMARK    6  A    between atoms: O_34  and  C_35
REMARK    7  A    between atoms: O_36  and  C_37
REMARK                            x       y       z     vdW  Elec       q    Type
REMARK                         _______ _______ _______ _____ _____    ______ ____
ROOT
ATOM      1  C   UNL     1      -0.100   1.872   0.742  0.00  0.00    +0.044 C 
ATOM      2  C   UNL     1      -0.103   0.375   0.570  0.00  0.00    -0.050 A 
ATOM      3  C   UNL     1      -0.173  -0.174  -0.698  0.00  0.00    +0.007 A 
ATOM      4  C   UNL     1      -0.174  -1.545  -0.871  0.00  0.00    +0.046 A 
ATOM      5  C   UNL     1      -0.107  -2.379   0.231  0.00  0.00    +0.131 A 
ATOM      6  C   UNL     1      -0.038  -1.823   1.515  0.00  0.00    +0.043 A 
ATOM      7  C   UNL     1      -0.029  -0.445   1.680  0.00  0.00    +0.017 A 
ATOM      8  C   UNL     1       0.028  -2.745   2.677  0.00  0.00    +0.083 C 
ATOM      9  C   UNL     1      -0.304  -4.036   2.468  0.00  0.00    +0.028 C 
ATOM     10  C   UNL     1      -0.232  -4.987   3.642  0.00  0.00    +0.166 C 
ATOM     11  N   UNL     1       0.200  -4.403   4.920  0.00  0.00    -0.182 N 
ATOM     12  C   UNL     1       0.498  -3.072   4.966  0.00  0.00    +0.209 C 
ATOM     13  N   UNL     1       0.410  -2.306   3.902  0.00  0.00    -0.216 NA
ATOM     14  N   UNL     1       0.864  -2.805   6.260  0.00  0.00    -0.275 N 
ATOM     15  C   UNL     1       0.786  -3.973   6.978  0.00  0.00    +0.208 C 
ATOM     16  N   UNL     1       0.395  -4.929   6.198  0.00  0.00    -0.169 NA
ATOM     17  C   UNL     1      -0.740  -4.503   1.110  0.00  0.00    +0.238 C 
ATOM     18  O   UNL     1      -0.104  -3.729   0.090  0.00  0.00    -0.479 OA
ATOM     19  H   UNL     1       1.132  -1.940   6.607  0.00  0.00    +0.156 HD
ENDROOT
BRANCH  10  20
ATOM     20  C   UNL     1      -1.599  -5.589   3.843  0.00  0.00    +0.014 A 
ATOM     21  C   UNL     1      -2.493  -4.998   4.715  0.00  0.00    +0.009 A 
ATOM     22  C   UNL     1      -3.747  -5.550   4.900  0.00  0.00    +0.001 A 
ATOM     23  C   UNL     1      -4.108  -6.694   4.213  0.00  0.00    +0.003 A 
ATOM     24  C   UNL     1      -3.215  -7.287   3.341  0.00  0.00    +0.039 A 
ATOM     25  C   UNL     1      -1.961  -6.732   3.151  0.00  0.00    +0.129 A 
ATOM     26  F   UNL     1      -1.089  -7.308   2.294  0.00  0.00    -0.205 F 
ENDBRANCH  10  20
BRANCH  17  27
ATOM     27  C   UNL     1      -2.234  -4.351   0.986  0.00  0.00    +0.042 A 
ATOM     28  C   UNL     1      -2.888  -3.358   1.689  0.00  0.00    +0.056 A 
ATOM     29  C   UNL     1      -4.263  -3.219   1.575  0.00  0.00    +0.121 A 
ATOM     30  C   UNL     1      -4.982  -4.076   0.755  0.00  0.00    +0.049 A 
ATOM     31  C   UNL     1      -4.328  -5.069   0.052  0.00  0.00    +0.049 A 
ATOM     32  C   UNL     1      -2.952  -5.205   0.162  0.00  0.00    +0.127 A 
BRANCH  32  33
ATOM     33  O   UNL     1      -2.307  -6.180  -0.534  0.00  0.00    -0.495 OA
ATOM     34  C   UNL     1      -3.090  -6.951  -1.446  0.00  0.00    +0.277 C 
ENDBRANCH  32  33
BRANCH  29  35
ATOM     35  O   UNL     1      -4.907  -2.241   2.267  0.00  0.00    -0.495 OA
ATOM     36  C   UNL     1      -6.324  -2.155   2.102  0.00  0.00    +0.277 C 
ENDBRANCH  29  35
ENDBRANCH  17  27
TORSDOF 4
