REMARK  Name = ZINC20835747
REMARK  12 active torsions:
REMARK  status: ('A' for Active; 'I' for Inactive)
REMARK    1  A    between atoms: C_1  and  C_2
REMARK    2  A    between atoms: C_2  and  C_3
REMARK    3  A    between atoms: C_3  and  C_5
REMARK    4  A    between atoms: C_3  and  C_6
REMARK    5  A    between atoms: C_9  and  N_12
REMARK    6  A    between atoms: C_13  and  C_15
REMARK    7  A    between atoms: C_15  and  C_16
REMARK    8  A    between atoms: C_16  and  S_17
REMARK    9  A    between atoms: S_17  and  C_18
REMARK   10  A    between atoms: N_23  and  N_24
REMARK   11  A    between atoms: C_25  and  C_26
REMARK   12  A    between atoms: C_25  and  C_27
REMARK                            x       y       z     vdW  Elec       q    Type
REMARK                         _______ _______ _______ _____ _____    ______ ____
ROOT
ATOM      1  S   UNL     1       5.138   1.678  -0.204  0.00  0.00    -0.084 S 
ENDROOT
BRANCH   1   2
ATOM      2  C   UNL     1       6.070   3.140  -0.519  0.00  0.00    +0.210 A 
ATOM      3  N   UNL     1       7.432   3.232  -0.555  0.00  0.00    -0.186 NA
ATOM      4  C   UNL     1       7.761   4.530  -0.830  0.00  0.00    +0.232 A 
ATOM      5  N   UNL     1       6.649   5.212  -0.958  0.00  0.00    -0.245 N 
ATOM      6  N   UNL     1       5.577   4.330  -0.767  0.00  0.00    -0.144 NA
ATOM      7  N   UNL     1       9.047   5.037  -0.952  0.00  0.00    -0.205 N 
ATOM      8  H   UNL     1       9.915   4.373  -0.824  0.00  0.00    +0.177 HD
ATOM      9  H   UNL     1       6.686   6.289  -1.179  0.00  0.00    +0.192 HD
BRANCH   7  10
ATOM     10  N   UNL     1       9.241   6.395  -1.237  0.00  0.00    -0.183 NA
ATOM     11  C   UNL     1      10.445   6.870  -1.351  0.00  0.00    +0.081 C 
ATOM     12  C   UNL     1      11.633   5.960  -1.176  0.00  0.00    +0.069 C 
BRANCH  11  13
ATOM     13  C   UNL     1      10.648   8.298  -1.651  0.00  0.00    +0.086 A 
ATOM     14  C   UNL     1       9.542   9.136  -1.818  0.00  0.00    +0.029 A 
ATOM     15  C   UNL     1       9.751  10.475  -2.093  0.00  0.00    +0.004 A 
ATOM     16  C   UNL     1      11.057  10.934  -2.205  0.00  0.00    +0.020 A 
ATOM     17  C   UNL     1      12.105  10.049  -2.034  0.00  0.00    +0.111 A 
ATOM     18  N   UNL     1      11.882   8.779  -1.767  0.00  0.00    -0.254 NA
ENDBRANCH  11  13
ENDBRANCH   7  10
ENDBRANCH   1   2
BRANCH   1  19
ATOM     19  C   UNL     1       3.459   2.344  -0.322  0.00  0.00    +0.086 C 
BRANCH  19  20
ATOM     20  C   UNL     1       2.448   1.223  -0.076  0.00  0.00    +0.107 C 
BRANCH  20  22
ATOM     21  N   UNL     1      -0.011   0.966   0.007  0.00  0.00    -0.285 N 
ATOM     22  C   UNL     1       1.050   1.777  -0.174  0.00  0.00    +0.218 C 
ATOM     23  O   UNL     1       0.879   2.953  -0.417  0.00  0.00    -0.275 OA
ATOM     24  H   UNL     1       0.140  -0.115   0.144  0.00  0.00    +0.155 HD
BRANCH  21  28
ATOM     25  C   UNL     1      -3.863   2.553   0.051  0.00  0.00    -0.044 A 
ATOM     26  C   UNL     1      -3.645   1.284  -0.456  0.00  0.00    +0.006 A 
ATOM     27  C   UNL     1      -2.369   0.756  -0.472  0.00  0.00    +0.023 A 
ATOM     28  C   UNL     1      -1.305   1.499   0.022  0.00  0.00    +0.033 A 
ATOM     29  C   UNL     1      -1.528   2.769   0.536  0.00  0.00    +0.023 A 
ATOM     30  C   UNL     1      -2.805   3.295   0.543  0.00  0.00    +0.006 A 
BRANCH  25  31
ATOM     31  C   UNL     1      -5.256   3.126   0.067  0.00  0.00    +0.016 C 
ATOM     32  C   UNL     1      -5.288   4.412  -0.763  0.00  0.00    +0.012 C 
BRANCH  31  34
ATOM     33  C   UNL     1      -7.120   3.904   1.538  0.00  0.00    +0.004 C 
ATOM     34  C   UNL     1      -5.663   3.439   1.508  0.00  0.00    +0.004 C 
ENDBRANCH  31  34
ENDBRANCH  25  31
ENDBRANCH  21  28
ENDBRANCH  20  22
ENDBRANCH  19  20
ENDBRANCH   1  19
TORSDOF 9
