REMARK  Name = ZINC03316346
REMARK  6 active torsions:
REMARK  status: ('A' for Active; 'I' for Inactive)
REMARK    1  A    between atoms: C_6  and  S_11
REMARK    2  A    between atoms: S_11  and  N_14
REMARK    3  A    between atoms: C_19  and  C_20
REMARK    4  A    between atoms: C_19  and  N_60
REMARK    5  A    between atoms: N_22  and  C_23
REMARK    6  A    between atoms: C_24  and  C_32
REMARK                            x       y       z     vdW  Elec       q    Type
REMARK                         _______ _______ _______ _____ _____    ______ ____
ROOT
ATOM      1  N   UNL     1      -2.862   9.460  -7.428  0.00  0.00    -0.180 NA
ATOM      2  C   UNL     1      -4.000   9.890  -6.601  0.00  0.00    +0.091 C 
ATOM      3  C   UNL     1      -3.542   9.954  -5.140  0.00  0.00    -0.061 C 
ATOM      4  C   UNL     1      -1.744   8.379  -5.551  0.00  0.00    -0.061 C 
ATOM      5  C   UNL     1      -2.129   8.250  -7.029  0.00  0.00    +0.091 C 
ATOM      6  N   UNL     1      -2.968   8.644  -4.764  0.00  0.00    +0.387 N 
ATOM      7  H   UNL     1      -3.658   7.909  -4.963  0.00  0.00    -0.081 HD
ENDROOT
BRANCH   1   8
ATOM      8  S   UNL     1      -2.419  10.317  -8.775  0.00  0.00    +0.061 S 
ATOM      9  O   UNL     1      -1.727   9.412  -9.623  0.00  0.00    -0.153 OA
ATOM     10  O   UNL     1      -3.573  11.029  -9.201  0.00  0.00    -0.153 OA
BRANCH   8  16
ATOM     11  C   UNL     1       2.839  14.107  -7.040  0.00  0.00    +0.001 A 
ATOM     12  C   UNL     1       3.280  12.848  -7.446  0.00  0.00    +0.001 A 
ATOM     13  C   UNL     1       2.399  11.893  -7.848  0.00  0.00    +0.008 A 
ATOM     14  C   UNL     1       1.022  12.176  -7.856  0.00  0.00    -0.016 A 
ATOM     15  C   UNL     1       0.082  11.215  -8.265  0.00  0.00    +0.037 A 
ATOM     16  C   UNL     1      -1.244  11.525  -8.260  0.00  0.00    +0.106 A 
ATOM     17  C   UNL     1      -1.684  12.785  -7.860  0.00  0.00    +0.029 A 
ATOM     18  C   UNL     1      -0.803  13.738  -7.452  0.00  0.00    +0.010 A 
ATOM     19  C   UNL     1       0.573  13.455  -7.444  0.00  0.00    -0.018 A 
ATOM     20  C   UNL     1       1.514  14.416  -7.035  0.00  0.00    +0.008 A 
ENDBRANCH   8  16
ENDBRANCH   1   8
BRANCH   6  21
ATOM     21  C   UNL     1      -2.653   8.627  -3.320  0.00  0.00    +0.019 C 
BRANCH  21  22
ATOM     22  C   UNL     1      -2.279   7.222  -2.922  0.00  0.00    +0.201 C 
ATOM     23  O   UNL     1      -2.260   6.341  -3.755  0.00  0.00    -0.278 OA
ATOM     24  N   UNL     1      -1.965   6.946  -1.641  0.00  0.00    -0.281 N 
ATOM     25  H   UNL     1      -1.980   7.652  -0.975  0.00  0.00    +0.155 HD
BRANCH  24  26
ATOM     26  C   UNL     1      -1.621   5.653  -1.274  0.00  0.00    +0.090 A 
ATOM     27  C   UNL     1      -1.271   5.177  -0.019  0.00  0.00    +0.084 A 
ATOM     28  C   UNL     1      -0.951   3.765   0.100  0.00  0.00    -0.018 A 
ATOM     29  C   UNL     1      -1.032   3.059  -1.049  0.00  0.00    -0.004 A 
ATOM     30  S   UNL     1      -1.524   4.240  -2.273  0.00  0.00    -0.077 S 
ATOM     31  C   UNL     1      -0.761   1.597  -1.232  0.00  0.00    +0.043 C 
ATOM     32  C   UNL     1      -0.013   1.086   0.008  0.00  0.00    +0.005 C 
ATOM     33  C   UNL     1      -0.735   1.583   1.264  0.00  0.00    +0.005 C 
ATOM     34  C   UNL     1      -0.551   3.094   1.407  0.00  0.00    +0.037 C 
BRANCH  27  35
ATOM     35  C   UNL     1      -1.226   6.046   1.118  0.00  0.00    +0.102 C 
ATOM     36  N   UNL     1      -1.191   6.736   2.020  0.00  0.00    -0.191 NA
ENDBRANCH  27  35
ENDBRANCH  24  26
ENDBRANCH  21  22
ENDBRANCH   6  21
TORSDOF 6
