REMARK  Name = ZINC35310894
REMARK  10 active torsions:
REMARK  status: ('A' for Active; 'I' for Inactive)
REMARK    1  A    between atoms: C_1  and  C_2
REMARK    2  A    between atoms: C_7  and  C_28
REMARK    3  A    between atoms: C_11  and  C_12
REMARK    4  A    between atoms: N_13  and  C_14
REMARK    5  A    between atoms: C_14  and  C_15
REMARK    6  A    between atoms: C_15  and  C_16
REMARK    7  A    between atoms: C_16  and  N_17
REMARK    8  A    between atoms: N_17  and  C_18
REMARK    9  A    between atoms: C_18  and  N_20
REMARK   10  A    between atoms: N_20  and  C_21
REMARK                            x       y       z     vdW  Elec       q    Type
REMARK                         _______ _______ _______ _____ _____    ______ ____
ROOT
ATOM      1  C   UNL     1      -3.529   1.159   0.425  0.00  0.00    +0.044 C 
ATOM      2  C   UNL     1      -3.055  -0.269   0.349  0.00  0.00    -0.045 A 
ATOM      3  C   UNL     1      -3.008  -0.911  -0.887  0.00  0.00    +0.004 A 
ATOM      4  C   UNL     1      -2.584  -2.201  -0.988  0.00  0.00    +0.010 A 
ATOM      5  C   UNL     1      -2.189  -2.895   0.168  0.00  0.00    +0.002 A 
ATOM      6  C   UNL     1      -1.746  -4.228   0.099  0.00  0.00    +0.032 A 
ATOM      7  C   UNL     1      -1.369  -4.854   1.280  0.00  0.00    +0.092 A 
ATOM      8  C   UNL     1      -1.443  -4.139   2.499  0.00  0.00    +0.137 A 
ATOM      9  N   UNL     1      -1.862  -2.893   2.536  0.00  0.00    -0.231 NA
ATOM     10  C   UNL     1      -2.236  -2.244   1.426  0.00  0.00    +0.076 A 
ATOM     11  C   UNL     1      -2.674  -0.910   1.488  0.00  0.00    -0.022 A 
ATOM     12  C   UNL     1      -2.728  -0.194   2.813  0.00  0.00    +0.046 C 
ATOM     13  N   UNL     1      -1.068  -4.763   3.675  0.00  0.00    -0.328 N 
ATOM     14  H   UNL     1      -0.758  -5.682   3.658  0.00  0.00    +0.147 HD
ENDROOT
BRANCH   7  15
ATOM     15  C   UNL     1      -0.911  -6.211   1.264  0.00  0.00    +0.103 C 
ATOM     16  N   UNL     1      -0.548  -7.287   1.252  0.00  0.00    -0.191 NA
ENDBRANCH   7  15
BRANCH  13  17
ATOM     17  C   UNL     1      -1.139  -4.037   4.945  0.00  0.00    +0.104 C 
BRANCH  17  18
ATOM     18  C   UNL     1      -0.672  -4.949   6.081  0.00  0.00    +0.037 C 
BRANCH  18  19
ATOM     19  C   UNL     1      -0.746  -4.190   7.407  0.00  0.00    +0.105 C 
BRANCH  19  20
ATOM     20  N   UNL     1      -0.298  -5.063   8.495  0.00  0.00    -0.326 N 
ATOM     21  H   UNL     1      -0.017  -5.971   8.303  0.00  0.00    +0.148 HD
BRANCH  20  22
ATOM     22  C   UNL     1      -0.279  -4.605   9.762  0.00  0.00    +0.135 C 
ATOM     23  S   UNL     1      -0.776  -3.002  10.101  0.00  0.00    -0.019 S 
BRANCH  22  24
ATOM     24  N   UNL     1       0.133  -5.408  10.763  0.00  0.00    -0.297 N 
ATOM     25  H   UNL     1       0.356  -6.335  10.581  0.00  0.00    +0.154 HD
BRANCH  24  26
ATOM     26  C   UNL     1       0.238  -4.907  12.065  0.00  0.00    +0.034 A 
ATOM     27  C   UNL     1      -0.783  -4.130  12.596  0.00  0.00    +0.023 A 
ATOM     28  C   UNL     1      -0.677  -3.635  13.881  0.00  0.00    +0.003 A 
ATOM     29  C   UNL     1       0.445  -3.913  14.640  0.00  0.00    +0.020 A 
ATOM     30  C   UNL     1       1.465  -4.686  14.114  0.00  0.00    +0.043 A 
ATOM     31  C   UNL     1       1.361  -5.189  12.830  0.00  0.00    +0.043 A 
ATOM     32 CL   UNL     1       2.873  -5.032  15.070  0.00  0.00    -0.083 Cl
ENDBRANCH  24  26
ENDBRANCH  22  24
ENDBRANCH  20  22
ENDBRANCH  19  20
ENDBRANCH  18  19
ENDBRANCH  17  18
ENDBRANCH  13  17
TORSDOF 8
