REMARK  Name = ZINC16937324
REMARK  9 active torsions:
REMARK  status: ('A' for Active; 'I' for Inactive)
REMARK    1  A    between atoms: C_1  and  C_2
REMARK    2  A    between atoms: C_2  and  C_3
REMARK    3  A    between atoms: C_3  and  C_5
REMARK    4  A    between atoms: C_3  and  O_8
REMARK    5  A    between atoms: O_8  and  C_9
REMARK    6  A    between atoms: C_13  and  C_15
REMARK    7  A    between atoms: N_21  and  C_22
REMARK    8  A    between atoms: C_25  and  C_29
REMARK    9  A    between atoms: C_27  and  O_28
REMARK                            x       y       z     vdW  Elec       q    Type
REMARK                         _______ _______ _______ _____ _____    ______ ____
ROOT
ATOM      1  C   UNL     1       5.834   2.088   3.379  0.00  0.00    +0.028 C 
ATOM      2  C   UNL     1       6.570   2.151   4.517  0.00  0.00    +0.078 C 
ATOM      3  C   UNL     1       8.007   2.446   4.688  0.00  0.00    +0.256 C 
ATOM      4  O   UNL     1       8.726   2.681   3.736  0.00  0.00    -0.269 OA
ATOM      5  N   UNL     1       8.475   2.443   5.925  0.00  0.00    -0.260 N 
ATOM      6  C   UNL     1       7.643   2.174   6.991  0.00  0.00    +0.166 C 
ATOM      7  N   UNL     1       7.942   2.130   8.269  0.00  0.00    -0.222 NA
ATOM      8  S   UNL     1       6.059   1.906   6.212  0.00  0.00    -0.049 S 
ATOM      9  H   UNL     1       9.414   2.632   6.084  0.00  0.00    +0.157 HD
ENDROOT
BRANCH   7  10
ATOM     10  C   UNL     1       6.990   1.764   9.182  0.00  0.00    +0.108 A 
ATOM     11  C   UNL     1       6.280   0.574   9.016  0.00  0.00    +0.032 A 
ATOM     12  C   UNL     1       5.322   0.210   9.941  0.00  0.00    +0.005 A 
ATOM     13  C   UNL     1       5.063   1.020  11.032  0.00  0.00    -0.047 A 
ATOM     14  C   UNL     1       5.761   2.201  11.207  0.00  0.00    +0.051 A 
ATOM     15  C   UNL     1       6.729   2.578  10.292  0.00  0.00    +0.142 A 
ATOM     16  C   UNL     1       4.015   0.613  12.036  0.00  0.00    +0.044 C 
BRANCH  15  17
ATOM     17  O   UNL     1       7.419   3.736  10.466  0.00  0.00    -0.505 OA
ATOM     18  H   UNL     1       7.005   4.506  10.053  0.00  0.00    +0.292 HD
ENDBRANCH  15  17
ENDBRANCH   7  10
BRANCH   1  23
ATOM     19  C   UNL     1       2.267   1.438   2.410  0.00  0.00    +0.122 A 
ATOM     20  C   UNL     1       1.613   1.704   3.606  0.00  0.00    +0.046 A 
ATOM     21  C   UNL     1       2.332   2.094   4.722  0.00  0.00    +0.004 A 
ATOM     22  C   UNL     1       3.704   2.220   4.656  0.00  0.00    +0.008 A 
ATOM     23  C   UNL     1       4.372   1.954   3.455  0.00  0.00    -0.020 A 
ATOM     24  C   UNL     1       3.643   1.555   2.330  0.00  0.00    +0.053 A 
BRANCH  19  25
ATOM     25  O   UNL     1       1.554   1.056   1.317  0.00  0.00    -0.477 OA
BRANCH  25  26
ATOM     26  C   UNL     1       0.131   1.028   1.448  0.00  0.00    +0.285 C 
BRANCH  26  27
ATOM     27  C   UNL     1      -0.289  -0.270   2.087  0.00  0.00    +0.396 C 
ATOM     28  O   UNL     1       0.540  -1.133   2.317  0.00  0.00    -0.242 OA
ATOM     29  O   UNL     1      -1.460  -0.458   2.373  0.00  0.00    -0.242 OA
ENDBRANCH  26  27
BRANCH  26  31
ATOM     30  C   UNL     1      -0.185   2.519  -0.532  0.00  0.00    +0.008 C 
ATOM     31  C   UNL     1      -0.510   1.148   0.065  0.00  0.00    +0.053 C 
ENDBRANCH  26  31
ENDBRANCH  25  26
ENDBRANCH  19  25
ENDBRANCH   1  23
TORSDOF 7
