REMARK  Name = ZINC08725831
REMARK  8 active torsions:
REMARK  status: ('A' for Active; 'I' for Inactive)
REMARK    1  A    between atoms: C_1  and  C_2
REMARK    2  A    between atoms: C_2  and  O_3
REMARK    3  A    between atoms: O_3  and  C_4
REMARK    4  A    between atoms: C_6  and  C_15
REMARK    5  A    between atoms: C_9  and  O_10
REMARK    6  A    between atoms: O_10  and  C_11
REMARK    7  A    between atoms: C_11  and  C_12
REMARK    8  A    between atoms: N_26  and  C_27
REMARK                            x       y       z     vdW  Elec       q    Type
REMARK                         _______ _______ _______ _____ _____    ______ ____
ROOT
ATOM      1  C   UNL     1       4.926   3.998  -0.014  0.00  0.00    +0.198 C 
ATOM      2  N   UNL     1       4.792   5.299   0.653  0.00  0.00    -0.321 N 
ATOM      3  C   UNL     1       4.802   5.343   2.043  0.00  0.00    +0.041 A 
ATOM      4  C   UNL     1       4.131   6.329   2.746  0.00  0.00    +0.024 A 
ATOM      5  C   UNL     1       4.180   6.338   4.127  0.00  0.00    +0.002 A 
ATOM      6  C   UNL     1       4.894   5.368   4.813  0.00  0.00    +0.001 A 
ATOM      7  C   UNL     1       5.564   4.376   4.128  0.00  0.00    +0.015 A 
ATOM      8  C   UNL     1       5.520   4.352   2.735  0.00  0.00    +0.058 A 
ATOM      9  C   UNL     1       6.198   3.300   1.959  0.00  0.00    +0.254 C 
ATOM     10  O   UNL     1       6.960   2.527   2.508  0.00  0.00    -0.270 OA
ATOM     11  N   UNL     1       5.966   3.200   0.635  0.00  0.00    -0.244 N 
ATOM     12  H   UNL     1       4.697   6.113   0.134  0.00  0.00    +0.148 HD
ENDROOT
BRANCH  11  13
ATOM     13  C   UNL     1       6.736   2.318  -0.134  0.00  0.00    +0.042 A 
ATOM     14  C   UNL     1       7.473   2.796  -1.210  0.00  0.00    +0.027 A 
ATOM     15  C   UNL     1       8.232   1.927  -1.969  0.00  0.00    +0.051 A 
ATOM     16  C   UNL     1       8.261   0.576  -1.659  0.00  0.00    +0.166 A 
ATOM     17  C   UNL     1       7.523   0.094  -0.581  0.00  0.00    +0.168 A 
ATOM     18  C   UNL     1       6.766   0.967   0.183  0.00  0.00    +0.073 A 
ATOM     19  O   UNL     1       7.718  -1.254  -0.487  0.00  0.00    -0.453 OA
ATOM     20  C   UNL     1       8.899  -1.527  -1.262  0.00  0.00    +0.466 C 
ATOM     21  O   UNL     1       8.918  -0.471  -2.240  0.00  0.00    -0.453 OA
ENDBRANCH  11  13
BRANCH   1  24
ATOM     22  C   UNL     1       1.218   3.294   0.163  0.00  0.00    +0.162 A 
ATOM     23  C   UNL     1       2.426   3.970   0.095  0.00  0.00    +0.056 A 
ATOM     24  C   UNL     1       3.613   3.262   0.061  0.00  0.00    -0.005 A 
ATOM     25  C   UNL     1       3.599   1.880   0.096  0.00  0.00    +0.011 A 
ATOM     26  C   UNL     1       2.397   1.200   0.170  0.00  0.00    +0.050 A 
ATOM     27  C   UNL     1       1.204   1.903   0.199  0.00  0.00    +0.163 A 
BRANCH  22  28
ATOM     28  O   UNL     1       0.049   3.989   0.196  0.00  0.00    -0.489 OA
BRANCH  28  30
ATOM     29  C   UNL     1      -1.265   6.016   0.202  0.00  0.00    +0.048 C 
ATOM     30  C   UNL     1       0.141   5.414   0.157  0.00  0.00    +0.226 C 
ENDBRANCH  28  30
ENDBRANCH  22  28
BRANCH  27  31
ATOM     31  O   UNL     1       0.021   1.235   0.266  0.00  0.00    -0.479 OA
BRANCH  31  32
ATOM     32  C   UNL     1       0.083  -0.192   0.299  0.00  0.00    +0.324 C 
BRANCH  32  33
ATOM     33  C   UNL     1      -1.314  -0.754   0.373  0.00  0.00    +0.248 C 
ATOM     34  O   UNL     1      -2.268  -0.006   0.395  0.00  0.00    -0.272 OA
ATOM     35  N   UNL     1      -1.502  -2.088   0.414  0.00  0.00    -0.327 N 
ATOM     36  H   UNL     1      -0.739  -2.686   0.396  0.00  0.00    +0.145 HD
ATOM     37  H   UNL     1      -2.401  -2.449   0.461  0.00  0.00    +0.145 HD
ENDBRANCH  32  33
ENDBRANCH  31  32
ENDBRANCH  27  31
ENDBRANCH   1  24
TORSDOF 7
