REMARK  Name = ZINC42934199
REMARK  9 active torsions:
REMARK  status: ('A' for Active; 'I' for Inactive)
REMARK    1  A    between atoms: C_1  and  C_2
REMARK    2  A    between atoms: C_2  and  C_3
REMARK    3  A    between atoms: C_2  and  C_4
REMARK    4  A    between atoms: C_4  and  C_6
REMARK    5  A    between atoms: C_4  and  S_18
REMARK    6  A    between atoms: N_8  and  C_9
REMARK    7  A    between atoms: C_14  and  C_15
REMARK    8  A    between atoms: C_15  and  C_17
REMARK    9  A    between atoms: S_18  and  C_19
REMARK                            x       y       z     vdW  Elec       q    Type
REMARK                         _______ _______ _______ _____ _____    ______ ____
ROOT
ATOM      1  C   UNL     1      -1.607  -0.573  -0.060  0.00  0.00    +0.142 C 
ENDROOT
BRANCH   1   2
ATOM      2  C   UNL     1      -2.233  -0.138  -1.360  0.00  0.00    +0.231 C 
ATOM      3  O   UNL     1      -2.363  -0.934  -2.266  0.00  0.00    -0.274 OA
ATOM      4  N   UNL     1      -2.649   1.135  -1.516  0.00  0.00    -0.284 N 
ATOM      5  H   UNL     1      -2.614   1.751  -0.768  0.00  0.00    +0.155 HD
BRANCH   4   6
ATOM      6  C   UNL     1      -3.127   1.564  -2.750  0.00  0.00    +0.044 A 
ATOM      7  C   UNL     1      -2.665   0.978  -3.921  0.00  0.00    +0.024 A 
ATOM      8  C   UNL     1      -3.140   1.405  -5.144  0.00  0.00    +0.002 A 
ATOM      9  C   UNL     1      -4.081   2.421  -5.216  0.00  0.00    +0.001 A 
ATOM     10  C   UNL     1      -4.553   3.016  -4.068  0.00  0.00    +0.013 A 
ATOM     11  C   UNL     1      -4.085   2.590  -2.818  0.00  0.00    +0.038 A 
BRANCH  11  12
ATOM     12  C   UNL     1      -4.588   3.215  -1.589  0.00  0.00    +0.162 C 
ATOM     13  O   UNL     1      -4.112   2.911  -0.516  0.00  0.00    -0.292 OA
ATOM     14  C   UNL     1      -5.694   4.235  -1.661  0.00  0.00    +0.091 C 
ENDBRANCH  11  12
ENDBRANCH   4   6
ENDBRANCH   1   2
BRANCH   1  16
ATOM     15  C   UNL     1      -0.069   1.395  -0.114  0.00  0.00    +0.009 C 
ATOM     16  C   UNL     1      -0.143  -0.131  -0.026  0.00  0.00    +0.005 C 
ATOM     17  C   UNL     1       0.500  -0.598   1.281  0.00  0.00    +0.009 C 
ENDBRANCH   1  16
BRANCH   1  18
ATOM     18  S   UNL     1      -1.697  -2.379   0.081  0.00  0.00    -0.084 S 
BRANCH  18  19
ATOM     19  C   UNL     1      -3.425  -2.714   0.166  0.00  0.00    +0.161 A 
ATOM     20  N   UNL     1      -4.444  -1.885   0.051  0.00  0.00    -0.133 NA
ATOM     21  N   UNL     1      -5.730  -2.363   0.151  0.00  0.00    -0.125 NA
ATOM     22  C   UNL     1      -5.938  -3.648   0.361  0.00  0.00    +0.180 A 
ATOM     23  S   UNL     1      -4.265  -4.270   0.422  0.00  0.00    -0.025 S 
ATOM     24  N   UNL     1      -7.139  -4.336   0.492  0.00  0.00    -0.336 N 
ATOM     25  H   UNL     1      -7.981  -3.859   0.431  0.00  0.00    +0.144 HD
ATOM     26  H   UNL     1      -7.135  -5.294   0.646  0.00  0.00    +0.144 HD
ENDBRANCH  18  19
ENDBRANCH   1  18
TORSDOF 6
