REMARK  Name = ZINC19682665
REMARK  9 active torsions:
REMARK  status: ('A' for Active; 'I' for Inactive)
REMARK    1  A    between atoms: C_1  and  C_2
REMARK    2  A    between atoms: C_5  and  C_8
REMARK    3  A    between atoms: C_8  and  N_9
REMARK    4  A    between atoms: N_12  and  C_15
REMARK    5  A    between atoms: C_15  and  C_16
REMARK    6  A    between atoms: N_18  and  N_19
REMARK    7  A    between atoms: C_20  and  C_21
REMARK    8  A    between atoms: C_20  and  C_22
REMARK    9  A    between atoms: C_27  and  O_28
REMARK                            x       y       z     vdW  Elec       q    Type
REMARK                         _______ _______ _______ _____ _____    ______ ____
ROOT
ATOM      1  C   UNL     1       5.033  -6.736  -0.999  0.00  0.00    +0.020 C 
ENDROOT
BRANCH   1   5
ATOM      2  N   UNL     1       1.451  -4.747  -0.032  0.00  0.00    -0.302 NA
ATOM      3  C   UNL     1       2.120  -4.387  -1.290  0.00  0.00    +0.066 C 
ATOM      4  C   UNL     1       3.579  -4.843  -1.236  0.00  0.00    -0.063 C 
ATOM      5  N   UNL     1       3.632  -6.296  -1.033  0.00  0.00    +0.387 N 
ATOM      6  C   UNL     1       2.982  -6.638   0.239  0.00  0.00    -0.063 C 
ATOM      7  C   UNL     1       1.517  -6.197   0.198  0.00  0.00    +0.066 C 
ATOM      8  H   UNL     1       3.152  -6.759  -1.790  0.00  0.00    -0.081 HD
BRANCH   2   9
ATOM      9  C   UNL     1       0.059  -4.275  -0.021  0.00  0.00    +0.119 C 
BRANCH   9  14
ATOM     10  C   UNL     1      -0.018   1.503   0.010  0.00  0.00    +0.044 C 
ATOM     11  C   UNL     1       0.002  -0.004   0.002  0.00  0.00    -0.050 A 
ATOM     12  C   UNL     1       0.006  -0.689  -1.199  0.00  0.00    +0.003 A 
ATOM     13  C   UNL     1       0.025  -2.071  -1.206  0.00  0.00    +0.005 A 
ATOM     14  C   UNL     1       0.040  -2.768  -0.013  0.00  0.00    -0.033 A 
ATOM     15  C   UNL     1       0.037  -2.084   1.188  0.00  0.00    +0.005 A 
ATOM     16  C   UNL     1       0.023  -0.702   1.195  0.00  0.00    +0.003 A 
ENDBRANCH   9  14
ENDBRANCH   2   9
ENDBRANCH   1   5
BRANCH   1  17
ATOM     17  C   UNL     1       5.086  -8.239  -0.913  0.00  0.00    +0.216 C 
ATOM     18  O   UNL     1       4.058  -8.882  -0.883  0.00  0.00    -0.276 OA
ATOM     19  N   UNL     1       6.277  -8.870  -0.871  0.00  0.00    -0.208 N 
ATOM     20  H   UNL     1       7.099  -8.356  -0.895  0.00  0.00    +0.177 HD
BRANCH  19  21
ATOM     21  N   UNL     1       6.326 -10.268  -0.791  0.00  0.00    -0.184 NA
ATOM     22  C   UNL     1       7.472 -10.876  -0.750  0.00  0.00    +0.067 C 
ATOM     23  C   UNL     1       8.750 -10.077  -0.787  0.00  0.00    +0.068 C 
BRANCH  22  24
ATOM     24  C   UNL     1       7.524 -12.346  -0.666  0.00  0.00    +0.039 A 
ATOM     25  C   UNL     1       8.755 -13.004  -0.615  0.00  0.00    +0.013 A 
ATOM     26  C   UNL     1       8.797 -14.380  -0.536  0.00  0.00    +0.001 A 
ATOM     27  C   UNL     1       7.623 -15.113  -0.507  0.00  0.00    +0.004 A 
ATOM     28  C   UNL     1       6.399 -14.474  -0.556  0.00  0.00    +0.046 A 
ATOM     29  C   UNL     1       6.338 -13.092  -0.630  0.00  0.00    +0.126 A 
BRANCH  29  30
ATOM     30  O   UNL     1       5.136 -12.463  -0.673  0.00  0.00    -0.506 OA
ATOM     31  H   UNL     1       4.793 -12.332  -1.568  0.00  0.00    +0.292 HD
ENDBRANCH  29  30
ENDBRANCH  22  24
ENDBRANCH  19  21
ENDBRANCH   1  17
TORSDOF 7
