REMARK  Name = ZINC42455499
REMARK  7 active torsions:
REMARK  status: ('A' for Active; 'I' for Inactive)
REMARK    1  A    between atoms: C_1  and  C_2
REMARK    2  A    between atoms: C_2  and  C_4
REMARK    3  A    between atoms: C_2  and  C_6
REMARK    4  A    between atoms: C_4  and  N_5
REMARK    5  A    between atoms: C_6  and  N_7
REMARK    6  A    between atoms: N_7  and  C_8
REMARK    7  A    between atoms: N_11  and  C_12
REMARK                            x       y       z     vdW  Elec       q    Type
REMARK                         _______ _______ _______ _____ _____    ______ ____
ROOT
ATOM      1  N   UNL     1      -0.055  -0.114  -2.441  0.00  0.00    -0.289 N 
ATOM      2  C   UNL     1       0.199   1.171  -3.096  0.00  0.00    +0.133 C 
ATOM      3  C   UNL     1      -1.000  -0.943  -2.926  0.00  0.00    +0.302 C 
ATOM      4  O   UNL     1      -1.211  -2.010  -2.382  0.00  0.00    -0.253 OA
ATOM      5  N   UNL     1      -1.711  -0.590  -4.015  0.00  0.00    -0.294 N 
ATOM      6  H   UNL     1      -1.543   0.261  -4.449  0.00  0.00    +0.151 HD
ENDROOT
BRANCH   5   7
ATOM      7  C   UNL     1      -2.738  -1.492  -4.543  0.00  0.00    +0.037 C 
ATOM      8  C   UNL     1      -3.802  -1.737  -3.470  0.00  0.00    +0.029 C 
ATOM      9  C   UNL     1      -4.874  -2.678  -4.022  0.00  0.00    -0.008 C 
ATOM     10  C   UNL     1      -5.527  -2.043  -5.251  0.00  0.00    +0.007 C 
ATOM     11  C   UNL     1      -4.464  -1.798  -6.324  0.00  0.00    -0.008 C 
ATOM     12  C   UNL     1      -3.391  -0.857  -5.772  0.00  0.00    +0.029 C 
ATOM     13  C   UNL     1      -3.821  -3.129  -6.718  0.00  0.00    +0.007 C 
ATOM     14  C   UNL     1      -3.168  -3.764  -5.488  0.00  0.00    -0.008 C 
ATOM     15  C   UNL     1      -4.231  -4.009  -4.416  0.00  0.00    +0.007 C 
ATOM     16  C   UNL     1      -2.095  -2.823  -4.937  0.00  0.00    +0.029 C 
ENDBRANCH   5   7
BRANCH   1  17
ATOM     17  C   UNL     1       0.718  -0.497  -1.257  0.00  0.00    +0.110 C 
BRANCH  17  19
ATOM     18  C   UNL     1      -0.019   1.526   0.010  0.00  0.00    +0.007 C 
ATOM     19  C   UNL     1       0.002  -0.004   0.002  0.00  0.00    -0.014 C 
BRANCH  19  20
ATOM     20  C   UNL     1       0.742  -0.511   1.242  0.00  0.00    -0.082 C 
BRANCH  20  21
ATOM     21  N   UNL     1      -0.010  -0.139   2.447  0.00  0.00    +0.378 N 
ATOM     22  H   UNL     1      -0.096   0.865   2.494  0.00  0.00    -0.090 HD
ATOM     23  H   UNL     1      -0.929  -0.554   2.411  0.00  0.00    -0.090 HD
ATOM     24  H   UNL     1       0.478  -0.473   3.265  0.00  0.00    -0.090 HD
ENDBRANCH  20  21
ENDBRANCH  19  20
ENDBRANCH  17  19
ENDBRANCH   1  17
TORSDOF 5
