REMARK  Name = ZINC00093957
REMARK  4 active torsions:
REMARK  status: ('A' for Active; 'I' for Inactive)
REMARK    1  A    between atoms: C_1  and  C_2
REMARK    2  A    between atoms: C_4  and  N_9
REMARK    3  A    between atoms: C_10  and  C_11
REMARK    4  A    between atoms: C_14  and  N_17
REMARK                            x       y       z     vdW  Elec       q    Type
REMARK                         _______ _______ _______ _____ _____    ______ ____
ROOT
ATOM      1  N   UNL     1       0.028  -2.764  -2.389  0.00  0.00    -0.255 NA
ATOM      2  C   UNL     1       0.838  -3.770  -2.560  0.00  0.00    +0.119 C 
ENDROOT
BRANCH   1   6
ATOM      3  C   UNL     1      -0.018   1.503   0.010  0.00  0.00    +0.045 C 
ATOM      4  C   UNL     1       0.002  -0.004   0.002  0.00  0.00    -0.034 A 
ATOM      5  C   UNL     1       0.006  -0.686  -1.197  0.00  0.00    +0.032 A 
ATOM      6  C   UNL     1       0.025  -2.082  -1.203  0.00  0.00    +0.064 A 
ATOM      7  C   UNL     1       0.040  -2.780   0.007  0.00  0.00    +0.029 A 
ATOM      8  C   UNL     1       0.036  -2.086   1.199  0.00  0.00    +0.017 A 
ATOM      9  C   UNL     1       0.023  -0.701   1.198  0.00  0.00    +0.021 A 
ATOM     10 BR   UNL     1       0.026   0.242   2.837  0.00  0.00    -0.050 Br
ENDBRANCH   1   6
BRANCH   2  11
ATOM     11  C   UNL     1       0.842  -4.504  -3.837  0.00  0.00    -0.007 A 
ATOM     12  C   UNL     1      -0.019  -4.121  -4.870  0.00  0.00    +0.011 A 
ATOM     13  C   UNL     1      -0.010  -4.814  -6.062  0.00  0.00    +0.033 A 
ATOM     14  C   UNL     1       0.848  -5.885  -6.238  0.00  0.00    +0.126 A 
ATOM     15  C   UNL     1       1.704  -6.269  -5.220  0.00  0.00    +0.033 A 
ATOM     16  C   UNL     1       1.710  -5.583  -4.024  0.00  0.00    +0.011 A 
BRANCH  14  17
ATOM     17  N   UNL     1       0.852  -6.623  -7.521  0.00  0.00    +0.056 N 
ATOM     18  O   UNL     1       0.105  -6.290  -8.412  0.00  0.00    -0.126 OA
ATOM     19  O   UNL     1       1.600  -7.559  -7.678  0.00  0.00    -0.126 OA
ENDBRANCH  14  17
ENDBRANCH   2  11
TORSDOF 3
