REMARK  Name = ZINC24482558
REMARK  13 active torsions:
REMARK  status: ('A' for Active; 'I' for Inactive)
REMARK    1  A    between atoms: C_1  and  C_2
REMARK    2  A    between atoms: C_2  and  C_3
REMARK    3  A    between atoms: C_2  and  C_4
REMARK    4  A    between atoms: C_4  and  C_6
REMARK    5  A    between atoms: C_4  and  N_31
REMARK    6  A    between atoms: N_8  and  C_9
REMARK    7  A    between atoms: C_9  and  C_10
REMARK    8  A    between atoms: C_10  and  C_12
REMARK    9  A    between atoms: C_10  and  C_21
REMARK   10  A    between atoms: C_15  and  N_18
REMARK   11  A    between atoms: N_18  and  C_19
REMARK   12  A    between atoms: N_18  and  C_20
REMARK   13  A    between atoms: C_32  and  C_34
REMARK                            x       y       z     vdW  Elec       q    Type
REMARK                         _______ _______ _______ _____ _____    ______ ____
ROOT
ATOM      1  C   UNL     1      -6.178   1.689   0.350  0.00  0.00    +0.068 C 
ENDROOT
BRANCH   1   2
ATOM      2  C   UNL     1      -6.318   2.032  -1.111  0.00  0.00    -0.013 A 
ATOM      3  C   UNL     1      -6.508   1.167  -2.120  0.00  0.00    +0.088 A 
ATOM      4  N   UNL     1      -6.588   1.844  -3.306  0.00  0.00    -0.360 N 
ATOM      5  H   UNL     1      -6.744   1.292  -4.245  0.00  0.00    +0.165 HD
ATOM      6  C   UNL     1      -6.449   3.196  -3.084  0.00  0.00    +0.047 A 
ATOM      7  C   UNL     1      -6.279   3.373  -1.699  0.00  0.00    +0.003 A 
ATOM      8  C   UNL     1      -6.117   4.657  -1.176  0.00  0.00    +0.010 A 
ATOM      9  C   UNL     1      -6.127   5.737  -2.013  0.00  0.00    +0.001 A 
ATOM     10  C   UNL     1      -6.298   5.568  -3.380  0.00  0.00    +0.002 A 
ATOM     11  C   UNL     1      -6.452   4.309  -3.918  0.00  0.00    +0.026 A 
ENDBRANCH   1   2
BRANCH   1  12
ATOM     12  C   UNL     1      -7.425   0.988   0.823  0.00  0.00    -0.038 A 
ATOM     13  C   UNL     1      -7.816  -0.200   0.231  0.00  0.00    +0.006 A 
ATOM     14  C   UNL     1      -8.955  -0.848   0.666  0.00  0.00    +0.023 A 
ATOM     15  C   UNL     1      -9.715  -0.300   1.692  0.00  0.00    +0.029 A 
ATOM     16  C   UNL     1      -9.322   0.896   2.280  0.00  0.00    +0.023 A 
ATOM     17  C   UNL     1      -8.179   1.536   1.844  0.00  0.00    +0.006 A 
BRANCH  15  18
ATOM     18  N   UNL     1     -10.871  -0.949   2.130  0.00  0.00    -0.336 N 
ATOM     19  C   UNL     1     -11.671  -0.370   3.212  0.00  0.00    +0.129 C 
ATOM     20  C   UNL     1     -11.283  -2.210   1.508  0.00  0.00    +0.129 C 
ENDBRANCH  15  18
ENDBRANCH   1  12
BRANCH   1  21
ATOM     21  C   UNL     1      -4.971   0.769   0.544  0.00  0.00    +0.117 C 
BRANCH  21  24
ATOM     22  C   UNL     1      -2.549   0.876   0.291  0.00  0.00    +0.234 C 
ATOM     23  O   UNL     1      -2.495  -0.301   0.576  0.00  0.00    -0.274 OA
ATOM     24  N   UNL     1      -3.745   1.492   0.196  0.00  0.00    -0.313 N 
ATOM     25  H   UNL     1      -3.800   2.537  -0.142  0.00  0.00    +0.149 HD
BRANCH  22  26
ATOM     26  C   UNL     1      -1.281   1.651   0.044  0.00  0.00    +0.161 C 
BRANCH  26  27
ATOM     27  N   UNL     1      -0.185   1.053   0.811  0.00  0.00    -0.304 N 
ATOM     28  C   UNL     1       0.880   1.801   1.160  0.00  0.00    +0.211 C 
ATOM     29  O   UNL     1       0.929   2.971   0.843  0.00  0.00    -0.276 OA
ATOM     30  C   UNL     1       2.010   1.185   1.944  0.00  0.00    +0.109 C 
ATOM     31  H   UNL     1      -0.233  -0.006   1.102  0.00  0.00    +0.149 HD
ENDBRANCH  26  27
BRANCH  26  33
ATOM     32  C   UNL     1      -2.063   2.278  -2.245  0.00  0.00    +0.009 C 
ATOM     33  C   UNL     1      -0.941   1.610  -1.448  0.00  0.00    +0.012 C 
ATOM     34  C   UNL     1       0.372   2.356  -1.692  0.00  0.00    +0.009 C 
ENDBRANCH  26  33
ENDBRANCH  22  26
ENDBRANCH  21  24
ENDBRANCH   1  21
TORSDOF 8
