REMARK  Name = ZINC01414015
REMARK  4 active torsions:
REMARK  status: ('A' for Active; 'I' for Inactive)
REMARK    1  A    between atoms: C_1  and  C_2
REMARK    2  A    between atoms: C_10  and  C_11
REMARK    3  A    between atoms: N_13  and  C_14
REMARK    4  A    between atoms: C_14  and  N_16
REMARK                            x       y       z     vdW  Elec       q    Type
REMARK                         _______ _______ _______ _____ _____    ______ ____
ROOT
ATOM      1  C   UNL     1      -2.355   1.677   0.035  0.00  0.00    +0.285 C 
ATOM      2  O   UNL     1      -2.339   0.461   0.027  0.00  0.00    -0.266 OA
ATOM      3  N   UNL     1      -1.197   2.366   0.029  0.00  0.00    -0.261 N 
ATOM      4  H   UNL     1      -1.210   3.336   0.035  0.00  0.00    +0.157 HD
ENDROOT
BRANCH   1  14
ATOM      5  C   UNL     1      -5.158   0.329   0.038  0.00  0.00    +0.048 C 
ATOM      6  C   UNL     1      -4.862   1.806   0.051  0.00  0.00    +0.008 A 
ATOM      7  C   UNL     1      -5.835   2.898   0.070  0.00  0.00    +0.024 A 
ATOM      8  C   UNL     1      -7.231   2.959   0.081  0.00  0.00    +0.012 A 
ATOM      9  C   UNL     1      -7.856   4.173   0.093  0.00  0.00    +0.001 A 
ATOM     10  C   UNL     1      -7.113   5.347   0.094  0.00  0.00    +0.004 A 
ATOM     11  C   UNL     1      -5.736   5.309   0.083  0.00  0.00    +0.047 A 
ATOM     12  C   UNL     1      -5.077   4.084   0.071  0.00  0.00    +0.136 A 
ATOM     13  O   UNL     1      -3.776   3.736   0.058  0.00  0.00    -0.450 OA
ATOM     14  C   UNL     1      -3.637   2.394   0.050  0.00  0.00    +0.194 A 
ENDBRANCH   1  14
BRANCH   3  15
ATOM     15  C   UNL     1      -0.021   1.708   0.015  0.00  0.00    +0.142 C 
ATOM     16  S   UNL     1       0.002  -0.004   0.005  0.00  0.00    -0.018 S 
BRANCH  15  17
ATOM     17  N   UNL     1       1.137   2.397   0.004  0.00  0.00    -0.282 N 
ATOM     18  C   UNL     1       2.352   1.720   0.094  0.00  0.00    +0.124 A 
ATOM     19  C   UNL     1       3.537   2.442   0.191  0.00  0.00    +0.045 A 
ATOM     20  C   UNL     1       4.735   1.758   0.286  0.00  0.00    +0.020 A 
ATOM     21  C   UNL     1       4.708   0.369   0.269  0.00  0.00    +0.036 A 
ATOM     22  C   UNL     1       3.495  -0.283   0.164  0.00  0.00    +0.128 A 
ATOM     23  N   UNL     1       2.367   0.397   0.081  0.00  0.00    -0.239 NA
ATOM     24 BR   UNL     1       6.316  -0.619   0.388  0.00  0.00    -0.049 Br
ATOM     25  H   UNL     1       1.125   3.365  -0.067  0.00  0.00    +0.155 HD
ENDBRANCH  15  17
ENDBRANCH   3  15
TORSDOF 3
