REMARK  Name = ZINC04616605
REMARK  4 active torsions:
REMARK  status: ('A' for Active; 'I' for Inactive)
REMARK    1  A    between atoms: C_1  and  O_2
REMARK    2  A    between atoms: O_2  and  C_3
REMARK    3  A    between atoms: C_8  and  C_9
REMARK    4  A    between atoms: N_10  and  N_11
REMARK                            x       y       z     vdW  Elec       q    Type
REMARK                         _______ _______ _______ _____ _____    ______ ____
ROOT
ATOM      1  C   UNL     1       2.620   5.311   0.004  0.00  0.00    +0.142 C 
ATOM      2  N   UNL     1       2.493   4.019  -0.001  0.00  0.00    -0.188 NA
ENDROOT
BRANCH   2   3
ATOM      3  N   UNL     1       1.217   3.440   0.008  0.00  0.00    -0.215 N 
ATOM      4  C   UNL     1       1.083   2.067   0.003  0.00  0.00    +0.179 A 
ATOM      5  N   UNL     1      -0.016   1.346   0.009  0.00  0.00    -0.224 NA
ATOM      6  C   UNL     1       0.002  -0.004   0.002  0.00  0.00    +0.080 A 
ATOM      7  C   UNL     1      -1.099  -0.892   0.007  0.00  0.00    +0.029 A 
ATOM      8  C   UNL     1      -0.904  -2.248  -0.003  0.00  0.00    +0.002 A 
ATOM      9  C   UNL     1       0.370  -2.798  -0.018  0.00  0.00    +0.001 A 
ATOM     10  C   UNL     1       1.469  -1.959  -0.023  0.00  0.00    +0.017 A 
ATOM     11  C   UNL     1       1.284  -0.599  -0.013  0.00  0.00    +0.041 A 
ATOM     12  S   UNL     1       2.359   0.815  -0.016  0.00  0.00    -0.051 S 
ATOM     13  H   UNL     1       0.429   4.005   0.018  0.00  0.00    +0.176 HD
ENDBRANCH   2   3
BRANCH   1  19
ATOM     14  C   UNL     1       5.104   5.108  -0.019  0.00  0.00    +0.129 A 
ATOM     15  C   UNL     1       6.361   5.690  -0.029  0.00  0.00    +0.047 A 
ATOM     16  C   UNL     1       6.488   7.066  -0.024  0.00  0.00    +0.019 A 
ATOM     17  C   UNL     1       5.362   7.873  -0.009  0.00  0.00    +0.019 A 
ATOM     18  C   UNL     1       4.103   7.309  -0.005  0.00  0.00    +0.028 A 
ATOM     19  C   UNL     1       3.962   5.920  -0.005  0.00  0.00    +0.037 A 
ATOM     20 BR   UNL     1       5.552   9.755  -0.003  0.00  0.00    -0.050 Br
BRANCH  14  22
ATOM     21  C   UNL     1       6.187   2.992  -0.040  0.00  0.00    +0.277 C 
ATOM     22  O   UNL     1       4.979   3.755  -0.025  0.00  0.00    -0.494 OA
ENDBRANCH  14  22
ENDBRANCH   1  19
TORSDOF 3
