REMARK  Name = ZINC12521416
REMARK  11 active torsions:
REMARK  status: ('A' for Active; 'I' for Inactive)
REMARK    1  A    between atoms: C_1  and  C_2
REMARK    2  A    between atoms: C_3  and  C_28
REMARK    3  A    between atoms: C_4  and  C_27
REMARK    4  A    between atoms: C_5  and  S_10
REMARK    5  A    between atoms: C_6  and  C_9
REMARK    6  A    between atoms: C_7  and  C_8
REMARK    7  A    between atoms: S_10  and  N_13
REMARK    8  A    between atoms: N_13  and  C_14
REMARK    9  A    between atoms: C_18  and  N_20
REMARK   10  A    between atoms: C_24  and  S_25
REMARK   11  A    between atoms: S_25  and  C_26
REMARK                            x       y       z     vdW  Elec       q    Type
REMARK                         _______ _______ _______ _____ _____    ______ ____
ROOT
ATOM      1  N   UNL     1      -2.989   2.549  10.522  0.00  0.00    -0.216 N 
ATOM      2  H   UNL     1      -2.031   2.703  10.538  0.00  0.00    +0.174 HD
ENDROOT
BRANCH   1   3
ATOM      3  C   UNL     1      -3.758   2.817  11.656  0.00  0.00    +0.050 A 
ATOM      4  C   UNL     1      -4.952   3.519  11.537  0.00  0.00    +0.024 A 
ATOM      5  C   UNL     1      -5.714   3.784  12.658  0.00  0.00    +0.004 A 
ATOM      6  C   UNL     1      -5.295   3.347  13.900  0.00  0.00    +0.026 A 
ATOM      7  C   UNL     1      -4.101   2.650  14.027  0.00  0.00    +0.052 A 
ATOM      8  C   UNL     1      -3.333   2.382  12.903  0.00  0.00    +0.050 A 
BRANCH   7   9
ATOM      9  N   UNL     1      -3.674   2.213  15.289  0.00  0.00    -0.277 N 
ATOM     10  C   UNL     1      -3.263   0.952  15.633  0.00  0.00    +0.230 A 
ATOM     11  N   UNL     1      -2.955   0.977  16.899  0.00  0.00    -0.137 NA
ATOM     12  N   UNL     1      -3.136   2.156  17.375  0.00  0.00    -0.122 NA
ATOM     13  C   UNL     1      -3.582   2.955  16.434  0.00  0.00    +0.196 A 
BRANCH  13  14
ATOM     14  S   UNL     1      -3.979   4.663  16.610  0.00  0.00    -0.089 S 
ATOM     15  C   UNL     1      -3.604   4.894  18.366  0.00  0.00    +0.093 C 
ENDBRANCH  13  14
ENDBRANCH   7   9
ENDBRANCH   1   3
BRANCH   1  16
ATOM     16  S   UNL     1      -3.710   1.968   9.149  0.00  0.00    +0.073 S 
ATOM     17  O   UNL     1      -2.675   1.780   8.194  0.00  0.00    -0.150 OA
ATOM     18  O   UNL     1      -4.570   0.913   9.558  0.00  0.00    -0.150 OA
BRANCH  16  23
ATOM     19  C   UNL     1      -7.259   6.352   7.007  0.00  0.00    +0.044 C 
ATOM     20  C   UNL     1      -6.373   5.257   7.543  0.00  0.00    -0.044 A 
ATOM     21  C   UNL     1      -6.934   4.107   8.065  0.00  0.00    -0.043 A 
ATOM     22  C   UNL     1      -6.121   3.102   8.556  0.00  0.00    -0.020 A 
ATOM     23  C   UNL     1      -4.747   3.248   8.524  0.00  0.00    +0.115 A 
ATOM     24  C   UNL     1      -4.186   4.400   8.006  0.00  0.00    -0.020 A 
ATOM     25  C   UNL     1      -4.998   5.403   7.511  0.00  0.00    -0.043 A 
ATOM     26  C   UNL     1      -4.387   6.657   6.941  0.00  0.00    +0.044 C 
ATOM     27  C   UNL     1      -2.688   4.562   7.977  0.00  0.00    +0.046 C 
ATOM     28  C   UNL     1      -6.733   1.849   9.125  0.00  0.00    +0.046 C 
ATOM     29  C   UNL     1      -8.432   3.948   8.099  0.00  0.00    +0.044 C 
ENDBRANCH  16  23
ENDBRANCH   1  16
TORSDOF 5
