REMARK  Name = ZINC66320815
REMARK  6 active torsions:
REMARK  status: ('A' for Active; 'I' for Inactive)
REMARK    1  A    between atoms: C_1  and  C_2
REMARK    2  A    between atoms: C_2  and  C_3
REMARK    3  A    between atoms: C_3  and  C_11
REMARK    4  A    between atoms: C_14  and  N_17
REMARK    5  A    between atoms: C_18  and  C_20
REMARK    6  A    between atoms: C_23  and  C_25
REMARK                            x       y       z     vdW  Elec       q    Type
REMARK                         _______ _______ _______ _____ _____    ______ ____
ROOT
ATOM      1  C   UNL     1       2.200   0.117  -1.137  0.00  0.00    -0.032 A 
ATOM      2  C   UNL     1       3.258  -0.773  -1.108  0.00  0.00    +0.006 A 
ATOM      3  C   UNL     1       4.553  -0.305  -1.010  0.00  0.00    +0.023 A 
ATOM      4  C   UNL     1       4.793   1.061  -0.940  0.00  0.00    +0.033 A 
ATOM      5  C   UNL     1       3.728   1.952  -0.969  0.00  0.00    +0.023 A 
ATOM      6  C   UNL     1       2.435   1.478  -1.073  0.00  0.00    +0.006 A 
ENDROOT
BRANCH   1   7
ATOM      7  C   UNL     1       0.787  -0.397  -1.244  0.00  0.00    +0.072 C 
ATOM      8  C   UNL     1       0.790  -1.928  -1.165  0.00  0.00    +0.030 C 
ATOM      9  C   UNL     1      -0.640  -2.431  -1.389  0.00  0.00    +0.097 C 
ATOM     10  C   UNL     1      -1.154  -1.895  -2.699  0.00  0.00    +0.219 C 
ATOM     11  O   UNL     1      -1.976  -2.533  -3.320  0.00  0.00    -0.275 OA
ATOM     12  N   UNL     1      -0.720  -0.725  -3.191  0.00  0.00    -0.256 N 
ATOM     13  C   UNL     1       0.196   0.028  -2.562  0.00  0.00    +0.230 C 
ATOM     14  O   UNL     1       0.553   1.072  -3.065  0.00  0.00    -0.274 OA
ATOM     15  H   UNL     1      -1.082  -0.411  -4.034  0.00  0.00    +0.157 HD
BRANCH   7  17
ATOM     16  C   UNL     1       0.590  -0.200   1.238  0.00  0.00    +0.005 C 
ATOM     17  C   UNL     1      -0.053   0.172  -0.099  0.00  0.00    +0.017 C 
ENDBRANCH   7  17
ENDBRANCH   1   7
BRANCH   4  18
ATOM     18  N   UNL     1       6.104   1.538  -0.840  0.00  0.00    -0.285 N 
ATOM     19  C   UNL     1       7.110   0.877  -1.446  0.00  0.00    +0.221 C 
ATOM     20  O   UNL     1       6.869  -0.077  -2.154  0.00  0.00    -0.275 OA
ATOM     21  H   UNL     1       6.290   2.345  -0.334  0.00  0.00    +0.155 HD
BRANCH  19  22
ATOM     22  C   UNL     1       8.535   1.324  -1.243  0.00  0.00    +0.083 C 
ATOM     23  C   UNL     1       9.260   1.938  -2.442  0.00  0.00    +0.022 C 
ATOM     24  C   UNL     1       9.632   0.534  -1.960  0.00  0.00    +0.032 C 
BRANCH  24  25
ATOM     25  C   UNL     1       9.205  -0.631  -2.815  0.00  0.00    -0.044 A 
ATOM     26  C   UNL     1       8.360  -0.427  -3.890  0.00  0.00    +0.004 A 
ATOM     27  C   UNL     1       7.968  -1.496  -4.673  0.00  0.00    +0.000 A 
ATOM     28  C   UNL     1       8.421  -2.769  -4.383  0.00  0.00    +0.000 A 
ATOM     29  C   UNL     1       9.266  -2.974  -3.308  0.00  0.00    +0.000 A 
ATOM     30  C   UNL     1       9.662  -1.904  -2.527  0.00  0.00    +0.004 A 
ENDBRANCH  24  25
ENDBRANCH  19  22
ENDBRANCH   4  18
TORSDOF 5
