REMARK  Name = ZINC35525442
REMARK  8 active torsions:
REMARK  status: ('A' for Active; 'I' for Inactive)
REMARK    1  A    between atoms: C_1  and  C_2
REMARK    2  A    between atoms: C_3  and  C_26
REMARK    3  A    between atoms: C_7  and  N_14
REMARK    4  A    between atoms: C_9  and  C_11
REMARK    5  A    between atoms: C_11  and  C_12
REMARK    6  A    between atoms: C_11  and  C_13
REMARK    7  A    between atoms: C_20  and  C_22
REMARK    8  A    between atoms: C_22  and  C_24
REMARK                            x       y       z     vdW  Elec       q    Type
REMARK                         _______ _______ _______ _____ _____    ______ ____
ROOT
ATOM      1  C   UNL     1       0.221   1.966  -0.284  0.00  0.00    +0.045 C 
ATOM      2  C   UNL     1       0.182   0.467  -0.431  0.00  0.00    -0.028 A 
ATOM      3  C   UNL     1       0.152  -0.094  -1.649  0.00  0.00    -0.008 A 
ATOM      4  S   UNL     1       0.114  -1.842  -1.301  0.00  0.00    -0.074 S 
ATOM      5  C   UNL     1       0.141  -1.772   0.470  0.00  0.00    +0.114 A 
ATOM      6  C   UNL     1       0.184  -0.387   0.743  0.00  0.00    +0.051 A 
ATOM      7  C   UNL     1       0.218  -0.038   2.122  0.00  0.00    +0.133 A 
ATOM      8  N   UNL     1       0.211  -1.000   3.031  0.00  0.00    -0.216 NA
ATOM      9  C   UNL     1       0.175  -2.279   2.702  0.00  0.00    +0.135 A 
ATOM     10  N   UNL     1       0.132  -2.664   1.441  0.00  0.00    -0.224 NA
ATOM     11  C   UNL     1       0.149   0.590  -2.992  0.00  0.00    +0.052 C 
ENDROOT
BRANCH   7  12
ATOM     12  N   UNL     1       0.257   1.290   2.507  0.00  0.00    -0.312 N 
ATOM     13  C   UNL     1      -0.978   2.001   2.868  0.00  0.00    +0.125 C 
ATOM     14  C   UNL     1      -0.811   2.590   4.274  0.00  0.00    +0.126 C 
ATOM     15  N   UNL     1       0.466   3.315   4.330  0.00  0.00    -0.297 N 
ATOM     16  C   UNL     1       1.701   2.604   3.970  0.00  0.00    +0.126 C 
ATOM     17  C   UNL     1       1.535   2.013   2.569  0.00  0.00    +0.125 C 
ATOM     18  C   UNL     1       0.504   4.609   4.706  0.00  0.00    +0.233 C 
ATOM     19  O   UNL     1       1.546   5.226   4.648  0.00  0.00    -0.274 OA
BRANCH  18  20
ATOM     20  C   UNL     1      -0.748   5.288   5.198  0.00  0.00    +0.163 C 
ATOM     21  C   UNL     1      -0.420   6.127   6.435  0.00  0.00    +0.034 C 
ATOM     22 CL   UNL     1      -1.400   6.357   3.902  0.00  0.00    -0.112 Cl
ENDBRANCH  18  20
ENDBRANCH   7  12
BRANCH   9  23
ATOM     23  C   UNL     1       0.170  -3.320   3.791  0.00  0.00    +0.051 C 
ATOM     24  C   UNL     1      -1.102  -4.163   3.685  0.00  0.00    +0.015 C 
ATOM     25  C   UNL     1       1.395  -4.223   3.639  0.00  0.00    +0.015 C 
ENDBRANCH   9  23
TORSDOF 3
