REMARK  Name = ZINC04006972
REMARK  7 active torsions:
REMARK  status: ('A' for Active; 'I' for Inactive)
REMARK    1  A    between atoms: C_1  and  C_2
REMARK    2  A    between atoms: C_2  and  C_4
REMARK    3  A    between atoms: C_14  and  C_35
REMARK    4  A    between atoms: C_24  and  C_34
REMARK    5  A    between atoms: C_27  and  O_30
REMARK    6  A    between atoms: O_30  and  C_31
REMARK    7  A    between atoms: C_31  and  C_33
REMARK                            x       y       z     vdW  Elec       q    Type
REMARK                         _______ _______ _______ _____ _____    ______ ____
ROOT
ATOM      1  C   UNL     1       8.575   6.062   2.545  0.00  0.00    +0.041 C 
ATOM      2  C   UNL     1       8.840   7.310   3.322  0.00  0.00    +0.042 C 
ATOM      3  C   UNL     1       9.262   7.101   4.738  0.00  0.00    -0.030 C 
ATOM      4  C   UNL     1       9.597   5.950   5.214  0.00  0.00    -0.031 C 
ATOM      5  C   UNL     1       9.600   4.678   4.446  0.00  0.00    +0.031 C 
ATOM      6  C   UNL     1       9.388   4.820   2.944  0.00  0.00    +0.007 C 
ATOM      7  C   UNL     1       8.483   3.600   2.552  0.00  0.00    +0.009 C 
ATOM      8  C   UNL     1       7.306   4.214   1.796  0.00  0.00    -0.000 C 
ATOM      9  C   UNL     1       7.125   5.593   2.473  0.00  0.00    -0.016 C 
ATOM     10  C   UNL     1       6.180   6.405   1.617  0.00  0.00    +0.008 C 
ATOM     11  C   UNL     1       4.847   5.672   1.419  0.00  0.00    +0.005 C 
ATOM     12  C   UNL     1       4.792   4.285   2.021  0.00  0.00    +0.003 C 
ATOM     13  C   UNL     1       6.029   3.438   1.724  0.00  0.00    +0.000 C 
ATOM     14  C   UNL     1       5.999   2.244   2.688  0.00  0.00    +0.031 C 
ATOM     15  C   UNL     1       4.708   1.508   2.454  0.00  0.00    -0.027 C 
ATOM     16  C   UNL     1       3.651   2.061   1.944  0.00  0.00    -0.064 C 
ATOM     17  C   UNL     1       3.557   3.514   1.546  0.00  0.00    -0.008 C 
ATOM     18  C   UNL     1       3.373   3.590   0.037  0.00  0.00    +0.015 C 
ATOM     19  C   UNL     1       3.067   2.204  -0.531  0.00  0.00    +0.046 C 
ATOM     20  C   UNL     1       1.967   1.489   0.245  0.00  0.00    +0.180 C 
ATOM     21  C   UNL     1       2.416   1.213   1.687  0.00  0.00    +0.075 C 
ATOM     22  C   UNL     1       2.336   4.133   2.234  0.00  0.00    +0.016 C 
ATOM     23  C   UNL     1       6.605   5.498   3.917  0.00  0.00    +0.012 C 
ENDROOT
BRANCH   1  25
ATOM     24  C   UNL     1       8.688   7.731   0.534  0.00  0.00    +0.086 C 
ATOM     25  C   UNL     1       9.026   6.392   1.139  0.00  0.00    +0.137 C 
ATOM     26  O   UNL     1       9.656   5.584   0.501  0.00  0.00    -0.297 OA
ENDBRANCH   1  25
BRANCH  20  27
ATOM     27  O   UNL     1       0.761   2.297   0.253  0.00  0.00    -0.461 OA
BRANCH  27  28
ATOM     28  C   UNL     1      -0.410   1.643   0.312  0.00  0.00    +0.304 C 
ATOM     29  O   UNL     1      -0.426   0.436   0.356  0.00  0.00    -0.251 OA
ATOM     30  C   UNL     1      -1.704   2.415   0.317  0.00  0.00    +0.136 C 
ENDBRANCH  27  28
ENDBRANCH  20  27
TORSDOF 3
