REMARK  Name = ZINC16491716
REMARK  5 active torsions:
REMARK  status: ('A' for Active; 'I' for Inactive)
REMARK    1  A    between atoms: C_4  and  C_7
REMARK    2  A    between atoms: C_9  and  C_34
REMARK    3  A    between atoms: C_22  and  C_23
REMARK    4  A    between atoms: C_22  and  C_25
REMARK    5  A    between atoms: C_25  and  C_27
REMARK                            x       y       z     vdW  Elec       q    Type
REMARK                         _______ _______ _______ _____ _____    ______ ____
ROOT
ATOM      1  C   UNL     1       0.199   5.572   0.556  0.00  0.00    +0.083 C 
ATOM      2  C   UNL     1      -0.131   5.837  -0.935  0.00  0.00    +0.186 C 
ATOM      3  N   UNL     1      -1.518   6.287  -0.962  0.00  0.00    -0.305 N 
ATOM      4  C   UNL     1      -1.954   7.083  -1.993  0.00  0.00    +0.038 A 
ATOM      5  C   UNL     1      -1.223   7.270  -3.164  0.00  0.00    +0.024 A 
ATOM      6  C   UNL     1      -1.716   8.106  -4.150  0.00  0.00    +0.002 A 
ATOM      7  C   UNL     1      -2.920   8.766  -3.976  0.00  0.00    +0.001 A 
ATOM      8  C   UNL     1      -3.649   8.596  -2.814  0.00  0.00    +0.010 A 
ATOM      9  C   UNL     1      -3.168   7.758  -1.817  0.00  0.00    -0.004 A 
ATOM     10  C   UNL     1      -3.917   7.539  -0.557  0.00  0.00    +0.007 C 
ATOM     11  C   UNL     1      -3.219   7.149   0.524  0.00  0.00    -0.002 C 
ATOM     12  C   UNL     1      -1.741   6.974   0.337  0.00  0.00    +0.126 C 
ATOM     13  C   UNL     1      -1.076   6.007   1.331  0.00  0.00    +0.151 C 
ENDROOT
BRANCH   1  17
ATOM     14  C   UNL     1       0.979   1.421   1.192  0.00  0.00    +0.000 A 
ATOM     15  C   UNL     1      -0.122   1.812   0.452  0.00  0.00    +0.000 A 
ATOM     16  C   UNL     1      -0.376   3.155   0.249  0.00  0.00    +0.004 A 
ATOM     17  C   UNL     1       0.474   4.108   0.780  0.00  0.00    -0.040 A 
ATOM     18  C   UNL     1       1.577   3.716   1.515  0.00  0.00    +0.004 A 
ATOM     19  C   UNL     1       1.829   2.373   1.721  0.00  0.00    +0.000 A 
ENDBRANCH   1  17
BRANCH  13  20
ATOM     20  C   UNL     1      -0.721   6.700   2.580  0.00  0.00    +0.080 C 
ATOM     21  N   UNL     1      -0.446   7.235   3.544  0.00  0.00    -0.195 NA
ENDBRANCH  13  20
BRANCH  13  22
ATOM     22  C   UNL     1      -1.967   4.824   1.609  0.00  0.00    +0.189 C 
ATOM     23  O   UNL     1      -2.931   4.612   0.905  0.00  0.00    -0.290 OA
BRANCH  22  24
ATOM     24  C   UNL     1      -1.667   3.927   2.735  0.00  0.00    +0.054 A 
ATOM     25  C   UNL     1      -0.498   4.103   3.483  0.00  0.00    +0.014 A 
ATOM     26  C   UNL     1      -0.227   3.261   4.539  0.00  0.00    +0.001 A 
ATOM     27  C   UNL     1      -1.102   2.235   4.857  0.00  0.00    +0.003 A 
ATOM     28  C   UNL     1      -2.257   2.049   4.121  0.00  0.00    +0.039 A 
ATOM     29  C   UNL     1      -2.548   2.887   3.061  0.00  0.00    +0.134 A 
ATOM     30  F   UNL     1      -3.678   2.705   2.342  0.00  0.00    -0.205 F 
ENDBRANCH  22  24
ENDBRANCH  13  22
BRANCH   2  31
ATOM     31  C   UNL     1       0.754   6.883  -1.473  0.00  0.00    +0.086 C 
ATOM     32  N   UNL     1       1.437   7.690  -1.888  0.00  0.00    -0.195 NA
ENDBRANCH   2  31
TORSDOF 5
