REMARK  Name = ZINC20503734
REMARK  12 active torsions:
REMARK  status: ('A' for Active; 'I' for Inactive)
REMARK    1  A    between atoms: C_1  and  N_2
REMARK    2  A    between atoms: C_3  and  C_15
REMARK    3  A    between atoms: C_5  and  C_7
REMARK    4  A    between atoms: C_12  and  O_13
REMARK    5  A    between atoms: O_13  and  C_14
REMARK    6  A    between atoms: C_24  and  C_26
REMARK    7  A    between atoms: C_26  and  N_27
REMARK    8  A    between atoms: N_27  and  C_28
REMARK    9  A    between atoms: C_28  and  C_29
REMARK   10  A    between atoms: C_32  and  N_35
REMARK   11  A    between atoms: N_35  and  C_36
REMARK   12  A    between atoms: N_35  and  C_37
REMARK                            x       y       z     vdW  Elec       q    Type
REMARK                         _______ _______ _______ _____ _____    ______ ____
ROOT
ATOM      1  C   UNL     1      -0.082  -0.134  -2.438  0.00  0.00    +0.024 C 
ATOM      2  C   UNL     1       1.311  -0.172  -3.071  0.00  0.00    -0.069 C 
ATOM      3  N   UNL     1       1.285  -0.981  -4.292  0.00  0.00    +0.381 N 
ATOM      4  C   UNL     1       0.372  -0.399  -5.277  0.00  0.00    -0.078 C 
ATOM      5  C   UNL     1      -1.052  -0.368  -4.718  0.00  0.00    -0.015 C 
ATOM      6  C   UNL     1      -1.044  -0.960  -3.302  0.00  0.00    -0.007 C 
ATOM      7  C   UNL     1      -0.509  -2.396  -3.385  0.00  0.00    -0.013 C 
ATOM      8  C   UNL     1       0.903  -2.362  -3.987  0.00  0.00    -0.086 C 
ATOM      9  H   UNL     1       2.212  -0.987  -4.690  0.00  0.00    -0.082 HD
ENDROOT
BRANCH   1  12
ATOM     10  C   UNL     1       2.003   0.524  -0.246  0.00  0.00    +0.172 C 
ATOM     11  N   UNL     1       0.893  -0.421  -0.103  0.00  0.00    -0.271 N 
ATOM     12  C   UNL     1      -0.022  -0.717  -1.050  0.00  0.00    +0.041 A 
ATOM     13  C   UNL     1      -0.876  -1.628  -0.534  0.00  0.00    +0.053 A 
ATOM     14  C   UNL     1      -0.468  -1.903   0.786  0.00  0.00    +0.096 A 
ATOM     15  N   UNL     1       0.601  -1.179   1.038  0.00  0.00    -0.171 NA
BRANCH  14  16
ATOM     16  C   UNL     1      -1.124  -2.848   1.723  0.00  0.00    +0.044 A 
ATOM     17  C   UNL     1      -2.248  -3.565   1.321  0.00  0.00    +0.014 A 
ATOM     18  C   UNL     1      -2.854  -4.443   2.197  0.00  0.00    +0.001 A 
ATOM     19  C   UNL     1      -2.349  -4.614   3.474  0.00  0.00    +0.004 A 
ATOM     20  C   UNL     1      -1.234  -3.908   3.882  0.00  0.00    +0.046 A 
ATOM     21  C   UNL     1      -0.612  -3.027   3.012  0.00  0.00    +0.129 A 
BRANCH  21  22
ATOM     22  O   UNL     1       0.488  -2.337   3.410  0.00  0.00    -0.494 OA
ATOM     23  C   UNL     1       0.954  -2.571   4.741  0.00  0.00    +0.277 C 
ENDBRANCH  21  22
ENDBRANCH  14  16
ENDBRANCH   1  12
BRANCH   8  24
ATOM     24  C   UNL     1       1.898  -2.955  -2.987  0.00  0.00    -0.098 C 
BRANCH  24  25
ATOM     25  N   UNL     1       3.262  -2.826  -3.518  0.00  0.00    +0.381 N 
ATOM     26  H   UNL     1       3.330  -3.322  -4.394  0.00  0.00    -0.086 HD
ATOM     27  H   UNL     1       3.475  -1.851  -3.666  0.00  0.00    -0.086 HD
BRANCH  25  28
ATOM     28  C   UNL     1       4.217  -3.396  -2.558  0.00  0.00    -0.047 C 
BRANCH  28  29
ATOM     29  C   UNL     1       5.616  -3.264  -3.102  0.00  0.00    -0.064 A 
ATOM     30  C   UNL     1       6.149  -4.271  -3.886  0.00  0.00    +0.003 A 
ATOM     31  C   UNL     1       7.430  -4.154  -4.386  0.00  0.00    +0.023 A 
ATOM     32  C   UNL     1       8.184  -3.022  -4.102  0.00  0.00    +0.029 A 
ATOM     33  C   UNL     1       7.646  -2.012  -3.315  0.00  0.00    +0.023 A 
ATOM     34  C   UNL     1       6.361  -2.134  -2.822  0.00  0.00    +0.003 A 
BRANCH  32  35
ATOM     35  N   UNL     1       9.481  -2.900  -4.607  0.00  0.00    -0.336 N 
ATOM     36  C   UNL     1      10.007  -3.911  -5.527  0.00  0.00    +0.129 C 
ATOM     37  C   UNL     1      10.315  -1.761  -4.215  0.00  0.00    +0.129 C 
ENDBRANCH  32  35
ENDBRANCH  28  29
ENDBRANCH  25  28
ENDBRANCH  24  25
ENDBRANCH   8  24
TORSDOF 8
