REMARK  Name = ZINC61962955
REMARK  8 active torsions:
REMARK  status: ('A' for Active; 'I' for Inactive)
REMARK    1  A    between atoms: C_8  and  C_10
REMARK    2  A    between atoms: C_10  and  C_11
REMARK    3  A    between atoms: C_11  and  C_12
REMARK    4  A    between atoms: C_12  and  N_13
REMARK    5  A    between atoms: N_16  and  C_17
REMARK    6  A    between atoms: C_17  and  C_18
REMARK    7  A    between atoms: C_18  and  C_19
REMARK    8  A    between atoms: C_18  and  O_26
REMARK                            x       y       z     vdW  Elec       q    Type
REMARK                         _______ _______ _______ _____ _____    ______ ____
ROOT
ATOM      1  N   UNL     1       3.736  -6.390  -2.893  0.00  0.00    -0.299 N 
ATOM      2  C   UNL     1       4.093  -7.664  -3.149  0.00  0.00    +0.300 C 
ATOM      3  O   UNL     1       4.317  -8.430  -2.232  0.00  0.00    -0.253 OA
ATOM      4  N   UNL     1       4.203  -8.090  -4.423  0.00  0.00    -0.297 N 
ATOM      5  H   UNL     1       3.558  -5.779  -3.625  0.00  0.00    +0.150 HD
ATOM      6  H   UNL     1       4.024  -7.479  -5.156  0.00  0.00    +0.150 HD
ENDROOT
BRANCH   1   7
ATOM      7  C   UNL     1       3.617  -5.927  -1.508  0.00  0.00    +0.106 C 
BRANCH   7   8
ATOM      8  C   UNL     1       3.202  -4.455  -1.496  0.00  0.00    +0.025 C 
BRANCH   8   9
ATOM      9  C   UNL     1       3.078  -3.972  -0.050  0.00  0.00    +0.064 C 
BRANCH   9  17
ATOM     10  C   UNL     1      -0.016   1.357   0.009  0.00  0.00    +0.002 A 
ATOM     11  C   UNL     1       1.156   2.100   0.002  0.00  0.00    +0.001 A 
ATOM     12  C   UNL     1       2.375   1.449  -0.013  0.00  0.00    +0.017 A 
ATOM     13  C   UNL     1       2.404   0.076  -0.021  0.00  0.00    +0.039 A 
ATOM     14  C   UNL     1       1.226  -0.705  -0.013  0.00  0.00    +0.078 A 
ATOM     15  C   UNL     1       0.002  -0.004   0.002  0.00  0.00    +0.029 A 
ATOM     16  N   UNL     1       1.464  -2.033  -0.023  0.00  0.00    -0.244 NA
ATOM     17  C   UNL     1       2.669  -2.521  -0.038  0.00  0.00    +0.080 A 
ATOM     18  S   UNL     1       3.669  -1.167  -0.040  0.00  0.00    -0.072 S 
ENDBRANCH   9  17
ENDBRANCH   8   9
ENDBRANCH   7   8
ENDBRANCH   1   7
BRANCH   4  19
ATOM     19  C   UNL     1       4.591  -9.475  -4.702  0.00  0.00    +0.141 C 
BRANCH  19  20
ATOM     20  C   UNL     1       4.640  -9.695  -6.216  0.00  0.00    +0.162 C 
BRANCH  20  21
ATOM     21  C   UNL     1       5.040 -11.120  -6.503  0.00  0.00    -0.017 A 
ATOM     22  C   UNL     1       4.080 -12.115  -6.528  0.00  0.00    +0.009 A 
ATOM     23  C   UNL     1       4.444 -13.421  -6.791  0.00  0.00    +0.039 A 
ATOM     24  C   UNL     1       5.772 -13.734  -7.030  0.00  0.00    +0.123 A 
ATOM     25  C   UNL     1       6.732 -12.737  -7.005  0.00  0.00    +0.039 A 
ATOM     26  C   UNL     1       6.364 -11.430  -6.746  0.00  0.00    +0.009 A 
ATOM     27  F   UNL     1       6.130 -15.011  -7.287  0.00  0.00    -0.205 F 
ENDBRANCH  20  21
BRANCH  20  28
ATOM     28  O   UNL     1       3.351  -9.440  -6.777  0.00  0.00    -0.386 OA
ATOM     29  H   UNL     1       2.651 -10.008  -6.428  0.00  0.00    +0.210 HD
ENDBRANCH  20  28
ENDBRANCH  19  20
ENDBRANCH   4  19
TORSDOF 8
