REMARK  Name = ZINC32932988
REMARK  9 active torsions:
REMARK  status: ('A' for Active; 'I' for Inactive)
REMARK    1  A    between atoms: C_1  and  C_2
REMARK    2  A    between atoms: C_2  and  C_4
REMARK    3  A    between atoms: C_7  and  O_10
REMARK    4  A    between atoms: O_10  and  C_11
REMARK    5  A    between atoms: C_11  and  C_12
REMARK    6  A    between atoms: C_12  and  C_14
REMARK    7  A    between atoms: C_12  and  O_31
REMARK    8  A    between atoms: C_14  and  N_15
REMARK    9  A    between atoms: C_18  and  C_23
REMARK                            x       y       z     vdW  Elec       q    Type
REMARK                         _______ _______ _______ _____ _____    ______ ____
ROOT
ATOM      1  N   UNL     1      -0.827   1.345   3.699  0.00  0.00    -0.222 N 
ATOM      2  C   UNL     1      -1.853   0.632   4.203  0.00  0.00    +0.248 C 
ATOM      3  O   UNL     1      -2.309  -0.404   3.768  0.00  0.00    -0.273 OA
ATOM      4  C   UNL     1      -2.321   1.396   5.426  0.00  0.00    +0.191 C 
ATOM      5  N   UNL     1      -1.418   2.559   5.474  0.00  0.00    -0.284 N 
ATOM      6  C   UNL     1      -0.579   2.438   4.429  0.00  0.00    +0.309 C 
ATOM      7  O   UNL     1       0.302   3.236   4.174  0.00  0.00    -0.252 OA
ATOM      8  H   UNL     1      -1.527   3.308   6.273  0.00  0.00    +0.151 HD
ENDROOT
BRANCH   4   9
ATOM      9  C   UNL     1      -2.167   0.555   6.667  0.00  0.00    -0.017 A 
ATOM     10  C   UNL     1      -0.928   0.433   7.270  0.00  0.00    +0.009 A 
ATOM     11  C   UNL     1      -0.787  -0.334   8.411  0.00  0.00    +0.040 A 
ATOM     12  C   UNL     1      -1.883  -0.990   8.944  0.00  0.00    +0.137 A 
ATOM     13  C   UNL     1      -3.123  -0.871   8.337  0.00  0.00    +0.053 A 
ATOM     14  C   UNL     1      -3.263  -0.098   7.199  0.00  0.00    +0.024 A 
ATOM     15 BR   UNL     1      -4.622  -1.765   9.064  0.00  0.00    -0.047 Br
ATOM     16  F   UNL     1      -1.745  -1.744  10.056  0.00  0.00    -0.204 F 
ENDBRANCH   4   9
BRANCH   1  17
ATOM     17  C   UNL     1      -0.070   0.965   2.503  0.00  0.00    +0.152 C 
BRANCH  17  18
ATOM     18  C   UNL     1      -0.729   1.581   1.266  0.00  0.00    +0.170 C 
BRANCH  18  19
ATOM     19  O   UNL     1      -0.635   3.005   1.337  0.00  0.00    -0.387 OA
ATOM     20  H   UNL     1      -1.093   3.546   2.178  0.00  0.00    +0.210 HD
ENDBRANCH  18  19
BRANCH  18  21
ATOM     21  C   UNL     1      -0.015   1.084   0.008  0.00  0.00    +0.261 C 
BRANCH  21  22
ATOM     22  O   UNL     1      -0.700   1.566  -1.150  0.00  0.00    -0.489 OA
BRANCH  22  26
ATOM     23  C   UNL     1       0.844   0.494  -4.820  0.00  0.00    +0.017 A 
ATOM     24  C   UNL     1      -0.302   1.295  -4.747  0.00  0.00    +0.015 A 
ATOM     25  C   UNL     1      -0.812   1.648  -3.524  0.00  0.00    +0.046 A 
ATOM     26  C   UNL     1      -0.192   1.213  -2.357  0.00  0.00    +0.121 A 
ATOM     27  C   UNL     1       0.950   0.422  -2.425  0.00  0.00    +0.046 A 
ATOM     28  C   UNL     1       1.464   0.058  -3.643  0.00  0.00    +0.015 A 
BRANCH  23  30
ATOM     29  C   UNL     1       2.696  -0.642  -6.205  0.00  0.00    +0.091 C 
ATOM     30  C   UNL     1       1.395   0.114  -6.127  0.00  0.00    +0.160 C 
ATOM     31  O   UNL     1       0.802   0.407  -7.144  0.00  0.00    -0.292 OA
ENDBRANCH  23  30
ENDBRANCH  22  26
ENDBRANCH  21  22
ENDBRANCH  18  21
ENDBRANCH  17  18
ENDBRANCH   1  17
TORSDOF 8
