REMARK  Name = ZINC36032252
REMARK  14 active torsions:
REMARK  status: ('A' for Active; 'I' for Inactive)
REMARK    1  A    between atoms: C_1  and  C_2
REMARK    2  A    between atoms: C_6  and  C_8
REMARK    3  A    between atoms: C_8  and  S_9
REMARK    4  A    between atoms: S_9  and  C_12
REMARK    5  A    between atoms: C_15  and  C_23
REMARK    6  A    between atoms: N_16  and  C_17
REMARK    7  A    between atoms: C_23  and  N_24
REMARK    8  A    between atoms: N_24  and  C_25
REMARK    9  A    between atoms: N_24  and  C_32
REMARK   10  A    between atoms: C_25  and  C_26
REMARK   11  A    between atoms: C_32  and  N_34
REMARK   12  A    between atoms: N_34  and  C_35
REMARK   13  A    between atoms: C_35  and  C_36
REMARK   14  A    between atoms: C_35  and  C_37
REMARK                            x       y       z     vdW  Elec       q    Type
REMARK                         _______ _______ _______ _____ _____    ______ ____
ROOT
ATOM      1  C   UNL     1       1.498  -3.897   4.582  0.00  0.00    +0.252 A 
ATOM      2  N   UNL     1       1.425  -3.263   5.721  0.00  0.00    -0.220 NA
ATOM      3  C   UNL     1       1.550  -4.142   6.726  0.00  0.00    +0.137 A 
ATOM      4  C   UNL     1       1.708  -5.367   6.190  0.00  0.00    +0.057 A 
ATOM      5  N   UNL     1       1.670  -5.213   4.830  0.00  0.00    -0.309 N 
ENDROOT
BRANCH   5   6
ATOM      6  C   UNL     1       1.795  -6.277   3.830  0.00  0.00    +0.090 C 
ATOM      7  C   UNL     1       3.167  -6.187   3.159  0.00  0.00    +0.025 C 
ATOM      8  C   UNL     1       3.297  -7.298   2.115  0.00  0.00    +0.002 C 
ATOM      9  C   UNL     1       2.201  -7.137   1.060  0.00  0.00    +0.000 C 
ATOM     10  C   UNL     1       0.829  -7.227   1.731  0.00  0.00    +0.002 C 
ATOM     11  C   UNL     1       0.699  -6.116   2.775  0.00  0.00    +0.025 C 
ENDBRANCH   5   6
BRANCH   1  12
ATOM     12  S   UNL     1       1.386  -3.158   2.986  0.00  0.00    +0.034 S 
ATOM     13  O   UNL     1       2.202  -3.969   2.153  0.00  0.00    -0.166 OA
ATOM     14  O   UNL     1       1.701  -1.789   3.197  0.00  0.00    -0.166 OA
BRANCH  12  15
ATOM     15  C   UNL     1      -0.357  -3.333   2.514  0.00  0.00    +0.210 C 
BRANCH  15  21
ATOM     16  C   UNL     1      -1.352   0.345  -0.731  0.00  0.00    +0.044 C 
ATOM     17  C   UNL     1      -1.020  -1.099  -0.457  0.00  0.00    -0.050 A 
ATOM     18  C   UNL     1      -0.885  -1.989  -1.506  0.00  0.00    +0.003 A 
ATOM     19  C   UNL     1      -0.580  -3.314  -1.255  0.00  0.00    +0.001 A 
ATOM     20  C   UNL     1      -0.409  -3.748   0.046  0.00  0.00    +0.005 A 
ATOM     21  C   UNL     1      -0.543  -2.859   1.096  0.00  0.00    -0.026 A 
ATOM     22  C   UNL     1      -0.844  -1.533   0.844  0.00  0.00    +0.008 A 
ENDBRANCH  15  21
ENDBRANCH  12  15
ENDBRANCH   1  12
BRANCH   4  23
ATOM     23  C   UNL     1       1.886  -6.661   6.942  0.00  0.00    +0.161 C 
BRANCH  23  24
ATOM     24  N   UNL     1       0.587  -7.321   7.093  0.00  0.00    -0.304 N 
BRANCH  24  25
ATOM     25  C   UNL     1      -0.179  -7.061   8.171  0.00  0.00    +0.133 C 
ATOM     26  S   UNL     1      -1.697  -7.833   8.348  0.00  0.00    -0.019 S 
BRANCH  25  27
ATOM     27  N   UNL     1       0.249  -6.194   9.110  0.00  0.00    -0.324 N 
ATOM     28  H   UNL     1       1.110  -5.757   9.010  0.00  0.00    +0.148 HD
BRANCH  27  29
ATOM     29  C   UNL     1      -0.584  -5.912  10.281  0.00  0.00    +0.066 C 
ATOM     30  C   UNL     1       0.303  -5.446  11.438  0.00  0.00    +0.027 C 
ATOM     31  C   UNL     1      -1.592  -4.814   9.937  0.00  0.00    +0.027 C 
ENDBRANCH  27  29
ENDBRANCH  25  27
ENDBRANCH  24  25
BRANCH  24  32
ATOM     32  C   UNL     1       0.121  -8.263   6.073  0.00  0.00    +0.138 C 
BRANCH  32  33
ATOM     33  C   UNL     1       0.592  -9.675   6.429  0.00  0.00    +0.136 C 
ATOM     34  C   UNL     1       0.210 -10.655   5.300  0.00  0.00    +0.035 C 
ATOM     35  C   UNL     1      -0.219 -11.920   6.092  0.00  0.00    +0.031 C 
ATOM     36  C   UNL     1      -0.860 -11.277   7.347  0.00  0.00    +0.160 C 
ATOM     37  O   UNL     1      -0.058 -10.116   7.627  0.00  0.00    -0.375 OA
ENDBRANCH  32  33
ENDBRANCH  24  32
ENDBRANCH  23  24
ENDBRANCH   4  23
TORSDOF 11
