REMARK  Name = ZINC64603995
REMARK  5 active torsions:
REMARK  status: ('A' for Active; 'I' for Inactive)
REMARK    1  A    between atoms: C_1  and  S_2
REMARK    2  A    between atoms: S_2  and  C_3
REMARK    3  A    between atoms: C_8  and  N_9
REMARK    4  A    between atoms: C_10  and  C_12
REMARK    5  A    between atoms: C_20  and  O_24
REMARK                            x       y       z     vdW  Elec       q    Type
REMARK                         _______ _______ _______ _____ _____    ______ ____
ROOT
ATOM      1  C   UNL     1      -0.392  -5.149   0.191  0.00  0.00    +0.302 C 
ATOM      2  O   UNL     1       0.775  -4.834   0.307  0.00  0.00    -0.265 OA
ATOM      3  N   UNL     1      -0.742  -6.450   0.188  0.00  0.00    -0.289 N 
ATOM      4  C   UNL     1       0.274  -7.516   0.178  0.00  0.00    +0.113 C 
ATOM      5  C   UNL     1       0.148  -8.297   1.485  0.00  0.00    +0.054 C 
ATOM      6  C   UNL     1      -1.290  -8.649   1.763  0.00  0.00    -0.041 A 
ATOM      7  C   UNL     1      -1.538  -9.693   2.647  0.00  0.00    +0.007 A 
ATOM      8  C   UNL     1      -2.829 -10.062   2.954  0.00  0.00    +0.045 A 
ATOM      9  C   UNL     1      -3.895  -9.385   2.378  0.00  0.00    +0.117 A 
ATOM     10  C   UNL     1      -3.649  -8.347   1.495  0.00  0.00    +0.050 A 
ATOM     11  C   UNL     1      -2.347  -7.983   1.183  0.00  0.00    -0.023 A 
ATOM     12  C   UNL     1      -2.149  -6.862   0.200  0.00  0.00    +0.143 C 
ENDROOT
BRANCH   1  14
ATOM     13  N   UNL     1      -1.107  -2.793   0.179  0.00  0.00    -0.277 N 
ATOM     14  C   UNL     1      -1.439  -4.094   0.053  0.00  0.00    +0.303 C 
ATOM     15  O   UNL     1      -2.590  -4.407  -0.174  0.00  0.00    -0.265 OA
ATOM     16  H   UNL     1      -0.175  -2.536   0.252  0.00  0.00    +0.155 HD
BRANCH  13  22
ATOM     17  C   UNL     1      -1.802  -0.494  -0.124  0.00  0.00    +0.029 A 
ATOM     18  C   UNL     1      -2.800   0.470  -0.103  0.00  0.00    +0.018 A 
ATOM     19  C   UNL     1      -4.090   0.122   0.248  0.00  0.00    +0.021 A 
ATOM     20  C   UNL     1      -4.392  -1.188   0.579  0.00  0.00    +0.043 A 
ATOM     21  C   UNL     1      -3.404  -2.155   0.561  0.00  0.00    +0.044 A 
ATOM     22  C   UNL     1      -2.107  -1.816   0.204  0.00  0.00    +0.049 A 
ATOM     23 CL   UNL     1      -6.015  -1.617   1.019  0.00  0.00    -0.083 Cl
BRANCH  17  25
ATOM     24  C   UNL     1      -0.254   1.729  -0.902  0.00  0.00    +0.090 C 
ATOM     25  S   UNL     1      -0.155  -0.052  -0.571  0.00  0.00    -0.127 S 
ENDBRANCH  17  25
ENDBRANCH  13  22
ENDBRANCH   1  14
BRANCH   9  26
ATOM     26  O   UNL     1      -5.172  -9.739   2.678  0.00  0.00    -0.507 OA
ATOM     27  H   UNL     1      -5.542  -9.269   3.438  0.00  0.00    +0.292 HD
ENDBRANCH   9  26
TORSDOF 4
