REMARK  Name = ZINC44964193
REMARK  17 active torsions:
REMARK  status: ('A' for Active; 'I' for Inactive)
REMARK    1  A    between atoms: C_1  and  C_2
REMARK    2  A    between atoms: C_2  and  N_5
REMARK    3  A    between atoms: N_5  and  C_6
REMARK    4  A    between atoms: N_5  and  C_10
REMARK    5  A    between atoms: C_6  and  C_9
REMARK    6  A    between atoms: C_10  and  C_13
REMARK    7  A    between atoms: C_13  and  S_14
REMARK    8  A    between atoms: S_14  and  C_15
REMARK    9  A    between atoms: C_15  and  C_16
REMARK   10  A    between atoms: C_16  and  O_18
REMARK   11  A    between atoms: O_18  and  C_19
REMARK   12  A    between atoms: C_22  and  C_43
REMARK   13  A    between atoms: C_22  and  C_44
REMARK   14  A    between atoms: C_23  and  O_42
REMARK   15  A    between atoms: C_25  and  C_41
REMARK   16  A    between atoms: C_30  and  C_40
REMARK   17  A    between atoms: C_32  and  C_39
REMARK                            x       y       z     vdW  Elec       q    Type
REMARK                         _______ _______ _______ _____ _____    ______ ____
ROOT
ATOM      1  C   UNL     1       3.679  -8.259   5.253  0.00  0.00    +0.184 C 
ATOM      2  C   UNL     1       2.367  -8.978   5.364  0.00  0.00    +0.058 C 
ATOM      3  C   UNL     1       1.530  -9.266   6.549  0.00  0.00    +0.015 C 
ATOM      4  C   UNL     1       2.004 -10.550   7.301  0.00  0.00    +0.128 C 
ATOM      5  C   UNL     1       2.978 -11.206   6.324  0.00  0.00    +0.022 C 
ATOM      6  C   UNL     1       4.400 -11.094   6.785  0.00  0.00    -0.014 C 
ATOM      7  C   UNL     1       4.615 -10.652   8.209  0.00  0.00    +0.008 C 
ATOM      8  C   UNL     1       4.532  -9.152   8.433  0.00  0.00    +0.004 C 
ATOM      9  C   UNL     1       5.200  -8.318   7.359  0.00  0.00    -0.004 C 
ATOM     10  C   UNL     1       4.959  -8.738   5.924  0.00  0.00    +0.018 C 
ATOM     11  C   UNL     1       5.224 -10.249   5.830  0.00  0.00    +0.071 C 
ATOM     12  C   UNL     1       5.132 -10.973   4.536  0.00  0.00    +0.138 C 
ATOM     13  O   UNL     1       4.924 -10.541   3.433  0.00  0.00    -0.297 OA
ATOM     14  C   UNL     1       5.366 -12.426   4.973  0.00  0.00    +0.075 C 
ATOM     15  C   UNL     1       5.135 -12.447   6.515  0.00  0.00    +0.015 C 
ATOM     16  C   UNL     1       6.116  -8.076   5.097  0.00  0.00    +0.016 C 
ATOM     17  C   UNL     1       4.914  -6.835   7.625  0.00  0.00    +0.008 C 
ATOM     18  C   UNL     1       2.517 -12.682   6.234  0.00  0.00    +0.011 C 
ATOM     19  C   UNL     1       1.478  -8.054   7.501  0.00  0.00    +0.018 C 
ENDROOT
BRANCH   4  20
ATOM     20  O   UNL     1       0.868 -11.410   7.506  0.00  0.00    -0.391 OA
ATOM     21  H   UNL     1       0.160 -11.010   8.029  0.00  0.00    +0.210 HD
ENDBRANCH   4  20
BRANCH   3  22
ATOM     22  C   UNL     1       0.093  -9.505   6.062  0.00  0.00    -0.025 C 
ATOM     23  C   UNL     1      -0.186  -9.432   4.784  0.00  0.00    +0.004 C 
ENDBRANCH   3  22
BRANCH   1  24
ATOM     24  O   UNL     1       3.451  -6.855   5.378  0.00  0.00    -0.460 OA
BRANCH  24  25
ATOM     25  C   UNL     1       2.955  -6.220   4.304  0.00  0.00    +0.317 C 
ATOM     26  O   UNL     1       2.723  -6.837   3.292  0.00  0.00    -0.250 OA
BRANCH  25  27
ATOM     27  C   UNL     1       2.687  -4.738   4.362  0.00  0.00    +0.189 C 
BRANCH  27  28
ATOM     28  S   UNL     1       2.026  -4.181   2.767  0.00  0.00    -0.151 S 
BRANCH  28  29
ATOM     29  C   UNL     1       1.761  -2.401   3.000  0.00  0.00    +0.051 C 
BRANCH  29  30
ATOM     30  C   UNL     1       1.197  -1.797   1.712  0.00  0.00    -0.068 C 
BRANCH  30  31
ATOM     31  N   UNL     1       0.870  -0.383   1.937  0.00  0.00    +0.380 N 
ATOM     32  H   UNL     1       0.248  -0.303   2.727  0.00  0.00    -0.082 HD
BRANCH  31  34
ATOM     33  C   UNL     1       1.752   1.814   2.565  0.00  0.00    -0.017 C 
ATOM     34  C   UNL     1       2.103   0.368   2.208  0.00  0.00    -0.082 C 
ENDBRANCH  31  34
BRANCH  31  35
ATOM     35  C   UNL     1       0.216   0.165   0.741  0.00  0.00    -0.082 C 
ATOM     36  C   UNL     1      -1.144  -0.509   0.550  0.00  0.00    -0.017 C 
ENDBRANCH  31  35
ENDBRANCH  30  31
ENDBRANCH  29  30
ENDBRANCH  28  29
ENDBRANCH  27  28
ENDBRANCH  25  27
ENDBRANCH  24  25
ENDBRANCH   1  24
TORSDOF 11
