REMARK  Name = ZINC32328009
REMARK  9 active torsions:
REMARK  status: ('A' for Active; 'I' for Inactive)
REMARK    1  A    between atoms: C_1  and  C_2
REMARK    2  A    between atoms: C_2  and  C_3
REMARK    3  A    between atoms: C_2  and  C_4
REMARK    4  A    between atoms: C_4  and  C_6
REMARK    5  A    between atoms: C_4  and  S_17
REMARK    6  A    between atoms: N_8  and  C_9
REMARK    7  A    between atoms: S_17  and  C_18
REMARK    8  A    between atoms: C_21  and  C_25
REMARK    9  A    between atoms: C_22  and  N_24
REMARK                            x       y       z     vdW  Elec       q    Type
REMARK                         _______ _______ _______ _____ _____    ______ ____
ROOT
ATOM      1  C   UNL     1       3.643   6.023  -0.240  0.00  0.00    +0.143 C 
ENDROOT
BRANCH   1   2
ATOM      2  C   UNL     1       2.242   5.473  -0.176  0.00  0.00    +0.231 C 
ATOM      3  O   UNL     1       1.296   6.230  -0.108  0.00  0.00    -0.274 OA
ATOM      4  N   UNL     1       2.039   4.141  -0.195  0.00  0.00    -0.283 N 
ATOM      5  H   UNL     1       2.897   3.454  -0.178  0.00  0.00    +0.155 HD
BRANCH   4   6
ATOM      6  C   UNL     1       0.735   3.632  -0.236  0.00  0.00    +0.053 A 
ATOM      7  C   UNL     1      -0.294   4.303   0.410  0.00  0.00    +0.044 A 
ATOM      8  C   UNL     1      -1.580   3.798   0.368  0.00  0.00    +0.043 A 
ATOM      9  C   UNL     1      -1.843   2.627  -0.322  0.00  0.00    +0.021 A 
ATOM     10  C   UNL     1      -0.819   1.954  -0.962  0.00  0.00    +0.023 A 
ATOM     11  C   UNL     1       0.469   2.454  -0.923  0.00  0.00    +0.062 A 
ATOM     12 CL   UNL     1       1.753   1.611  -1.732  0.00  0.00    -0.082 Cl
ATOM     13 CL   UNL     1      -2.868   4.637   1.175  0.00  0.00    -0.083 Cl
ENDBRANCH   4   6
ENDBRANCH   1   2
BRANCH   1  15
ATOM     14  C   UNL     1       4.184   4.721  -2.303  0.00  0.00    +0.009 C 
ATOM     15  C   UNL     1       4.086   6.124  -1.701  0.00  0.00    +0.005 C 
ATOM     16  C   UNL     1       3.063   6.946  -2.488  0.00  0.00    +0.009 C 
ENDBRANCH   1  15
BRANCH   1  17
ATOM     17  S   UNL     1       3.682   7.666   0.518  0.00  0.00    -0.073 S 
BRANCH  17  18
ATOM     18  C   UNL     1       5.423   7.920   0.609  0.00  0.00    +0.191 A 
ATOM     19  N   UNL     1       6.235   7.007   0.089  0.00  0.00    -0.229 NA
ATOM     20  C   UNL     1       7.546   7.157   0.129  0.00  0.00    +0.136 A 
ATOM     21  C   UNL     1       8.082   8.295   0.742  0.00  0.00    +0.109 A 
ATOM     22  C   UNL     1       7.188   9.242   1.288  0.00  0.00    +0.138 A 
ATOM     23  N   UNL     1       5.883   9.015   1.199  0.00  0.00    -0.206 NA
BRANCH  22  24
ATOM     24  N   UNL     1       7.662  10.383   1.903  0.00  0.00    -0.342 N 
ATOM     25  H   UNL     1       6.956  11.113   2.325  0.00  0.00    +0.144 HD
ATOM     26  H   UNL     1       8.745  10.561   1.971  0.00  0.00    +0.144 HD
ENDBRANCH  22  24
BRANCH  21  27
ATOM     27  C   UNL     1       9.498   8.495   0.813  0.00  0.00    +0.104 C 
ATOM     28  N   UNL     1      10.622   8.653   0.869  0.00  0.00    -0.191 NA
ENDBRANCH  21  27
ENDBRANCH  17  18
ENDBRANCH   1  17
TORSDOF 7
