REMARK  Name = ZINC16735547
REMARK  3 active torsions:
REMARK  status: ('A' for Active; 'I' for Inactive)
REMARK    1  A    between atoms: C_6  and  C_7
REMARK    2  A    between atoms: C_7  and  C_8
REMARK    3  A    between atoms: C_18  and  C_19
REMARK                            x       y       z     vdW  Elec       q    Type
REMARK                         _______ _______ _______ _____ _____    ______ ____
ROOT
ATOM      1  C   UNL     1       0.272   1.503  -1.274  0.00  0.00    +0.132 A 
ATOM      2  C   UNL     1      -0.999   2.202  -1.496  0.00  0.00    +0.296 A 
ATOM      3  O   UNL     1      -2.005   1.587  -1.814  0.00  0.00    -0.264 OA
ATOM      4  N   UNL     1      -1.029   3.531  -1.334  0.00  0.00    -0.181 NA
ATOM      5  C   UNL     1       0.055   4.187  -0.998  0.00  0.00    +0.201 A 
ATOM      6  N   UNL     1       1.269   3.590  -0.783  0.00  0.00    -0.170 N 
ATOM      7  N   UNL     1       1.327   2.178  -0.942  0.00  0.00    -0.161 NA
ATOM      8  C   UNL     1       2.311   4.366  -0.441  0.00  0.00    +0.287 A 
ATOM      9  O   UNL     1       3.410   3.885  -0.240  0.00  0.00    -0.265 OA
ATOM     10  C   UNL     1       2.085   5.811  -0.318  0.00  0.00    +0.082 A 
ATOM     11  C   UNL     1       2.960   6.797   0.010  0.00  0.00    +0.028 C 
ATOM     12  S   UNL     1       0.348   5.921  -0.716  0.00  0.00    -0.044 S 
ENDROOT
BRANCH  11  13
ATOM     13  C   UNL     1       2.552   8.205  -0.089  0.00  0.00    -0.024 A 
ATOM     14  C   UNL     1       1.334   8.543  -0.692  0.00  0.00    +0.009 A 
ATOM     15  C   UNL     1       0.956   9.866  -0.777  0.00  0.00    +0.016 A 
ATOM     16  C   UNL     1       1.782  10.860  -0.278  0.00  0.00    +0.018 A 
ATOM     17  C   UNL     1       2.991  10.534   0.315  0.00  0.00    +0.016 A 
ATOM     18  C   UNL     1       3.381   9.215   0.412  0.00  0.00    +0.009 A 
ATOM     19 BR   UNL     1       1.256  12.672  -0.406  0.00  0.00    -0.050 Br
ENDBRANCH  11  13
BRANCH   1  20
ATOM     20  C   UNL     1       0.351   0.007  -1.439  0.00  0.00    +0.098 C 
BRANCH  20  26
ATOM     21  C   UNL     1       0.050  -1.002   0.832  0.00  0.00    +0.005 A 
ATOM     22  C   UNL     1      -0.732  -1.608   1.797  0.00  0.00    +0.020 A 
ATOM     23  C   UNL     1      -2.063  -1.883   1.536  0.00  0.00    +0.041 A 
ATOM     24  C   UNL     1      -2.611  -1.545   0.312  0.00  0.00    +0.020 A 
ATOM     25  C   UNL     1      -1.830  -0.933  -0.650  0.00  0.00    +0.005 A 
ATOM     26  C   UNL     1      -0.500  -0.659  -0.389  0.00  0.00    -0.041 A 
ATOM     27 CL   UNL     1      -3.044  -2.650   2.745  0.00  0.00    -0.084 Cl
ENDBRANCH  20  26
ENDBRANCH   1  20
TORSDOF 3
