REMARK  Name = ZINC51330113
REMARK  2 active torsions:
REMARK  status: ('A' for Active; 'I' for Inactive)
REMARK    1  A    between atoms: C_6  and  C_7
REMARK    2  A    between atoms: C_17  and  C_19
REMARK                            x       y       z     vdW  Elec       q    Type
REMARK                         _______ _______ _______ _____ _____    ______ ____
ROOT
ATOM      1  C   UNL     1      -1.260  -0.761   0.011  0.00  0.00    +0.013 C 
ATOM      2  C   UNL     1      -1.242  -2.105  -0.099  0.00  0.00    -0.024 C 
ATOM      3  C   UNL     1       0.070  -2.829  -0.109  0.00  0.00    +0.037 C 
ATOM      4  C   UNL     1      -0.046  -4.339  -0.072  0.00  0.00    +0.005 C 
ATOM      5  C   UNL     1      -1.292  -4.874  -0.775  0.00  0.00    +0.012 C 
ATOM      6  C   UNL     1      -2.519  -4.331  -0.042  0.00  0.00    +0.066 C 
ATOM      7  C   UNL     1      -2.462  -2.816  -0.197  0.00  0.00    +0.068 C 
ATOM      8  N   UNL     1      -3.654  -2.391  -0.432  0.00  0.00    -0.180 NA
ATOM      9  N   UNL     1      -4.587  -3.418  -0.620  0.00  0.00    -0.169 N 
ATOM     10  C   UNL     1      -3.833  -4.710  -0.742  0.00  0.00    +0.141 C 
ATOM     11  C   UNL     1      -5.926  -3.277  -0.675  0.00  0.00    +0.320 C 
ATOM     12  O   UNL     1      -6.634  -4.252  -0.842  0.00  0.00    -0.251 OA
ATOM     13  N   UNL     1      -6.481  -2.056  -0.545  0.00  0.00    -0.312 N 
ATOM     14  H   UNL     1      -5.917  -1.278  -0.412  0.00  0.00    +0.147 HD
ATOM     15  H   UNL     1      -7.445  -1.954  -0.585  0.00  0.00    +0.147 HD
ENDROOT
BRANCH   1  21
ATOM     16  C   UNL     1       0.963  -0.321  -1.015  0.00  0.00    +0.009 A 
ATOM     17  C   UNL     1       2.139   0.397  -1.071  0.00  0.00    +0.020 A 
ATOM     18  C   UNL     1       2.365   1.434  -0.181  0.00  0.00    +0.041 A 
ATOM     19  C   UNL     1       1.413   1.757   0.772  0.00  0.00    +0.020 A 
ATOM     20  C   UNL     1       0.233   1.048   0.840  0.00  0.00    +0.009 A 
ATOM     21  C   UNL     1      -0.002   0.001  -0.056  0.00  0.00    -0.025 A 
ATOM     22 CL   UNL     1       3.849   2.331  -0.258  0.00  0.00    -0.084 Cl
ENDBRANCH   1  21
BRANCH  10  23
ATOM     23  C   UNL     1      -3.593  -5.077  -2.184  0.00  0.00    -0.024 A 
ATOM     24  C   UNL     1      -3.431  -4.083  -3.131  0.00  0.00    +0.007 A 
ATOM     25  C   UNL     1      -3.211  -4.418  -4.454  0.00  0.00    +0.020 A 
ATOM     26  C   UNL     1      -3.151  -5.749  -4.829  0.00  0.00    +0.041 A 
ATOM     27  C   UNL     1      -3.312  -6.742  -3.881  0.00  0.00    +0.020 A 
ATOM     28  C   UNL     1      -3.528  -6.406  -2.557  0.00  0.00    +0.007 A 
ATOM     29 CL   UNL     1      -2.874  -6.171  -6.490  0.00  0.00    -0.084 Cl
ENDBRANCH  10  23
TORSDOF 2
