REMARK  Name = ZINC07726046
REMARK  3 active torsions:
REMARK  status: ('A' for Active; 'I' for Inactive)
REMARK    1  A    between atoms: C_5  and  C_6
REMARK    2  A    between atoms: C_8  and  C_11
REMARK    3  A    between atoms: C_11  and  N_12
REMARK                            x       y       z     vdW  Elec       q    Type
REMARK                         _______ _______ _______ _____ _____    ______ ____
ROOT
ATOM      1  N   UNL     1       1.214   1.870   0.001  0.00  0.00    -0.218 N 
ATOM      2  C   UNL     1       2.165   0.913  -0.014  0.00  0.00    +0.247 C 
ATOM      3  O   UNL     1       3.367   1.072  -0.024  0.00  0.00    -0.273 OA
ATOM      4  C   UNL     1       1.416  -0.400  -0.013  0.00  0.00    +0.113 C 
ATOM      5  C   UNL     1       1.734  -1.195  -1.275  0.00  0.00    +0.035 C 
ATOM      6  C   UNL     1       0.938  -2.502  -1.270  0.00  0.00    +0.003 C 
ATOM      7  C   UNL     1       1.306  -3.317  -0.028  0.00  0.00    +0.000 C 
ATOM      8  C   UNL     1       0.962  -2.516   1.230  0.00  0.00    +0.003 C 
ATOM      9  C   UNL     1       1.758  -1.208   1.234  0.00  0.00    +0.035 C 
ATOM     10  N   UNL     1       0.002  -0.004   0.002  0.00  0.00    -0.285 N 
ATOM     11  C   UNL     1      -0.016   1.343   0.009  0.00  0.00    +0.310 C 
ATOM     12  O   UNL     1      -1.035   2.005   0.018  0.00  0.00    -0.252 OA
ATOM     13  H   UNL     1      -0.767  -0.596   0.006  0.00  0.00    +0.151 HD
ENDROOT
BRANCH   1  14
ATOM     14  C   UNL     1       1.494   3.308   0.005  0.00  0.00    +0.173 C 
BRANCH  14  17
ATOM     15  C   UNL     1       0.591   4.561   3.345  0.00  0.00    +0.109 A 
ATOM     16  N   UNL     1       0.521   4.130   2.093  0.00  0.00    -0.242 NA
ATOM     17  C   UNL     1       1.603   3.794   1.427  0.00  0.00    +0.067 A 
ATOM     18  C   UNL     1       2.819   3.880   2.024  0.00  0.00    +0.072 A 
ATOM     19  S   UNL     1       2.353   4.494   3.638  0.00  0.00    -0.075 S 
BRANCH  15  24
ATOM     20  C   UNL     1      -0.217   5.407   5.551  0.00  0.00    +0.018 A 
ATOM     21  C   UNL     1      -1.238   5.785   6.352  0.00  0.00    +0.046 A 
ATOM     22  S   UNL     1      -2.656   5.553   5.294  0.00  0.00    -0.104 S 
ATOM     23  C   UNL     1      -1.801   4.969   3.840  0.00  0.00    +0.055 A 
ATOM     24  C   UNL     1      -0.496   4.982   4.254  0.00  0.00    +0.014 A 
ENDBRANCH  15  24
ENDBRANCH  14  17
ENDBRANCH   1  14
TORSDOF 3
