REMARK  Name = ZINC62350490
REMARK  10 active torsions:
REMARK  status: ('A' for Active; 'I' for Inactive)
REMARK    1  A    between atoms: C_1  and  C_2
REMARK    2  A    between atoms: C_2  and  C_3
REMARK    3  A    between atoms: C_3  and  C_5
REMARK    4  A    between atoms: C_3  and  N_6
REMARK    5  A    between atoms: N_9  and  C_10
REMARK    6  A    between atoms: C_10  and  C_11
REMARK    7  A    between atoms: C_11  and  C_13
REMARK    8  A    between atoms: C_11  and  N_21
REMARK    9  A    between atoms: C_16  and  O_19
REMARK   10  A    between atoms: O_19  and  C_20
REMARK                            x       y       z     vdW  Elec       q    Type
REMARK                         _______ _______ _______ _____ _____    ______ ____
ROOT
ATOM      1  C   UNL     1       6.291   0.966  -3.107  0.00  0.00    -0.020 C 
ENDROOT
BRANCH   1   2
ATOM      2  N   UNL     1       6.826  -0.076  -2.220  0.00  0.00    +0.385 N 
ATOM      3  C   UNL     1       5.840  -0.344  -1.156  0.00  0.00    -0.078 C 
ATOM      4  C   UNL     1       6.067  -1.743  -0.640  0.00  0.00    -0.019 C 
ATOM      5  C   UNL     1       6.952  -1.742   0.620  0.00  0.00    -0.002 C 
ATOM      6  C   UNL     1       8.113  -0.733   0.504  0.00  0.00    -0.002 C 
ATOM      7  C   UNL     1       8.742  -0.737  -0.866  0.00  0.00    -0.019 C 
ATOM      8  C   UNL     1       8.065   0.344  -1.734  0.00  0.00    -0.078 C 
ATOM      9  H   UNL     1       6.958  -0.920  -2.757  0.00  0.00    -0.081 HD
ENDBRANCH   1   2
BRANCH   1  10
ATOM     10  C   UNL     1       7.292   1.264  -4.194  0.00  0.00    -0.059 A 
ATOM     11  C   UNL     1       7.996   0.232  -4.785  0.00  0.00    +0.005 A 
ATOM     12  C   UNL     1       8.915   0.502  -5.780  0.00  0.00    +0.046 A 
ATOM     13  C   UNL     1       9.130   1.811  -6.188  0.00  0.00    +0.120 A 
ATOM     14  C   UNL     1       8.421   2.845  -5.593  0.00  0.00    +0.046 A 
ATOM     15  C   UNL     1       7.500   2.568  -4.601  0.00  0.00    +0.005 A 
BRANCH  13  16
ATOM     16  O   UNL     1      10.033   2.080  -7.167  0.00  0.00    -0.495 OA
ATOM     17  C   UNL     1      10.202   3.450  -7.535  0.00  0.00    +0.277 C 
ENDBRANCH  13  16
ENDBRANCH   1  10
BRANCH   1  18
ATOM     18  C   UNL     1       4.985   0.477  -3.737  0.00  0.00    +0.095 C 
BRANCH  18  22
ATOM     19  N   UNL     1       4.429  -2.584  -5.696  0.00  0.00    -0.297 N 
ATOM     20  C   UNL     1       4.223  -1.393  -5.101  0.00  0.00    +0.300 C 
ATOM     21  O   UNL     1       3.148  -0.837  -5.211  0.00  0.00    -0.253 OA
ATOM     22  N   UNL     1       5.209  -0.818  -4.384  0.00  0.00    -0.301 N 
ATOM     23  H   UNL     1       5.288  -3.028  -5.609  0.00  0.00    +0.151 HD
ATOM     24  H   UNL     1       6.067  -1.262  -4.296  0.00  0.00    +0.150 HD
BRANCH  19  25
ATOM     25  C   UNL     1       3.358  -3.209  -6.476  0.00  0.00    +0.071 C 
ATOM     26  C   UNL     1       3.377  -2.658  -7.903  0.00  0.00    +0.028 C 
BRANCH  25  28
ATOM     27  C   UNL     1       3.426  -5.292  -5.097  0.00  0.00    +0.005 C 
ATOM     28  C   UNL     1       3.570  -4.724  -6.511  0.00  0.00    +0.019 C 
ENDBRANCH  25  28
ENDBRANCH  19  25
ENDBRANCH  18  22
ENDBRANCH   1  18
TORSDOF 7
