REMARK  Name = ZINC14984114
REMARK  5 active torsions:
REMARK  status: ('A' for Active; 'I' for Inactive)
REMARK    1  A    between atoms: C_3  and  O_27
REMARK    2  A    between atoms: C_4  and  C_16
REMARK    3  A    between atoms: C_6  and  C_7
REMARK    4  A    between atoms: C_16  and  N_54
REMARK    5  A    between atoms: C_17  and  N_54
REMARK                            x       y       z     vdW  Elec       q    Type
REMARK                         _______ _______ _______ _____ _____    ______ ____
ROOT
ATOM      1  C   UNL     1      -2.224   9.889  -1.002  0.00  0.00    +0.012 A 
ATOM      2  C   UNL     1      -3.059   9.171  -0.171  0.00  0.00    +0.046 A 
ATOM      3  C   UNL     1      -3.060   7.784  -0.217  0.00  0.00    +0.118 A 
ATOM      4  C   UNL     1      -2.214   7.115  -1.091  0.00  0.00    -0.022 A 
ATOM      5  C   UNL     1      -1.377   7.827  -1.925  0.00  0.00    +0.013 A 
ATOM      6  C   UNL     1      -1.378   9.221  -1.884  0.00  0.00    -0.017 A 
ENDROOT
BRANCH   6   7
ATOM      7  C   UNL     1      -0.479   9.991  -2.779  0.00  0.00    -0.014 A 
ATOM      8  C   UNL     1       0.367   9.322  -3.662  0.00  0.00    +0.012 A 
ATOM      9  C   UNL     1       1.202  10.039  -4.495  0.00  0.00    +0.050 A 
ATOM     10  C   UNL     1       1.202  11.425  -4.456  0.00  0.00    +0.166 A 
ATOM     11  C   UNL     1       0.358  12.099  -3.575  0.00  0.00    +0.167 A 
ATOM     12  C   UNL     1      -0.484  11.384  -2.743  0.00  0.00    +0.058 A 
ATOM     13  O   UNL     1       0.547  13.442  -3.731  0.00  0.00    -0.453 OA
ATOM     14  C   UNL     1       1.804  13.575  -4.421  0.00  0.00    +0.466 C 
ATOM     15  O   UNL     1       1.919  12.347  -5.163  0.00  0.00    -0.453 OA
ENDBRANCH   6   7
BRANCH   3  16
ATOM     16  O   UNL     1      -3.887   7.079   0.598  0.00  0.00    -0.507 OA
ATOM     17  H   UNL     1      -3.499   6.857   1.456  0.00  0.00    +0.292 HD
ENDBRANCH   3  16
BRANCH   4  18
ATOM     18  C   UNL     1      -2.214   5.608  -1.135  0.00  0.00    -0.042 C 
BRANCH  18  19
ATOM     19  N   UNL     1      -1.505   5.091   0.051  0.00  0.00    +0.386 N 
ATOM     20  H   UNL     1      -1.983   5.415   0.900  0.00  0.00    -0.085 HD
ATOM     21  H   UNL     1      -0.539   5.440   0.048  0.00  0.00    -0.085 HD
BRANCH  19  22
ATOM     22  C   UNL     1      -1.490   3.616   0.036  0.00  0.00    -0.067 C 
ATOM     23  C   UNL     1      -0.773   3.123  -1.223  0.00  0.00    -0.009 C 
ATOM     24  C   UNL     1      -0.753   1.593  -1.232  0.00  0.00    -0.012 C 
ATOM     25  C   UNL     1      -0.013   1.086   0.008  0.00  0.00    +0.007 C 
ATOM     26  C   UNL     1      -0.729   1.579   1.267  0.00  0.00    -0.012 C 
ATOM     27  C   UNL     1      -0.750   3.109   1.275  0.00  0.00    -0.009 C 
ATOM     28  C   UNL     1      -2.164   1.050   1.278  0.00  0.00    +0.007 C 
ATOM     29  C   UNL     1      -2.904   1.556   0.038  0.00  0.00    -0.012 C 
ATOM     30  C   UNL     1      -2.188   1.063  -1.221  0.00  0.00    +0.007 C 
ATOM     31  C   UNL     1      -2.925   3.086   0.047  0.00  0.00    -0.009 C 
ENDBRANCH  19  22
ENDBRANCH  18  19
ENDBRANCH   4  18
TORSDOF 5
