REMARK  Name = ZINC01153016
REMARK  11 active torsions:
REMARK  status: ('A' for Active; 'I' for Inactive)
REMARK    1  A    between atoms: C_1  and  C_2
REMARK    2  A    between atoms: C_3  and  C_30
REMARK    3  A    between atoms: C_4  and  C_10
REMARK    4  A    between atoms: N_12  and  C_24
REMARK    5  A    between atoms: C_14  and  C_15
REMARK    6  A    between atoms: C_18  and  O_22
REMARK    7  A    between atoms: O_22  and  C_23
REMARK    8  A    between atoms: C_30  and  O_32
REMARK    9  A    between atoms: O_32  and  C_33
REMARK   10  A    between atoms: C_33  and  C_34
REMARK   11  A    between atoms: C_33  and  C_35
REMARK                            x       y       z     vdW  Elec       q    Type
REMARK                         _______ _______ _______ _____ _____    ______ ____
ROOT
ATOM      1  C   UNL     1      -1.889  -2.233  -1.435  0.00  0.00    +0.023 A 
ATOM      2  C   UNL     1      -1.481  -2.734  -2.621  0.00  0.00    +0.121 A 
ATOM      3  N   UNL     1      -2.587  -3.074  -3.333  0.00  0.00    -0.239 N 
ATOM      4  N   UNL     1      -3.712  -2.769  -2.557  0.00  0.00    -0.166 NA
ATOM      5  C   UNL     1      -3.298  -2.268  -1.412  0.00  0.00    +0.098 A 
ENDROOT
BRANCH   1   9
ATOM      6  C   UNL     1       1.899   0.604  -1.345  0.00  0.00    +0.061 C 
ATOM      7  C   UNL     1       1.108  -0.574  -0.836  0.00  0.00    +0.021 C 
ATOM      8  C   UNL     1      -0.241  -0.525  -0.851  0.00  0.00    +0.078 C 
ATOM      9  C   UNL     1      -0.997  -1.730  -0.330  0.00  0.00    +0.147 C 
ATOM     10  N   UNL     1      -0.192  -2.865   0.154  0.00  0.00    -0.288 N 
ATOM     11  C   UNL     1       1.151  -2.765   0.104  0.00  0.00    +0.304 C 
ATOM     12  O   UNL     1       1.825  -3.696   0.501  0.00  0.00    -0.252 OA
ATOM     13  N   UNL     1       1.768  -1.676  -0.372  0.00  0.00    -0.273 N 
ATOM     14  H   UNL     1      -0.618  -3.665   0.499  0.00  0.00    +0.151 HD
ATOM     15  H   UNL     1       2.738  -1.668  -0.384  0.00  0.00    +0.156 HD
BRANCH   8  16
ATOM     16  C   UNL     1      -0.926   0.614  -1.336  0.00  0.00    +0.339 C 
ATOM     17  O   UNL     1      -0.301   1.599  -1.681  0.00  0.00    -0.245 OA
BRANCH  16  18
ATOM     18  O   UNL     1      -2.273   0.608  -1.415  0.00  0.00    -0.459 OA
BRANCH  18  19
ATOM     19  C   UNL     1      -2.904   1.821  -1.831  0.00  0.00    +0.171 C 
ATOM     20  C   UNL     1      -3.150   1.777  -3.340  0.00  0.00    +0.052 C 
ATOM     21  C   UNL     1      -4.239   1.977  -1.101  0.00  0.00    +0.052 C 
ENDBRANCH  18  19
ENDBRANCH  16  18
ENDBRANCH   8  16
ENDBRANCH   1   9
BRANCH   5  22
ATOM     22  C   UNL     1      -4.163  -1.817  -0.295  0.00  0.00    +0.004 A 
ATOM     23  C   UNL     1      -3.797  -2.084   1.024  0.00  0.00    +0.014 A 
ATOM     24  C   UNL     1      -4.602  -1.663   2.061  0.00  0.00    +0.048 A 
ATOM     25  C   UNL     1      -5.777  -0.975   1.794  0.00  0.00    +0.138 A 
ATOM     26  C   UNL     1      -6.145  -0.707   0.481  0.00  0.00    +0.083 A 
ATOM     27  C   UNL     1      -5.340  -1.120  -0.560  0.00  0.00    +0.033 A 
ATOM     28 CL   UNL     1      -7.616   0.155   0.152  0.00  0.00    -0.080 Cl
BRANCH  25  29
ATOM     29  O   UNL     1      -6.570  -0.562   2.818  0.00  0.00    -0.494 OA
ATOM     30  C   UNL     1      -6.131  -0.872   4.143  0.00  0.00    +0.277 C 
ENDBRANCH  25  29
ENDBRANCH   5  22
BRANCH   3  31
ATOM     31  C   UNL     1      -2.599  -3.629  -4.620  0.00  0.00    +0.065 A 
ATOM     32  C   UNL     1      -1.404  -3.886  -5.278  0.00  0.00    +0.028 A 
ATOM     33  C   UNL     1      -1.419  -4.434  -6.546  0.00  0.00    +0.002 A 
ATOM     34  C   UNL     1      -2.624  -4.727  -7.159  0.00  0.00    +0.000 A 
ATOM     35  C   UNL     1      -3.816  -4.473  -6.506  0.00  0.00    +0.002 A 
ATOM     36  C   UNL     1      -3.807  -3.930  -5.236  0.00  0.00    +0.028 A 
ENDBRANCH   3  31
TORSDOF 7
