REMARK  Name = ZINC35745012
REMARK  13 active torsions:
REMARK  status: ('A' for Active; 'I' for Inactive)
REMARK    1  A    between atoms: C_1  and  C_2
REMARK    2  A    between atoms: C_2  and  C_3
REMARK    3  A    between atoms: C_3  and  C_4
REMARK    4  A    between atoms: C_4  and  N_5
REMARK    5  A    between atoms: N_11  and  C_14
REMARK    6  A    between atoms: C_17  and  N_20
REMARK    7  A    between atoms: N_23  and  C_24
REMARK    8  A    between atoms: C_25  and  C_33
REMARK    9  A    between atoms: C_29  and  C_30
REMARK   10  A    between atoms: C_30  and  C_31
REMARK   11  A    between atoms: C_30  and  C_32
REMARK   12  A    between atoms: C_33  and  C_34
REMARK   13  A    between atoms: C_33  and  C_35
REMARK                            x       y       z     vdW  Elec       q    Type
REMARK                         _______ _______ _______ _____ _____    ______ ____
ROOT
ATOM      1  C   UNL     1      -9.958  -4.885   1.726  0.00  0.00    +0.030 A 
ATOM      2  C   UNL     1     -11.297  -4.546   1.575  0.00  0.00    +0.025 A 
ATOM      3  C   UNL     1     -12.073  -5.200   0.639  0.00  0.00    +0.025 A 
ATOM      4  C   UNL     1     -11.516  -6.196  -0.151  0.00  0.00    +0.035 A 
ATOM      5  C   UNL     1     -10.178  -6.536   0.000  0.00  0.00    +0.025 A 
ATOM      6  C   UNL     1      -9.400  -5.878   0.932  0.00  0.00    +0.025 A 
ENDROOT
BRANCH   1  13
ATOM      7  N   UNL     1      -5.492  -1.699   4.470  0.00  0.00    -0.299 N 
ATOM      8  C   UNL     1      -6.831  -1.540   4.475  0.00  0.00    +0.302 C 
ATOM      9  O   UNL     1      -7.354  -0.822   5.304  0.00  0.00    -0.253 OA
ATOM     10  N   UNL     1      -7.588  -2.178   3.561  0.00  0.00    -0.283 N 
ATOM     11  C   UNL     1      -6.985  -3.142   2.630  0.00  0.00    +0.128 C 
ATOM     12  C   UNL     1      -7.727  -4.478   2.758  0.00  0.00    +0.124 C 
ATOM     13  N   UNL     1      -9.172  -4.223   2.675  0.00  0.00    -0.327 N 
ATOM     14  C   UNL     1      -9.775  -3.259   3.606  0.00  0.00    +0.124 C 
ATOM     15  C   UNL     1      -9.034  -1.927   3.481  0.00  0.00    +0.128 C 
ATOM     16  H   UNL     1      -5.081  -2.328   3.856  0.00  0.00    +0.150 HD
BRANCH   7  17
ATOM     17  C   UNL     1      -4.659  -0.923   5.391  0.00  0.00    +0.106 C 
BRANCH  17  18
ATOM     18  C   UNL     1      -3.189  -1.290   5.182  0.00  0.00    +0.018 C 
BRANCH  18  20
ATOM     19  C   UNL     1      -0.848  -0.847   5.934  0.00  0.00    +0.004 C 
ATOM     20  C   UNL     1      -2.318  -0.479   6.144  0.00  0.00    -0.002 C 
ENDBRANCH  18  20
ENDBRANCH  17  18
ENDBRANCH   7  17
ENDBRANCH   1  13
BRANCH   4  21
ATOM     21  N   UNL     1     -12.304  -6.860  -1.101  0.00  0.00    -0.269 N 
ATOM     22  C   UNL     1     -13.291  -6.199  -1.738  0.00  0.00    +0.308 C 
ATOM     23  O   UNL     1     -13.439  -5.006  -1.557  0.00  0.00    -0.252 OA
ATOM     24  N   UNL     1     -14.114  -6.861  -2.576  0.00  0.00    -0.269 N 
ATOM     25  H   UNL     1     -12.139  -7.795  -1.301  0.00  0.00    +0.156 HD
ATOM     26  H   UNL     1     -14.047  -7.825  -2.661  0.00  0.00    +0.156 HD
BRANCH  24  27
ATOM     27  C   UNL     1     -15.064  -6.157  -3.324  0.00  0.00    +0.042 A 
ATOM     28  C   UNL     1     -16.416  -6.292  -3.035  0.00  0.00    -0.023 A 
ATOM     29  C   UNL     1     -17.351  -5.596  -3.775  0.00  0.00    +0.006 A 
ATOM     30  C   UNL     1     -16.944  -4.766  -4.803  0.00  0.00    +0.001 A 
ATOM     31  C   UNL     1     -15.599  -4.631  -5.094  0.00  0.00    +0.006 A 
ATOM     32  C   UNL     1     -14.658  -5.319  -4.354  0.00  0.00    -0.023 A 
BRANCH  32  33
ATOM     33  C   UNL     1     -13.192  -5.165  -4.667  0.00  0.00    +0.015 C 
ATOM     34  C   UNL     1     -12.939  -5.549  -6.127  0.00  0.00    +0.012 C 
ATOM     35  C   UNL     1     -12.772  -3.712  -4.442  0.00  0.00    +0.012 C 
ENDBRANCH  32  33
BRANCH  28  36
ATOM     36  C   UNL     1     -16.861  -7.196  -1.914  0.00  0.00    +0.015 C 
ATOM     37  C   UNL     1     -17.718  -6.401  -0.927  0.00  0.00    +0.012 C 
ATOM     38  C   UNL     1     -17.683  -8.352  -2.488  0.00  0.00    +0.012 C 
ENDBRANCH  28  36
ENDBRANCH  24  27
ENDBRANCH   4  21
TORSDOF 8
