REMARK  Name = ZINC00904519
REMARK  5 active torsions:
REMARK  status: ('A' for Active; 'I' for Inactive)
REMARK    1  A    between atoms: C_1  and  C_2
REMARK    2  A    between atoms: C_5  and  C_28
REMARK    3  A    between atoms: C_10  and  C_12
REMARK    4  A    between atoms: C_12  and  N_13
REMARK    5  A    between atoms: C_21  and  C_22
REMARK                            x       y       z     vdW  Elec       q    Type
REMARK                         _______ _______ _______ _____ _____    ______ ____
ROOT
ATOM      1  N   UNL     1       4.134  -3.125   1.580  0.00  0.00    -0.313 N 
ATOM      2  C   UNL     1       4.627  -3.668   2.749  0.00  0.00    +0.070 A 
ATOM      3  C   UNL     1       4.361  -3.461   4.096  0.00  0.00    +0.028 A 
ATOM      4  C   UNL     1       5.046  -4.186   5.048  0.00  0.00    +0.002 A 
ATOM      5  C   UNL     1       5.999  -5.122   4.669  0.00  0.00    +0.002 A 
ATOM      6  C   UNL     1       6.275  -5.340   3.349  0.00  0.00    +0.030 A 
ATOM      7  C   UNL     1       5.593  -4.617   2.365  0.00  0.00    +0.090 A 
ATOM      8  N   UNL     1       5.644  -4.609   1.012  0.00  0.00    -0.226 NA
ATOM      9  C   UNL     1       4.784  -3.739   0.544  0.00  0.00    +0.168 A 
ENDROOT
BRANCH   9  10
ATOM     10  C   UNL     1       4.554  -3.457  -0.891  0.00  0.00    +0.190 A 
ATOM     11  C   UNL     1       5.237  -4.108  -2.016  0.00  0.00    +0.191 A 
ATOM     12  N   UNL     1       4.773  -3.602  -3.125  0.00  0.00    -0.033 NA
ATOM     13  O   UNL     1       3.799  -2.631  -2.788  0.00  0.00    -0.240 OA
ATOM     14  N   UNL     1       3.703  -2.589  -1.375  0.00  0.00    -0.044 NA
ATOM     15  N   UNL     1       6.210  -5.093  -1.916  0.00  0.00    -0.339 N 
ATOM     16  H   UNL     1       6.494  -5.409  -1.044  0.00  0.00    +0.144 HD
ATOM     17  H   UNL     1       6.607  -5.466  -2.719  0.00  0.00    +0.144 HD
ENDBRANCH   9  10
BRANCH   1  18
ATOM     18  C   UNL     1       3.103  -2.090   1.470  0.00  0.00    +0.219 C 
BRANCH  18  26
ATOM     19  C   UNL     1      -0.019   1.526   0.010  0.00  0.00    +0.009 C 
ATOM     20  C   UNL     1       0.002  -0.004   0.002  0.00  0.00    +0.004 C 
ATOM     21  C   UNL     1      -1.433  -0.534   0.015  0.00  0.00    +0.009 C 
ATOM     22  C   UNL     1      -1.414  -2.064  -0.027  0.00  0.00    +0.004 C 
ATOM     23  C   UNL     1      -0.692  -2.596   1.215  0.00  0.00    +0.111 C 
ATOM     24  N   UNL     1       0.639  -1.977   1.288  0.00  0.00    -0.300 N 
ATOM     25  C   UNL     1       0.742  -0.512   1.244  0.00  0.00    +0.111 C 
ATOM     26  C   UNL     1       1.746  -2.740   1.395  0.00  0.00    +0.235 C 
ATOM     27  O   UNL     1       1.648  -3.948   1.431  0.00  0.00    -0.274 OA
ATOM     28  C   UNL     1      -0.680  -2.532  -1.285  0.00  0.00    +0.009 C 
ENDBRANCH  18  26
ENDBRANCH   1  18
TORSDOF 3
