REMARK  Name = ZINC03296564
REMARK  9 active torsions:
REMARK  status: ('A' for Active; 'I' for Inactive)
REMARK    1  A    between atoms: C_1  and  C_2
REMARK    2  A    between atoms: C_12  and  C_14
REMARK    3  A    between atoms: C_14  and  S_15
REMARK    4  A    between atoms: S_15  and  C_16
REMARK    5  A    between atoms: C_17  and  C_34
REMARK    6  A    between atoms: C_18  and  C_27
REMARK    7  A    between atoms: C_20  and  C_24
REMARK    8  A    between atoms: C_21  and  C_23
REMARK    9  A    between atoms: C_24  and  C_26
REMARK                            x       y       z     vdW  Elec       q    Type
REMARK                         _______ _______ _______ _____ _____    ______ ____
ROOT
ATOM      1  C   UNL     1       1.512  -1.179   6.285  0.00  0.00    +0.080 C 
ATOM      2  C   UNL     1       1.313  -1.071   7.626  0.00  0.00    +0.069 C 
ATOM      3  C   UNL     1       2.246  -1.720   8.607  0.00  0.00    +0.096 C 
ATOM      4  C   UNL     1       3.109  -2.745   7.928  0.00  0.00    +0.024 C 
ATOM      5  C   UNL     1       3.240  -2.782   6.586  0.00  0.00    +0.013 C 
ATOM      6  N   UNL     1       2.583  -1.889   5.791  0.00  0.00    -0.312 N 
ATOM      7  C   UNL     1       4.126  -3.826   5.956  0.00  0.00    +0.061 C 
ATOM      8  H   UNL     1       2.911  -1.738   4.752  0.00  0.00    +0.152 HD
ENDROOT
BRANCH   3   9
ATOM      9  C   UNL     1       3.124  -0.662   9.223  0.00  0.00    -0.035 A 
ATOM     10  C   UNL     1       3.974   0.081   8.425  0.00  0.00    +0.006 A 
ATOM     11  C   UNL     1       4.776   1.056   8.988  0.00  0.00    +0.020 A 
ATOM     12  C   UNL     1       4.736   1.280  10.352  0.00  0.00    +0.041 A 
ATOM     13  C   UNL     1       3.890   0.533  11.152  0.00  0.00    +0.020 A 
ATOM     14  C   UNL     1       3.084  -0.438  10.586  0.00  0.00    +0.006 A 
ATOM     15 CL   UNL     1       5.748   2.500  11.061  0.00  0.00    -0.084 Cl
ENDBRANCH   3   9
BRANCH   4  16
ATOM     16  C   UNL     1       3.795  -3.688   8.710  0.00  0.00    +0.159 C 
ATOM     17  O   UNL     1       4.497  -4.524   8.175  0.00  0.00    -0.293 OA
ATOM     18  C   UNL     1       3.662  -3.663  10.210  0.00  0.00    +0.091 C 
ENDBRANCH   4  16
BRANCH   2  19
ATOM     19  C   UNL     1       0.189  -0.328   8.111  0.00  0.00    +0.098 C 
ATOM     20  N   UNL     1      -0.703   0.262   8.496  0.00  0.00    -0.191 NA
ENDBRANCH   2  19
BRANCH   1  21
ATOM     21  S   UNL     1       0.394  -0.396   5.170  0.00  0.00    -0.100 S 
BRANCH  21  22
ATOM     22  C   UNL     1       1.145  -0.864   3.591  0.00  0.00    +0.171 C 
BRANCH  22  33
ATOM     23  C   UNL     1      -0.019   1.526   0.010  0.00  0.00    +0.029 C 
ATOM     24  C   UNL     1       0.002  -0.004   0.002  0.00  0.00    +0.083 C 
ATOM     25  C   UNL     1       0.809  -0.520  -1.201  0.00  0.00    +0.059 C 
ATOM     26  C   UNL     1       1.947  -1.304  -0.588  0.00  0.00    -0.024 A 
ATOM     27  C   UNL     1       2.990  -1.995  -1.174  0.00  0.00    +0.005 A 
ATOM     28  C   UNL     1       3.922  -2.644  -0.386  0.00  0.00    +0.000 A 
ATOM     29  C   UNL     1       3.808  -2.601   0.992  0.00  0.00    +0.002 A 
ATOM     30  C   UNL     1       2.769  -1.913   1.581  0.00  0.00    +0.024 A 
ATOM     31  C   UNL     1       1.824  -1.254   0.792  0.00  0.00    +0.040 A 
ATOM     32  N   UNL     1       0.707  -0.509   1.183  0.00  0.00    -0.267 N 
ATOM     33  C   UNL     1       0.334  -0.289   2.459  0.00  0.00    +0.230 C 
ATOM     34  O   UNL     1      -0.655   0.372   2.696  0.00  0.00    -0.274 OA
ENDBRANCH  22  33
ENDBRANCH  21  22
ENDBRANCH   1  21
TORSDOF 6
