REMARK  Name = ZINC41926768
REMARK  9 active torsions:
REMARK  status: ('A' for Active; 'I' for Inactive)
REMARK    1  A    between atoms: C_1  and  C_2
REMARK    2  A    between atoms: C_2  and  C_3
REMARK    3  A    between atoms: C_2  and  C_4
REMARK    4  A    between atoms: C_2  and  N_19
REMARK    5  A    between atoms: C_4  and  N_5
REMARK    6  A    between atoms: C_6  and  C_8
REMARK    7  A    between atoms: N_10  and  C_11
REMARK    8  A    between atoms: C_14  and  S_17
REMARK    9  A    between atoms: S_17  and  C_18
REMARK                            x       y       z     vdW  Elec       q    Type
REMARK                         _______ _______ _______ _____ _____    ______ ____
ROOT
ATOM      1  N   UNL     1      -1.424  -1.348  -0.961  0.00  0.00    -0.309 N 
ATOM      2  C   UNL     1      -2.661  -1.810  -1.232  0.00  0.00    +0.299 C 
ATOM      3  O   UNL     1      -3.610  -1.053  -1.208  0.00  0.00    -0.265 OA
ATOM      4  H   UNL     1      -0.665  -1.952  -0.981  0.00  0.00    +0.149 HD
ENDROOT
BRANCH   2   5
ATOM      5  C   UNL     1      -2.863  -3.251  -1.564  0.00  0.00    +0.303 C 
ATOM      6  O   UNL     1      -1.914  -4.008  -1.588  0.00  0.00    -0.265 OA
ATOM      7  N   UNL     1      -4.100  -3.713  -1.835  0.00  0.00    -0.278 N 
ATOM      8  H   UNL     1      -4.847  -3.097  -1.888  0.00  0.00    +0.155 HD
BRANCH   7   9
ATOM      9  C   UNL     1      -4.306  -5.081  -2.041  0.00  0.00    +0.034 A 
ATOM     10  C   UNL     1      -5.284  -5.510  -2.930  0.00  0.00    +0.024 A 
ATOM     11  C   UNL     1      -5.488  -6.860  -3.133  0.00  0.00    +0.016 A 
ATOM     12  C   UNL     1      -4.715  -7.790  -2.448  0.00  0.00    +0.008 A 
ATOM     13  C   UNL     1      -3.736  -7.361  -1.560  0.00  0.00    +0.016 A 
ATOM     14  C   UNL     1      -3.530  -6.011  -1.360  0.00  0.00    +0.024 A 
BRANCH  12  15
ATOM     15  S   UNL     1      -4.975  -9.514  -2.707  0.00  0.00    -0.129 S 
ATOM     16  C   UNL     1      -3.758 -10.309  -1.622  0.00  0.00    +0.090 C 
ENDBRANCH  12  15
ENDBRANCH   7   9
ENDBRANCH   2   5
BRANCH   1  17
ATOM     17  C   UNL     1      -1.225   0.067  -0.636  0.00  0.00    +0.092 C 
BRANCH  17  19
ATOM     18  C   UNL     1       0.467   1.803  -0.033  0.00  0.00    -0.008 C 
ATOM     19  C   UNL     1       0.260   0.326  -0.373  0.00  0.00    -0.055 C 
ATOM     20  C   UNL     1       0.727  -0.537   0.801  0.00  0.00    -0.008 C 
BRANCH  19  21
ATOM     21  N   UNL     1       1.037  -0.015  -1.572  0.00  0.00    +0.387 N 
ATOM     22  C   UNL     1       2.441   0.377  -1.376  0.00  0.00    -0.073 C 
ATOM     23  C   UNL     1       3.282  -0.254  -2.486  0.00  0.00    +0.017 C 
ATOM     24  C   UNL     1       2.667   0.050  -3.828  0.00  0.00    -0.048 A 
ATOM     25  C   UNL     1       3.437  -0.124  -4.968  0.00  0.00    +0.004 A 
ATOM     26  C   UNL     1       2.906   0.141  -6.214  0.00  0.00    +0.000 A 
ATOM     27  C   UNL     1       1.601   0.583  -6.326  0.00  0.00    +0.000 A 
ATOM     28  C   UNL     1       0.834   0.758  -5.192  0.00  0.00    +0.002 A 
ATOM     29  C   UNL     1       1.366   0.493  -3.938  0.00  0.00    -0.061 A 
ATOM     30  C   UNL     1       0.496   0.706  -2.728  0.00  0.00    -0.042 C 
ATOM     31  H   UNL     1       0.982  -1.009  -1.738  0.00  0.00    -0.080 HD
ENDBRANCH  19  21
ENDBRANCH  17  19
ENDBRANCH   1  17
TORSDOF 6
