REMARK  Name = ZINC39330839
REMARK  7 active torsions:
REMARK  status: ('A' for Active; 'I' for Inactive)
REMARK    1  A    between atoms: C_1  and  C_2
REMARK    2  A    between atoms: C_2  and  N_3
REMARK    3  A    between atoms: C_5  and  C_13
REMARK    4  A    between atoms: N_17  and  C_27
REMARK    5  A    between atoms: C_18  and  C_20
REMARK    6  A    between atoms: C_27  and  C_28
REMARK    7  A    between atoms: C_28  and  C_29
REMARK                            x       y       z     vdW  Elec       q    Type
REMARK                         _______ _______ _______ _____ _____    ______ ____
ROOT
ATOM      1  C   UNL     1      -4.501  -0.379   1.359  0.00  0.00    +0.016 C 
ATOM      2  C   UNL     1      -5.556  -0.877   2.037  0.00  0.00    +0.125 C 
ATOM      3  C   UNL     1      -6.809  -0.168   2.386  0.00  0.00    +0.270 C 
ATOM      4  O   UNL     1      -7.103   0.982   2.123  0.00  0.00    -0.268 OA
ATOM      5  N   UNL     1      -7.555  -1.072   3.058  0.00  0.00    -0.250 N 
ATOM      6  C   UNL     1      -6.847  -2.249   3.133  0.00  0.00    +0.137 C 
ATOM      7  N   UNL     1      -5.691  -2.142   2.538  0.00  0.00    -0.227 NA
ENDROOT
BRANCH   1  10
ATOM      8  N   UNL     1      -1.135  -0.379   0.598  0.00  0.00    -0.329 N 
ATOM      9  C   UNL     1      -2.041  -0.640   1.720  0.00  0.00    +0.117 C 
ATOM     10  C   UNL     1      -3.302  -1.249   1.085  0.00  0.00    +0.063 C 
ATOM     11  C   UNL     1      -3.001  -1.287  -0.396  0.00  0.00    -0.018 A 
ATOM     12  C   UNL     1      -1.734  -0.763  -0.602  0.00  0.00    +0.034 A 
ATOM     13  C   UNL     1      -1.235  -0.689  -1.904  0.00  0.00    +0.023 A 
ATOM     14  C   UNL     1      -1.997  -1.126  -2.967  0.00  0.00    +0.002 A 
ATOM     15  C   UNL     1      -3.261  -1.643  -2.751  0.00  0.00    +0.000 A 
ATOM     16  C   UNL     1      -3.759  -1.729  -1.463  0.00  0.00    +0.006 A 
BRANCH   8  18
ATOM     17  C   UNL     1       0.106   1.728   0.620  0.00  0.00    +0.024 C 
ATOM     18  C   UNL     1       0.203   0.205   0.719  0.00  0.00    +0.102 C 
ENDBRANCH   8  18
ENDBRANCH   1  10
BRANCH   6  19
ATOM     19  C   UNL     1      -7.335  -3.476   3.796  0.00  0.00    +0.034 A 
ATOM     20  C   UNL     1      -7.450  -4.665   3.074  0.00  0.00    +0.013 A 
ATOM     21  C   UNL     1      -7.905  -5.807   3.700  0.00  0.00    +0.001 A 
ATOM     22  C   UNL     1      -8.249  -5.776   5.040  0.00  0.00    +0.001 A 
ATOM     23  C   UNL     1      -8.139  -4.602   5.762  0.00  0.00    +0.021 A 
ATOM     24  C   UNL     1      -7.678  -3.453   5.151  0.00  0.00    +0.051 A 
ATOM     25 CL   UNL     1      -7.532  -1.981   6.060  0.00  0.00    -0.083 Cl
ENDBRANCH   6  19
BRANCH   5  26
ATOM     26  C   UNL     1      -8.891  -0.838   3.613  0.00  0.00    +0.120 C 
BRANCH  26  27
ATOM     27  C   UNL     1      -9.942  -1.056   2.523  0.00  0.00    +0.056 C 
BRANCH  27  28
ATOM     28  C   UNL     1     -11.315  -0.815   3.094  0.00  0.00    -0.021 A 
ATOM     29  C   UNL     1     -11.993   0.478   3.218  0.00  0.00    +0.003 A 
ATOM     30  C   UNL     1     -11.648   1.790   2.889  0.00  0.00    +0.010 A 
ATOM     31  C   UNL     1     -12.528   2.805   3.138  0.00  0.00    +0.001 A 
ATOM     32  C   UNL     1     -13.762   2.543   3.716  0.00  0.00    +0.002 A 
ATOM     33  C   UNL     1     -14.123   1.256   4.048  0.00  0.00    +0.026 A 
ATOM     34  C   UNL     1     -13.244   0.207   3.803  0.00  0.00    +0.047 A 
ATOM     35  N   UNL     1     -13.307  -1.153   4.015  0.00  0.00    -0.360 N 
ATOM     36  C   UNL     1     -12.152  -1.745   3.581  0.00  0.00    +0.087 A 
ATOM     37  H   UNL     1     -14.059  -1.621   4.408  0.00  0.00    +0.165 HD
ENDBRANCH  27  28
ENDBRANCH  26  27
ENDBRANCH   5  26
TORSDOF 6
