REMARK  Name = ZINC33766846
REMARK  13 active torsions:
REMARK  status: ('A' for Active; 'I' for Inactive)
REMARK    1  A    between atoms: C_1  and  C_2
REMARK    2  A    between atoms: C_4  and  C_12
REMARK    3  A    between atoms: C_6  and  N_9
REMARK    4  A    between atoms: C_7  and  C_8
REMARK    5  A    between atoms: C_15  and  C_17
REMARK    6  A    between atoms: N_18  and  N_19
REMARK    7  A    between atoms: C_20  and  C_22
REMARK    8  A    between atoms: C_22  and  C_24
REMARK    9  A    between atoms: C_22  and  N_27
REMARK   10  A    between atoms: C_24  and  C_25
REMARK   11  A    between atoms: C_24  and  C_26
REMARK   12  A    between atoms: C_28  and  C_30
REMARK   13  A    between atoms: C_30  and  C_31
REMARK                            x       y       z     vdW  Elec       q    Type
REMARK                         _______ _______ _______ _____ _____    ______ ____
ROOT
ATOM      1  C   UNL     1      -3.624  -7.399   5.401  0.00  0.00    +0.176 C 
ATOM      2  N   UNL     1      -3.628  -6.719   4.261  0.00  0.00    -0.185 NA
ENDROOT
BRANCH   1   6
ATOM      3  C   UNL     1      -2.442  -5.282   7.985  0.00  0.00    +0.136 A 
ATOM      4  C   UNL     1      -2.543  -6.489   8.721  0.00  0.00    +0.050 A 
ATOM      5  C   UNL     1      -3.000  -7.447   7.875  0.00  0.00    +0.051 A 
ATOM      6  C   UNL     1      -3.175  -6.795   6.568  0.00  0.00    +0.148 A 
ATOM      7  O   UNL     1      -2.824  -5.499   6.715  0.00  0.00    -0.454 OA
BRANCH   3  11
ATOM      8  C   UNL     1      -1.675  -0.444   7.373  0.00  0.00    +0.044 C 
ATOM      9  C   UNL     1      -1.629  -1.686   8.224  0.00  0.00    -0.045 A 
ATOM     10  C   UNL     1      -2.045  -2.881   7.708  0.00  0.00    +0.015 A 
ATOM     11  C   UNL     1      -2.007  -4.039   8.508  0.00  0.00    +0.020 A 
ATOM     12  C   UNL     1      -1.529  -3.953   9.829  0.00  0.00    +0.044 A 
ATOM     13  C   UNL     1      -1.112  -2.750  10.323  0.00  0.00    +0.130 A 
ATOM     14  C   UNL     1      -1.159  -1.614   9.527  0.00  0.00    -0.017 A 
ATOM     15  C   UNL     1      -0.697  -0.292  10.083  0.00  0.00    +0.046 C 
BRANCH  13  16
ATOM     16  N   UNL     1      -0.608  -2.657  11.711  0.00  0.00    +0.057 N 
ATOM     17  O   UNL     1       0.315  -1.769  12.019  0.00  0.00    -0.126 OA
ATOM     18  O   UNL     1      -1.083  -3.462  12.639  0.00  0.00    -0.126 OA
ENDBRANCH  13  16
ENDBRANCH   3  11
ENDBRANCH   1   6
BRANCH   2  19
ATOM     19  N   UNL     1      -3.086  -5.550   4.205  0.00  0.00    -0.205 N 
ATOM     20  C   UNL     1      -3.183  -4.814   3.080  0.00  0.00    +0.253 C 
ATOM     21  O   UNL     1      -2.785  -3.674   3.067  0.00  0.00    -0.272 OA
ATOM     22  H   UNL     1      -2.544  -5.153   5.077  0.00  0.00    +0.177 HD
BRANCH  20  23
ATOM     23  C   UNL     1      -3.789  -5.415   1.838  0.00  0.00    +0.163 C 
BRANCH  23  24
ATOM     24  N   UNL     1      -4.184  -4.343   0.920  0.00  0.00    -0.303 N 
ATOM     25  C   UNL     1      -5.162  -4.556   0.017  0.00  0.00    +0.218 C 
ATOM     26  O   UNL     1      -5.715  -5.634  -0.035  0.00  0.00    -0.275 OA
ATOM     27  H   UNL     1      -3.683  -3.365   0.968  0.00  0.00    +0.149 HD
BRANCH  25  28
ATOM     28  C   UNL     1      -5.569  -3.453  -0.927  0.00  0.00    +0.138 C 
BRANCH  28  29
ATOM     29  C   UNL     1      -6.673  -3.945  -1.826  0.00  0.00    -0.001 A 
ATOM     30  C   UNL     1      -8.015  -3.890  -1.639  0.00  0.00    +0.011 A 
ATOM     31  C   UNL     1      -8.849  -4.410  -2.611  0.00  0.00    +0.008 A 
ATOM     32  C   UNL     1      -8.301  -4.959  -3.722  0.00  0.00    +0.045 A 
ATOM     33  S   UNL     1      -6.555  -4.750  -3.415  0.00  0.00    -0.101 S 
ENDBRANCH  28  29
ENDBRANCH  25  28
ENDBRANCH  23  24
BRANCH  23  34
ATOM     34  C   UNL     1      -2.761  -6.318   1.154  0.00  0.00    +0.012 C 
ATOM     35  C   UNL     1      -2.397  -7.474   2.088  0.00  0.00    +0.009 C 
ATOM     36  C   UNL     1      -3.353  -6.876  -0.141  0.00  0.00    +0.009 C 
ENDBRANCH  23  34
ENDBRANCH  20  23
ENDBRANCH   2  19
TORSDOF 9
