REMARK  Name = ZINC14768825
REMARK  12 active torsions:
REMARK  status: ('A' for Active; 'I' for Inactive)
REMARK    1  A    between atoms: C_1  and  C_2
REMARK    2  A    between atoms: C_2  and  C_3
REMARK    3  A    between atoms: C_6  and  O_10
REMARK    4  A    between atoms: O_10  and  C_11
REMARK    5  A    between atoms: C_11  and  C_12
REMARK    6  A    between atoms: N_14  and  N_15
REMARK    7  A    between atoms: C_16  and  C_18
REMARK    8  A    between atoms: C_18  and  C_20
REMARK    9  A    between atoms: C_18  and  O_22
REMARK   10  A    between atoms: C_20  and  C_21
REMARK   11  A    between atoms: O_22  and  C_23
REMARK   12  A    between atoms: C_26  and  C_29
REMARK                            x       y       z     vdW  Elec       q    Type
REMARK                         _______ _______ _______ _____ _____    ______ ____
ROOT
ATOM      1  N   UNL     1      -3.339   5.782   8.405  0.00  0.00    -0.231 N 
ATOM      2  C   UNL     1      -3.171   6.961   9.036  0.00  0.00    +0.270 C 
ATOM      3  O   UNL     1      -2.257   7.693   8.721  0.00  0.00    -0.270 OA
ATOM      4  H   UNL     1      -4.070   5.197   8.657  0.00  0.00    +0.173 HD
ENDROOT
BRANCH   1   7
ATOM      5  C   UNL     1      -2.625   4.224   6.753  0.00  0.00    +0.267 C 
ATOM      6  O   UNL     1      -3.539   3.492   7.068  0.00  0.00    -0.271 OA
ATOM      7  N   UNL     1      -2.457   5.403   7.384  0.00  0.00    -0.231 N 
ATOM      8  H   UNL     1      -1.726   5.988   7.132  0.00  0.00    +0.173 HD
BRANCH   5   9
ATOM      9  C   UNL     1      -1.677   3.816   5.655  0.00  0.00    +0.326 C 
BRANCH   9  10
ATOM     10  O   UNL     1      -2.060   2.537   5.146  0.00  0.00    -0.482 OA
BRANCH  10  14
ATOM     11  C   UNL     1       0.240   0.967   2.100  0.00  0.00    -0.046 A 
ATOM     12  C   UNL     1       0.559   2.199   2.643  0.00  0.00    +0.007 A 
ATOM     13  C   UNL     1      -0.213   2.728   3.659  0.00  0.00    +0.047 A 
ATOM     14  C   UNL     1      -1.302   2.019   4.143  0.00  0.00    +0.135 A 
ATOM     15  C   UNL     1      -1.617   0.781   3.601  0.00  0.00    +0.060 A 
ATOM     16  C   UNL     1      -0.845   0.258   2.581  0.00  0.00    +0.022 A 
ATOM     17 BR   UNL     1      -3.102  -0.189   4.258  0.00  0.00    -0.047 Br
BRANCH  11  19
ATOM     18  C   UNL     1       0.514   0.843  -0.361  0.00  0.00    +0.009 C 
ATOM     19  C   UNL     1       1.080   0.395   0.988  0.00  0.00    +0.032 C 
ENDBRANCH  11  19
ENDBRANCH  10  14
ENDBRANCH   9  10
ENDBRANCH   5   9
ENDBRANCH   1   7
BRANCH   2  20
ATOM     20  C   UNL     1      -4.120   7.369  10.134  0.00  0.00    +0.260 C 
BRANCH  20  21
ATOM     21  C   UNL     1      -5.520   7.569   9.550  0.00  0.00    +0.051 C 
ATOM     22  C   UNL     1      -6.507   7.862  10.681  0.00  0.00    +0.008 C 
ENDBRANCH  20  21
BRANCH  20  23
ATOM     23  O   UNL     1      -3.670   8.592  10.722  0.00  0.00    -0.480 OA
BRANCH  23  24
ATOM     24  C   UNL     1      -3.894   8.755  12.052  0.00  0.00    +0.122 A 
ATOM     25  C   UNL     1      -3.527   9.940  12.675  0.00  0.00    +0.046 A 
ATOM     26  C   UNL     1      -3.758  10.112  14.024  0.00  0.00    +0.012 A 
ATOM     27  C   UNL     1      -4.350   9.089  14.764  0.00  0.00    -0.018 A 
ATOM     28  C   UNL     1      -4.712   7.898  14.136  0.00  0.00    +0.012 A 
ATOM     29  C   UNL     1      -4.483   7.735  12.786  0.00  0.00    +0.046 A 
BRANCH  27  30
ATOM     30  C   UNL     1      -4.594   9.268  16.216  0.00  0.00    -0.018 A 
ATOM     31  C   UNL     1      -5.190   8.248  16.956  0.00  0.00    +0.008 A 
ATOM     32  C   UNL     1      -5.410   8.418  18.308  0.00  0.00    +0.001 A 
ATOM     33  C   UNL     1      -5.050   9.601  18.926  0.00  0.00    +0.000 A 
ATOM     34  C   UNL     1      -4.462  10.619  18.196  0.00  0.00    +0.001 A 
ATOM     35  C   UNL     1      -4.232  10.458  16.845  0.00  0.00    +0.008 A 
ENDBRANCH  27  30
ENDBRANCH  23  24
ENDBRANCH  20  23
ENDBRANCH   2  20
TORSDOF 10
