REMARK  Name = ZINC42015031
REMARK  4 active torsions:
REMARK  status: ('A' for Active; 'I' for Inactive)
REMARK    1  A    between atoms: C_3  and  C_9
REMARK    2  A    between atoms: C_4  and  N_8
REMARK    3  A    between atoms: C_6  and  N_7
REMARK    4  A    between atoms: N_13  and  C_14
REMARK                            x       y       z     vdW  Elec       q    Type
REMARK                         _______ _______ _______ _____ _____    ______ ____
ROOT
ATOM      1  C   UNL     1       3.651   2.184   0.028  0.00  0.00    +0.189 A 
ATOM      2  N   UNL     1       4.867   1.680   0.078  0.00  0.00    -0.108 NA
ATOM      3  N   UNL     1       5.745   2.612  -0.015  0.00  0.00    -0.022 NA
ATOM      4  N   UNL     1       5.175   3.762  -0.130  0.00  0.00    -0.039 NA
ATOM      5  N   UNL     1       3.788   3.535  -0.113  0.00  0.00    -0.193 N 
ENDROOT
BRANCH   5   6
ATOM      6  C   UNL     1       2.766   4.489  -0.214  0.00  0.00    +0.072 A 
ATOM      7  C   UNL     1       1.652   4.406   0.610  0.00  0.00    +0.048 A 
ATOM      8  C   UNL     1       0.646   5.348   0.508  0.00  0.00    +0.044 A 
ATOM      9  C   UNL     1       0.749   6.374  -0.415  0.00  0.00    +0.040 A 
ATOM     10  C   UNL     1       1.858   6.460  -1.238  0.00  0.00    +0.044 A 
ATOM     11  C   UNL     1       2.870   5.523  -1.135  0.00  0.00    +0.048 A 
ATOM     12 CL   UNL     1       1.983   7.748  -2.394  0.00  0.00    -0.083 Cl
ATOM     13 CL   UNL     1      -0.748   5.244   1.537  0.00  0.00    -0.083 Cl
ENDBRANCH   5   6
BRANCH   1  16
ATOM     14  C   UNL     1       0.193   0.958  -0.764  0.00  0.00    +0.023 A 
ATOM     15  C   UNL     1       1.375   1.662  -0.835  0.00  0.00    +0.015 A 
ATOM     16  C   UNL     1       2.382   1.431   0.102  0.00  0.00    +0.042 A 
ATOM     17  C   UNL     1       2.187   0.481   1.116  0.00  0.00    +0.037 A 
ATOM     18  C   UNL     1       0.994  -0.222   1.180  0.00  0.00    +0.046 A 
ATOM     19  C   UNL     1      -0.002   0.015   0.241  0.00  0.00    +0.026 A 
BRANCH  19  20
ATOM     20  N   UNL     1      -1.201  -0.693   0.307  0.00  0.00    -0.358 N 
ATOM     21  H   UNL     1      -1.897  -0.528  -0.347  0.00  0.00    +0.142 HD
ATOM     22  H   UNL     1      -1.338  -1.350   1.007  0.00  0.00    +0.142 HD
ENDBRANCH  19  20
BRANCH  17  23
ATOM     23  N   UNL     1       3.188   0.245   2.055  0.00  0.00    -0.357 N 
ATOM     24  H   UNL     1       4.022   0.737   2.010  0.00  0.00    +0.142 HD
ATOM     25  H   UNL     1       3.051  -0.413   2.756  0.00  0.00    +0.142 HD
ENDBRANCH  17  23
ENDBRANCH   1  16
TORSDOF 4
