REMARK  Name = ZINC58481691
REMARK  3 active torsions:
REMARK  status: ('A' for Active; 'I' for Inactive)
REMARK    1  A    between atoms: N_9  and  S_11
REMARK    2  A    between atoms: S_11  and  C_14
REMARK    3  A    between atoms: C_18  and  C_19
REMARK                            x       y       z     vdW  Elec       q    Type
REMARK                         _______ _______ _______ _____ _____    ______ ____
ROOT
ATOM      1  C   UNL     1       5.818  -3.630   0.266  0.00  0.00    +0.125 A 
ATOM      2  C   UNL     1       7.143  -3.319   0.459  0.00  0.00    +0.037 A 
ATOM      3  C   UNL     1       8.081  -3.924  -0.312  0.00  0.00    +0.048 A 
ATOM      4  S   UNL     1       7.195  -4.932  -1.323  0.00  0.00    -0.090 S 
ATOM      5  C   UNL     1       5.556  -4.564  -0.725  0.00  0.00    +0.101 A 
ENDROOT
BRANCH   5   6
ATOM      6  C   UNL     1       4.269  -5.106  -1.166  0.00  0.00    +0.259 C 
ATOM      7  O   UNL     1       3.692  -4.609  -2.116  0.00  0.00    -0.269 OA
ATOM      8  N   UNL     1       3.722  -6.155  -0.520  0.00  0.00    -0.267 N 
ATOM      9  C   UNL     1       4.460  -6.841   0.549  0.00  0.00    +0.114 C 
ATOM     10  C   UNL     1       4.305  -8.352   0.330  0.00  0.00    +0.024 C 
ATOM     11  C   UNL     1       2.829  -8.722   0.469  0.00  0.00    +0.038 C 
ATOM     12  C   UNL     1       1.979  -7.835  -0.402  0.00  0.00    -0.026 A 
ATOM     13  C   UNL     1       2.438  -6.606  -0.852  0.00  0.00    +0.040 A 
ATOM     14  C   UNL     1       1.624  -5.806  -1.647  0.00  0.00    +0.024 A 
ATOM     15  C   UNL     1       0.357  -6.233  -1.988  0.00  0.00    +0.002 A 
ATOM     16  C   UNL     1      -0.103  -7.457  -1.538  0.00  0.00    +0.000 A 
ATOM     17  C   UNL     1       0.709  -8.260  -0.754  0.00  0.00    +0.005 A 
ENDBRANCH   5   6
BRANCH   1  18
ATOM     18  S   UNL     1       4.535  -2.893   1.222  0.00  0.00    +0.062 S 
ATOM     19  O   UNL     1       5.162  -1.968   2.099  0.00  0.00    -0.153 OA
ATOM     20  O   UNL     1       3.717  -3.956   1.692  0.00  0.00    -0.153 OA
BRANCH  18  29
ATOM     21  C   UNL     1       0.617   2.004  -0.084  0.00  0.00    +0.000 A 
ATOM     22  C   UNL     1       1.902   2.500  -0.209  0.00  0.00    +0.000 A 
ATOM     23  C   UNL     1       2.971   1.629  -0.241  0.00  0.00    +0.005 A 
ATOM     24  C   UNL     1       2.767   0.259  -0.145  0.00  0.00    -0.028 A 
ATOM     25  C   UNL     1       1.490  -0.236  -0.011  0.00  0.00    -0.042 A 
ATOM     26  C   UNL     1       0.414   0.643   0.013  0.00  0.00    +0.004 A 
ATOM     27  C   UNL     1       1.194  -1.706   0.128  0.00  0.00    +0.052 C 
ATOM     28  C   UNL     1       2.359  -2.547  -0.389  0.00  0.00    +0.114 C 
ATOM     29  N   UNL     1       3.601  -2.002   0.184  0.00  0.00    -0.172 NA
ATOM     30  C   UNL     1       3.978  -0.638  -0.202  0.00  0.00    +0.144 C 
ENDBRANCH  18  29
ENDBRANCH   1  18
TORSDOF 3
