REMARK  Name = ZINC63375389
REMARK  6 active torsions:
REMARK  status: ('A' for Active; 'I' for Inactive)
REMARK    1  A    between atoms: C_1  and  C_2
REMARK    2  A    between atoms: C_7  and  C_8
REMARK    3  A    between atoms: N_26  and  C_29
REMARK    4  A    between atoms: C_34  and  C_35
REMARK    5  A    between atoms: N_37  and  C_38
REMARK    6  A    between atoms: C_38  and  C_39
REMARK                            x       y       z     vdW  Elec       q    Type
REMARK                         _______ _______ _______ _____ _____    ______ ____
ROOT
ATOM      1  C   UNL     1       0.243   0.052   2.490  0.00  0.00    +0.135 C 
ATOM      2  C   UNL     1       1.656   0.634   2.633  0.00  0.00    +0.131 C 
ATOM      3  C   UNL     1       1.845   0.999   4.100  0.00  0.00    -0.034 C 
ATOM      4  C   UNL     1       2.147   2.293   4.128  0.00  0.00    -0.001 A 
ATOM      5  C   UNL     1       2.494   3.192   5.241  0.00  0.00    +0.010 A 
ATOM      6  C   UNL     1       2.737   4.488   4.910  0.00  0.00    +0.001 A 
ATOM      7  C   UNL     1       2.671   4.973   3.600  0.00  0.00    +0.002 A 
ATOM      8  C   UNL     1       2.365   4.216   2.517  0.00  0.00    +0.026 A 
ATOM      9  C   UNL     1       2.092   2.834   2.737  0.00  0.00    +0.043 A 
ATOM     10  N   UNL     1       1.792   1.886   1.884  0.00  0.00    -0.375 N 
ATOM     11  C   UNL     1       1.637   0.017   5.229  0.00  0.00    +0.065 C 
ATOM     12  C   UNL     1       1.065  -1.263   4.595  0.00  0.00    +0.169 C 
ATOM     13  N   UNL     1       0.029  -0.866   3.616  0.00  0.00    -0.264 N 
ATOM     14  C   UNL     1      -1.104  -1.481   3.977  0.00  0.00    +0.317 C 
ATOM     15  O   UNL     1      -2.126  -1.459   3.321  0.00  0.00    -0.252 OA
ATOM     16  N   UNL     1      -0.980  -2.125   5.146  0.00  0.00    -0.192 N 
ATOM     17  C   UNL     1       0.302  -2.055   5.635  0.00  0.00    +0.248 C 
ATOM     18  O   UNL     1       0.737  -2.514   6.670  0.00  0.00    -0.273 OA
ATOM     19  H   UNL     1       1.677   1.989   0.926  0.00  0.00    +0.160 HD
ENDROOT
BRANCH   1  26
ATOM     20  C   UNL     1      -0.652   1.421   0.109  0.00  0.00    +0.044 C 
ATOM     21  C   UNL     1      -0.301  -0.043   0.049  0.00  0.00    -0.045 A 
ATOM     22  C   UNL     1      -0.402  -0.730  -1.146  0.00  0.00    +0.004 A 
ATOM     23  C   UNL     1      -0.080  -2.073  -1.201  0.00  0.00    +0.000 A 
ATOM     24  C   UNL     1       0.343  -2.729  -0.061  0.00  0.00    +0.000 A 
ATOM     25  C   UNL     1       0.445  -2.043   1.135  0.00  0.00    +0.006 A 
ATOM     26  C   UNL     1       0.127  -0.698   1.188  0.00  0.00    -0.022 A 
ENDBRANCH   1  26
BRANCH  16  27
ATOM     27  C   UNL     1      -2.023  -2.798   5.786  0.00  0.00    +0.058 A 
ATOM     28  C   UNL     1      -2.250  -4.142   5.525  0.00  0.00    +0.025 A 
ATOM     29  C   UNL     1      -3.281  -4.805   6.159  0.00  0.00    +0.002 A 
ATOM     30  C   UNL     1      -4.097  -4.137   7.057  0.00  0.00    +0.001 A 
ATOM     31  C   UNL     1      -3.887  -2.802   7.328  0.00  0.00    +0.015 A 
ATOM     32  C   UNL     1      -2.843  -2.120   6.699  0.00  0.00    +0.059 A 
BRANCH  32  33
ATOM     33  C   UNL     1      -2.609  -0.692   6.989  0.00  0.00    +0.246 C 
ATOM     34  O   UNL     1      -1.703  -0.100   6.436  0.00  0.00    -0.270 OA
ATOM     35  N   UNL     1      -3.400  -0.044   7.867  0.00  0.00    -0.308 N 
ATOM     36  H   UNL     1      -4.123  -0.516   8.309  0.00  0.00    +0.149 HD
BRANCH  35  37
ATOM     37  C   UNL     1      -3.167   1.373   8.155  0.00  0.00    +0.131 C 
BRANCH  37  38
ATOM     38  C   UNL     1      -4.180   1.854   9.162  0.00  0.00    -0.016 C 
ATOM     39  C   UNL     1      -3.781   2.423  10.273  0.00  0.00    +0.005 C 
ENDBRANCH  37  38
ENDBRANCH  35  37
ENDBRANCH  32  33
ENDBRANCH  16  27
TORSDOF 5
