REMARK  Name = ZINC22616353
REMARK  10 active torsions:
REMARK  status: ('A' for Active; 'I' for Inactive)
REMARK    1  A    between atoms: C_1  and  C_2
REMARK    2  A    between atoms: C_2  and  O_3
REMARK    3  A    between atoms: O_3  and  C_4
REMARK    4  A    between atoms: C_9  and  N_10
REMARK    5  A    between atoms: C_14  and  S_16
REMARK    6  A    between atoms: S_16  and  C_17
REMARK    7  A    between atoms: C_17  and  C_19
REMARK    8  A    between atoms: C_17  and  C_20
REMARK    9  A    between atoms: C_26  and  C_32
REMARK   10  A    between atoms: C_27  and  C_31
REMARK                            x       y       z     vdW  Elec       q    Type
REMARK                         _______ _______ _______ _____ _____    ______ ____
ROOT
ATOM      1  N   UNL     1      -3.902  -1.567   0.031  0.00  0.00    -0.289 N 
ATOM      2  C   UNL     1      -5.176  -2.115  -0.065  0.00  0.00    +0.187 A 
ATOM      3  N   UNL     1      -5.541  -3.383  -0.081  0.00  0.00    -0.125 NA
ATOM      4  N   UNL     1      -6.873  -3.710  -0.183  0.00  0.00    -0.133 NA
ATOM      5  C   UNL     1      -7.779  -2.754  -0.265  0.00  0.00    +0.161 A 
ATOM      6  S   UNL     1      -6.756  -1.292  -0.191  0.00  0.00    -0.024 S 
ATOM      7  H   UNL     1      -3.779  -0.609  -0.053  0.00  0.00    +0.154 HD
ENDROOT
BRANCH   1  13
ATOM      8  C   UNL     1      -1.505  -1.886   0.138  0.00  0.00    +0.142 A 
ATOM      9  C   UNL     1      -0.416  -2.712   0.360  0.00  0.00    +0.047 A 
ATOM     10  C   UNL     1      -0.610  -4.042   0.684  0.00  0.00    +0.004 A 
ATOM     11  C   UNL     1      -1.891  -4.552   0.788  0.00  0.00    +0.002 A 
ATOM     12  C   UNL     1      -2.984  -3.735   0.568  0.00  0.00    +0.027 A 
ATOM     13  C   UNL     1      -2.797  -2.398   0.248  0.00  0.00    +0.075 A 
BRANCH   8  14
ATOM     14  O   UNL     1      -1.316  -0.578  -0.180  0.00  0.00    -0.490 OA
BRANCH  14  16
ATOM     15  C   UNL     1       0.049   1.363  -0.640  0.00  0.00    +0.048 C 
ATOM     16  C   UNL     1       0.036  -0.122  -0.275  0.00  0.00    +0.226 C 
ENDBRANCH  14  16
ENDBRANCH   8  14
ENDBRANCH   1  13
BRANCH   5  17
ATOM     17  S   UNL     1      -9.531  -2.885  -0.403  0.00  0.00    -0.086 S 
BRANCH  17  18
ATOM     18  C   UNL     1      -9.838  -4.673  -0.409  0.00  0.00    +0.116 C 
ATOM     19  C   UNL     1      -9.222  -5.292  -1.665  0.00  0.00    +0.027 C 
BRANCH  18  20
ATOM     20  C   UNL     1     -11.323  -4.928  -0.401  0.00  0.00    +0.124 A 
ATOM     21  N   UNL     1     -12.165  -3.984  -0.896  0.00  0.00    -0.309 N 
ATOM     22  H   UNL     1     -11.797  -3.158  -1.248  0.00  0.00    +0.170 HD
ATOM     23  C   UNL     1     -13.498  -4.171  -0.907  0.00  0.00    +0.260 A 
ATOM     24  O   UNL     1     -14.239  -3.314  -1.356  0.00  0.00    -0.267 OA
ATOM     25  C   UNL     1     -14.031  -5.394  -0.385  0.00  0.00    +0.075 A 
ATOM     26  C   UNL     1     -15.412  -5.828  -0.287  0.00  0.00    -0.026 A 
ATOM     27  C   UNL     1     -15.685  -7.030   0.245  0.00  0.00    -0.008 A 
ATOM     28  S   UNL     1     -14.074  -7.674   0.659  0.00  0.00    -0.073 S 
ATOM     29  C   UNL     1     -13.083  -6.310   0.106  0.00  0.00    +0.116 A 
ATOM     30  N   UNL     1     -11.778  -6.055   0.078  0.00  0.00    -0.225 NA
ATOM     31  C   UNL     1     -17.030  -7.680   0.445  0.00  0.00    +0.052 C 
ATOM     32  C   UNL     1     -16.527  -4.940  -0.776  0.00  0.00    +0.045 C 
ENDBRANCH  18  20
ENDBRANCH  17  18
ENDBRANCH   5  17
TORSDOF 6
