REMARK  Name = ZINC13499562
REMARK  15 active torsions:
REMARK  status: ('A' for Active; 'I' for Inactive)
REMARK    1  A    between atoms: C_1  and  C_2
REMARK    2  A    between atoms: C_2  and  C_3
REMARK    3  A    between atoms: C_3  and  C_4
REMARK    4  A    between atoms: C_4  and  C_6
REMARK    5  A    between atoms: C_4  and  N_74
REMARK    6  A    between atoms: N_10  and  C_11
REMARK    7  A    between atoms: C_11  and  C_12
REMARK    8  A    between atoms: C_11  and  C_13
REMARK    9  A    between atoms: C_11  and  C_14
REMARK   10  A    between atoms: C_14  and  C_15
REMARK   11  A    between atoms: C_16  and  C_17
REMARK   12  A    between atoms: C_16  and  N_74
REMARK   13  A    between atoms: C_20  and  C_30
REMARK   14  A    between atoms: C_22  and  C_29
REMARK   15  A    between atoms: C_31  and  N_74
REMARK                            x       y       z     vdW  Elec       q    Type
REMARK                         _______ _______ _______ _____ _____    ______ ____
ROOT
ATOM      1  N   UNL     1      -3.057   0.473  -0.597  0.00  0.00    +0.391 N 
ATOM      2  H   UNL     1      -2.116   0.158  -0.858  0.00  0.00    -0.080 HD
ENDROOT
BRANCH   1   3
ATOM      3  C   UNL     1      -3.224   1.882  -1.012  0.00  0.00    -0.067 C 
ATOM      4  C   UNL     1      -3.365   1.961  -2.546  0.00  0.00    -0.015 C 
ATOM      5  C   UNL     1      -2.580   3.240  -2.934  0.00  0.00    -0.002 C 
ATOM      6  C   UNL     1      -1.369   3.204  -1.969  0.00  0.00    -0.002 C 
ATOM      7  C   UNL     1      -1.956   2.673  -0.645  0.00  0.00    -0.015 C 
ENDBRANCH   1   3
BRANCH   1   8
ATOM      8  C   UNL     1      -4.054  -0.376  -1.282  0.00  0.00    +0.003 C 
BRANCH   8   9
ATOM      9  C   UNL     1      -5.442  -0.075  -0.776  0.00  0.00    +0.139 A 
ATOM     10  N   UNL     1      -5.765   0.330   0.428  0.00  0.00    -0.115 NA
ATOM     11  N   UNL     1      -7.044   0.476   0.469  0.00  0.00    -0.023 NA
ATOM     12  N   UNL     1      -7.545   0.177  -0.678  0.00  0.00    -0.043 NA
ATOM     13  N   UNL     1      -6.589  -0.163  -1.475  0.00  0.00    -0.225 N 
BRANCH  13  14
ATOM     14  C   UNL     1      -6.726  -0.572  -2.875  0.00  0.00    +0.061 C 
ATOM     15  C   UNL     1      -6.099   0.491  -3.780  0.00  0.00    +0.036 C 
ATOM     16  C   UNL     1      -6.012  -1.908  -3.088  0.00  0.00    +0.036 C 
BRANCH  14  17
ATOM     17  C   UNL     1      -8.209  -0.725  -3.219  0.00  0.00    +0.026 C 
ATOM     18  C   UNL     1      -8.352  -1.151  -4.681  0.00  0.00    +0.006 C 
ENDBRANCH  14  17
ENDBRANCH  13  14
ENDBRANCH   8   9
BRANCH   8  19
ATOM     19  C   UNL     1      -3.721  -1.844  -1.013  0.00  0.00    -0.008 C 
BRANCH  19  21
ATOM     20  C   UNL     1      -2.097  -3.683  -1.488  0.00  0.00    +0.004 C 
ATOM     21  C   UNL     1      -2.373  -2.187  -1.652  0.00  0.00    -0.005 C 
ENDBRANCH  19  21
ENDBRANCH   8  19
ENDBRANCH   1   8
BRANCH   1  22
ATOM     22  C   UNL     1      -3.215   0.355   0.868  0.00  0.00    -0.036 C 
BRANCH  22  23
ATOM     23  C   UNL     1      -1.955   0.851   1.530  0.00  0.00    +0.001 A 
ATOM     24  C   UNL     1      -1.907   2.108   2.036  0.00  0.00    +0.017 A 
ATOM     25  C   UNL     1      -0.666   2.560   2.668  0.00  0.00    +0.002 A 
ATOM     26  C   UNL     1      -0.554   3.848   3.202  0.00  0.00    -0.041 A 
ATOM     27  C   UNL     1       0.617   4.240   3.785  0.00  0.00    +0.007 A 
ATOM     28  C   UNL     1       1.698   3.371   3.852  0.00  0.00    -0.048 A 
ATOM     29  C   UNL     1       1.611   2.098   3.332  0.00  0.00    +0.029 A 
ATOM     30  C   UNL     1       0.427   1.677   2.734  0.00  0.00    +0.050 A 
ATOM     31  N   UNL     1       0.312   0.409   2.206  0.00  0.00    -0.322 N 
ATOM     32  H   UNL     1       1.067  -0.199   2.252  0.00  0.00    +0.169 HD
ATOM     33  C   UNL     1      -0.831   0.002   1.627  0.00  0.00    +0.251 A 
ATOM     34  O   UNL     1      -0.898  -1.126   1.170  0.00  0.00    -0.268 OA
ATOM     35  C   UNL     1       2.981   3.825   4.500  0.00  0.00    +0.044 C 
ATOM     36  C   UNL     1      -1.721   4.800   3.134  0.00  0.00    +0.044 C 
ENDBRANCH  22  23
ENDBRANCH   1  22
TORSDOF 9
