REMARK  Name = ZINC18103167
REMARK  13 active torsions:
REMARK  status: ('A' for Active; 'I' for Inactive)
REMARK    1  A    between atoms: C_1  and  C_2
REMARK    2  A    between atoms: C_6  and  O_9
REMARK    3  A    between atoms: C_7  and  C_8
REMARK    4  A    between atoms: O_9  and  C_10
REMARK    5  A    between atoms: C_10  and  C_12
REMARK    6  A    between atoms: C_10  and  C_13
REMARK    7  A    between atoms: N_15  and  N_16
REMARK    8  A    between atoms: C_17  and  C_19
REMARK    9  A    between atoms: C_19  and  C_20
REMARK   10  A    between atoms: C_20  and  C_21
REMARK   11  A    between atoms: C_21  and  C_22
REMARK   12  A    between atoms: C_22  and  C_23
REMARK   13  A    between atoms: C_23  and  N_24
REMARK                            x       y       z     vdW  Elec       q    Type
REMARK                         _______ _______ _______ _____ _____    ______ ____
ROOT
ATOM      1  N   UNL     1       0.026   1.382  -0.506  0.00  0.00    -0.234 N 
ATOM      2  C   UNL     1      -1.140   2.057  -0.535  0.00  0.00    +0.229 C 
ATOM      3  O   UNL     1      -2.186   1.468  -0.365  0.00  0.00    -0.274 OA
ATOM      4  H   UNL     1       0.863   1.853  -0.646  0.00  0.00    +0.173 HD
ENDROOT
BRANCH   1   7
ATOM      5  C   UNL     1       1.196  -0.677  -0.257  0.00  0.00    +0.270 C 
ATOM      6  O   UNL     1       2.242  -0.088  -0.431  0.00  0.00    -0.270 OA
ATOM      7  N   UNL     1       0.030  -0.001  -0.280  0.00  0.00    -0.231 N 
ATOM      8  H   UNL     1      -0.806  -0.471  -0.140  0.00  0.00    +0.173 HD
BRANCH   5   9
ATOM      9  C   UNL     1       1.200  -2.164  -0.013  0.00  0.00    +0.257 C 
ATOM     10  C   UNL     1       0.497  -2.872  -1.173  0.00  0.00    +0.062 C 
BRANCH   9  11
ATOM     11  O   UNL     1       2.548  -2.627   0.081  0.00  0.00    -0.480 OA
BRANCH  11  17
ATOM     12  C   UNL     1       5.672  -5.856   1.989  0.00  0.00    +0.044 C 
ATOM     13  C   UNL     1       4.267  -5.374   1.737  0.00  0.00    -0.044 A 
ATOM     14  C   UNL     1       3.191  -6.094   2.223  0.00  0.00    +0.004 A 
ATOM     15  C   UNL     1       1.901  -5.655   1.992  0.00  0.00    +0.004 A 
ATOM     16  C   UNL     1       1.683  -4.491   1.281  0.00  0.00    +0.046 A 
ATOM     17  C   UNL     1       2.760  -3.769   0.787  0.00  0.00    +0.125 A 
ATOM     18  C   UNL     1       4.054  -4.213   1.019  0.00  0.00    -0.006 A 
ATOM     19  C   UNL     1       5.227  -3.428   0.490  0.00  0.00    +0.048 C 
ENDBRANCH  11  17
ENDBRANCH   9  11
ENDBRANCH   5   9
ENDBRANCH   1   7
BRANCH   2  20
ATOM     20  C   UNL     1      -1.144   3.544  -0.778  0.00  0.00    +0.097 C 
BRANCH  20  21
ATOM     21  C   UNL     1      -2.584   4.060  -0.762  0.00  0.00    +0.009 C 
BRANCH  21  22
ATOM     22  C   UNL     1      -2.588   5.570  -1.009  0.00  0.00    +0.002 C 
BRANCH  22  23
ATOM     23  C   UNL     1      -4.029   6.085  -0.993  0.00  0.00    +0.019 C 
BRANCH  23  24
ATOM     24  C   UNL     1      -4.032   7.595  -1.240  0.00  0.00    +0.103 C 
BRANCH  24  25
ATOM     25  N   UNL     1      -5.412   8.089  -1.224  0.00  0.00    -0.327 N 
ATOM     26  C   UNL     1      -5.666   9.428  -1.425  0.00  0.00    +0.150 C 
ATOM     27  N   UNL     1      -4.692  10.257  -1.630  0.00  0.00    -0.113 NA
ATOM     28  S   UNL     1      -5.403  11.759  -1.826  0.00  0.00    +0.101 S 
ATOM     29  O   UNL     1      -5.035  12.561  -0.712  0.00  0.00    -0.146 OA
ATOM     30  O   UNL     1      -5.208  12.157  -3.176  0.00  0.00    -0.146 OA
ATOM     31  C   UNL     1      -7.108  11.316  -1.633  0.00  0.00    +0.123 A 
ATOM     32  C   UNL     1      -7.048   9.932  -1.417  0.00  0.00    +0.043 A 
ATOM     33  C   UNL     1      -8.262   9.258  -1.215  0.00  0.00    +0.013 A 
ATOM     34  C   UNL     1      -9.454   9.947  -1.244  0.00  0.00    +0.001 A 
ATOM     35  C   UNL     1      -9.481  11.312  -1.466  0.00  0.00    +0.002 A 
ATOM     36  C   UNL     1      -8.289  11.997  -1.662  0.00  0.00    +0.030 A 
ATOM     37  H   UNL     1      -6.146   7.473  -1.072  0.00  0.00    +0.148 HD
ENDBRANCH  24  25
ENDBRANCH  23  24
ENDBRANCH  22  23
ENDBRANCH  21  22
ENDBRANCH  20  21
ENDBRANCH   2  20
TORSDOF 10
