REMARK  Name = ZINC14621440
REMARK  7 active torsions:
REMARK  status: ('A' for Active; 'I' for Inactive)
REMARK    1  A    between atoms: C_3  and  C_27
REMARK    2  A    between atoms: C_6  and  C_7
REMARK    3  A    between atoms: C_7  and  S_8
REMARK    4  A    between atoms: S_8  and  C_9
REMARK    5  A    between atoms: C_15  and  C_17
REMARK    6  A    between atoms: C_17  and  O_18
REMARK    7  A    between atoms: O_18  and  C_19
REMARK                            x       y       z     vdW  Elec       q    Type
REMARK                         _______ _______ _______ _____ _____    ______ ____
ROOT
ATOM      1  C   UNL     1      -1.875   2.371   5.993  0.00  0.00    +0.160 A 
ATOM      2  N   UNL     1      -2.445   2.762   4.862  0.00  0.00    -0.133 NA
ATOM      3  N   UNL     1      -1.979   2.441   3.735  0.00  0.00    -0.125 NA
ATOM      4  C   UNL     1      -0.893   1.695   3.612  0.00  0.00    +0.189 A 
ATOM      5  S   UNL     1      -0.506   1.422   5.338  0.00  0.00    -0.024 S 
ATOM      6  N   UNL     1      -0.242   1.246   2.466  0.00  0.00    -0.260 N 
ATOM      7  C   UNL     1      -0.718   1.572   1.248  0.00  0.00    +0.256 C 
ATOM      8  O   UNL     1      -1.715   2.256   1.150  0.00  0.00    -0.272 OA
ATOM      9  H   UNL     1       0.555   0.699   2.544  0.00  0.00    +0.157 HD
ENDROOT
BRANCH   1  10
ATOM     10  S   UNL     1      -2.337   2.689   7.663  0.00  0.00    -0.092 S 
BRANCH  10  11
ATOM     11  C   UNL     1      -3.828   3.712   7.519  0.00  0.00    +0.111 C 
BRANCH  11  17
ATOM     12  C   UNL     1      -5.248   3.232   9.523  0.00  0.00    +0.006 A 
ATOM     13  C   UNL     1      -5.712   3.542  10.784  0.00  0.00    +0.019 A 
ATOM     14  C   UNL     1      -5.263   4.699  11.425  0.00  0.00    +0.052 A 
ATOM     15  C   UNL     1      -4.345   5.533  10.784  0.00  0.00    +0.019 A 
ATOM     16  C   UNL     1      -3.886   5.208   9.524  0.00  0.00    +0.006 A 
ATOM     17  C   UNL     1      -4.334   4.060   8.896  0.00  0.00    -0.037 A 
BRANCH  14  18
ATOM     18  C   UNL     1      -5.744   5.029  12.733  0.00  0.00    +0.099 C 
ATOM     19  N   UNL     1      -6.125   5.292  13.770  0.00  0.00    -0.191 NA
ENDBRANCH  14  18
ENDBRANCH  11  17
ENDBRANCH  10  11
ENDBRANCH   1  10
BRANCH   7  20
ATOM     20  C   UNL     1      -0.013   1.086   0.008  0.00  0.00    +0.325 C 
BRANCH  20  21
ATOM     21  O   UNL     1      -0.704   1.559  -1.150  0.00  0.00    -0.481 OA
BRANCH  21  22
ATOM     22  C   UNL     1      -0.194   1.207  -2.360  0.00  0.00    +0.140 A 
ATOM     23  C   UNL     1       0.948   0.423  -2.431  0.00  0.00    +0.048 A 
ATOM     24  C   UNL     1       1.465   0.067  -3.661  0.00  0.00    +0.023 A 
ATOM     25  C   UNL     1       0.845   0.491  -4.823  0.00  0.00    +0.043 A 
ATOM     26  C   UNL     1      -0.294   1.274  -4.755  0.00  0.00    +0.043 A 
ATOM     27  C   UNL     1      -0.818   1.628  -3.526  0.00  0.00    +0.084 A 
ATOM     28 CL   UNL     1      -2.252   2.603  -3.441  0.00  0.00    -0.080 Cl
ATOM     29 CL   UNL     1       1.497   0.042  -6.368  0.00  0.00    -0.083 Cl
ENDBRANCH  21  22
ENDBRANCH  20  21
ENDBRANCH   7  20
TORSDOF 7
