REMARK  Name = ZINC29494610
REMARK  6 active torsions:
REMARK  status: ('A' for Active; 'I' for Inactive)
REMARK    1  A    between atoms: C_9  and  C_12
REMARK    2  A    between atoms: C_15  and  C_17
REMARK    3  A    between atoms: C_17  and  O_18
REMARK    4  A    between atoms: O_18  and  C_19
REMARK    5  A    between atoms: C_19  and  C_21
REMARK    6  A    between atoms: C_23  and  C_27
REMARK                            x       y       z     vdW  Elec       q    Type
REMARK                         _______ _______ _______ _____ _____    ______ ____
ROOT
ATOM      1  C   UNL     1       1.300   1.708   2.405  0.00  0.00    +0.002 A 
ATOM      2  C   UNL     1       1.810   2.461   1.363  0.00  0.00    +0.004 A 
ATOM      3  C   UNL     1       1.022   2.759   0.267  0.00  0.00    +0.047 A 
ATOM      4  C   UNL     1      -0.286   2.301   0.208  0.00  0.00    +0.143 A 
ATOM      5  C   UNL     1      -0.798   1.545   1.259  0.00  0.00    +0.078 A 
ATOM      6  C   UNL     1      -0.003   1.249   2.355  0.00  0.00    +0.027 A 
ATOM      7  N   UNL     1      -2.124   1.084   1.205  0.00  0.00    -0.261 N 
ATOM      8  C   UNL     1      -2.825   1.156  -0.092  0.00  0.00    +0.168 C 
ATOM      9  C   UNL     1      -2.472   2.507  -0.731  0.00  0.00    +0.276 C 
ATOM     10  O   UNL     1      -1.053   2.595  -0.875  0.00  0.00    -0.476 OA
ATOM     11  C   UNL     1      -2.737   0.594   2.301  0.00  0.00    +0.258 C 
ATOM     12  O   UNL     1      -2.120   0.473   3.338  0.00  0.00    -0.272 OA
ENDROOT
BRANCH   9  13
ATOM     13  C   UNL     1      -3.126   2.611  -2.085  0.00  0.00    +0.253 C 
ATOM     14  O   UNL     1      -2.442   2.661  -3.085  0.00  0.00    -0.272 OA
ATOM     15  N   UNL     1      -4.469   2.648  -2.184  0.00  0.00    -0.326 N 
ATOM     16  H   UNL     1      -4.946   2.724  -3.172  0.00  0.00    +0.145 HD
ATOM     17  H   UNL     1      -5.089   2.602  -1.276  0.00  0.00    +0.145 HD
ENDBRANCH   9  13
BRANCH  11  18
ATOM     18  C   UNL     1      -4.189   0.195   2.237  0.00  0.00    +0.328 C 
BRANCH  18  19
ATOM     19  O   UNL     1      -4.644  -0.188   3.562  0.00  0.00    -0.451 OA
BRANCH  19  20
ATOM     20  C   UNL     1      -5.930  -0.575   3.679  0.00  0.00    +0.358 C 
ATOM     21  O   UNL     1      -6.651  -0.591   2.701  0.00  0.00    -0.243 OA
BRANCH  20  22
ATOM     22  C   UNL     1      -6.461  -0.976   4.990  0.00  0.00    +0.143 A 
ATOM     23  C   UNL     1      -7.748  -1.395   5.270  0.00  0.00    +0.064 A 
ATOM     24  C   UNL     1      -7.760  -1.663   6.650  0.00  0.00    +0.093 A 
ATOM     25  N   UNL     1      -6.555  -1.411   7.115  0.00  0.00    -0.173 NA
ATOM     26  N   UNL     1      -5.776  -1.016   6.173  0.00  0.00    -0.270 N 
ATOM     27  H   UNL     1      -4.714  -0.731   6.204  0.00  0.00    +0.189 HD
BRANCH  24  28
ATOM     28  C   UNL     1      -8.922  -2.143   7.440  0.00  0.00    +0.002 A 
ATOM     29  C   UNL     1     -10.148  -2.363   6.817  0.00  0.00    +0.011 A 
ATOM     30  C   UNL     1     -11.224  -2.813   7.555  0.00  0.00    +0.016 A 
ATOM     31  C   UNL     1     -11.089  -3.036   8.914  0.00  0.00    +0.018 A 
ATOM     32  C   UNL     1      -9.874  -2.814   9.539  0.00  0.00    +0.016 A 
ATOM     33  C   UNL     1      -8.791  -2.368   8.809  0.00  0.00    +0.011 A 
ATOM     34 BR   UNL     1     -12.569  -3.646   9.921  0.00  0.00    -0.050 Br
ENDBRANCH  24  28
ENDBRANCH  20  22
ENDBRANCH  19  20
ENDBRANCH  18  19
ENDBRANCH  11  18
TORSDOF 6
