REMARK  Name = ZINC66859681
REMARK  3 active torsions:
REMARK  status: ('A' for Active; 'I' for Inactive)
REMARK    1  A    between atoms: C_4  and  S_10
REMARK    2  A    between atoms: C_5  and  C_7
REMARK    3  A    between atoms: S_10  and  C_11
REMARK                            x       y       z     vdW  Elec       q    Type
REMARK                         _______ _______ _______ _____ _____    ______ ____
ROOT
ATOM      1  C   UNL     1      -0.328   0.660  -0.145  0.00  0.00    +0.001 A 
ATOM      2  C   UNL     1       0.718   1.569  -0.121  0.00  0.00    +0.001 A 
ATOM      3  C   UNL     1       2.025   1.129  -0.089  0.00  0.00    +0.016 A 
ATOM      4  C   UNL     1       2.301  -0.233  -0.081  0.00  0.00    +0.026 A 
ATOM      5  C   UNL     1       1.244  -1.156  -0.105  0.00  0.00    +0.050 A 
ATOM      6  C   UNL     1      -0.074  -0.694  -0.138  0.00  0.00    +0.014 A 
ENDROOT
BRANCH   5   7
ATOM      7  C   UNL     1       1.523  -2.603  -0.097  0.00  0.00    +0.243 C 
ATOM      8  O   UNL     1       2.671  -3.001  -0.069  0.00  0.00    -0.270 OA
ATOM      9  N   UNL     1       0.504  -3.486  -0.120  0.00  0.00    -0.325 N 
ATOM     10  H   UNL     1      -0.412  -3.168  -0.142  0.00  0.00    +0.145 HD
ATOM     11  H   UNL     1       0.688  -4.438  -0.115  0.00  0.00    +0.145 HD
ENDBRANCH   5   7
BRANCH   4  12
ATOM     12  S   UNL     1       3.970  -0.798  -0.041  0.00  0.00    -0.068 S 
BRANCH  12  13
ATOM     13  C   UNL     1       4.219  -1.272   1.638  0.00  0.00    +0.113 A 
ATOM     14  C   UNL     1       5.437  -1.887   2.040  0.00  0.00    +0.040 A 
ATOM     15  C   UNL     1       6.610  -2.225   1.253  0.00  0.00    +0.020 A 
ATOM     16  C   UNL     1       7.656  -2.810   1.856  0.00  0.00    +0.048 A 
ATOM     17  S   UNL     1       7.133  -2.952   3.554  0.00  0.00    -0.077 S 
ATOM     18  C   UNL     1       5.523  -2.222   3.409  0.00  0.00    +0.112 A 
ATOM     19  N   UNL     1       4.532  -1.972   4.241  0.00  0.00    -0.228 NA
ATOM     20  C   UNL     1       3.426  -1.398   3.809  0.00  0.00    +0.223 A 
ATOM     21  N   UNL     1       3.277  -1.054   2.543  0.00  0.00    -0.228 NA
ENDBRANCH  12  13
ENDBRANCH   4  12
TORSDOF 3
