REMARK  Name = ZINC14002247
REMARK  8 active torsions:
REMARK  status: ('A' for Active; 'I' for Inactive)
REMARK    1  A    between atoms: C_10  and  O_11
REMARK    2  A    between atoms: O_11  and  C_12
REMARK    3  A    between atoms: C_12  and  C_13
REMARK    4  A    between atoms: N_15  and  N_16
REMARK    5  A    between atoms: N_16  and  C_17
REMARK    6  A    between atoms: C_17  and  N_19
REMARK    7  A    between atoms: C_20  and  C_22
REMARK    8  A    between atoms: C_22  and  C_23
REMARK                            x       y       z     vdW  Elec       q    Type
REMARK                         _______ _______ _______ _____ _____    ______ ____
ROOT
ATOM      1  C   UNL     1      -4.883   3.803   0.069  0.00  0.00    +0.267 C 
ATOM      2  O   UNL     1      -4.766   5.010   0.074  0.00  0.00    -0.271 OA
ATOM      3  N   UNL     1      -6.109   3.245   0.078  0.00  0.00    -0.232 N 
ATOM      4  H   UNL     1      -6.203   2.279   0.074  0.00  0.00    +0.173 HD
ENDROOT
BRANCH   3   5
ATOM      5  N   UNL     1      -7.249   4.059   0.093  0.00  0.00    -0.245 N 
ATOM      6  H   UNL     1      -7.156   5.024   0.096  0.00  0.00    +0.172 HD
BRANCH   5   7
ATOM      7  C   UNL     1      -8.476   3.500   0.102  0.00  0.00    +0.153 C 
ATOM      8  S   UNL     1      -9.869   4.495   0.120  0.00  0.00    -0.017 S 
BRANCH   7   9
ATOM      9  N   UNL     1      -8.606   2.159   0.097  0.00  0.00    -0.266 N 
ATOM     10  C   UNL     1      -9.832   1.601   0.106  0.00  0.00    +0.223 C 
ATOM     11  O   UNL     1     -10.819   2.305   0.118  0.00  0.00    -0.275 OA
ATOM     12  H   UNL     1      -7.816   1.595   0.086  0.00  0.00    +0.157 HD
BRANCH  10  13
ATOM     13  C   UNL     1      -9.978   0.101   0.100  0.00  0.00    +0.131 C 
BRANCH  13  14
ATOM     14  C   UNL     1     -11.440  -0.263   0.112  0.00  0.00    -0.039 A 
ATOM     15  C   UNL     1     -12.098  -0.440   1.315  0.00  0.00    +0.005 A 
ATOM     16  C   UNL     1     -13.441  -0.768   1.327  0.00  0.00    +0.020 A 
ATOM     17  C   UNL     1     -14.124  -0.929   0.134  0.00  0.00    +0.041 A 
ATOM     18  C   UNL     1     -13.463  -0.756  -1.069  0.00  0.00    +0.020 A 
ATOM     19  C   UNL     1     -12.122  -0.423  -1.080  0.00  0.00    +0.005 A 
ATOM     20 CL   UNL     1     -15.809  -1.347   0.148  0.00  0.00    -0.084 Cl
ENDBRANCH  13  14
ENDBRANCH  10  13
ENDBRANCH   7   9
ENDBRANCH   5   7
ENDBRANCH   3   5
BRANCH   1  21
ATOM     21  C   UNL     1      -3.656   2.927   0.053  0.00  0.00    +0.326 C 
BRANCH  21  22
ATOM     22  O   UNL     1      -2.486   3.747   0.046  0.00  0.00    -0.482 OA
BRANCH  22  32
ATOM     23  C   UNL     1       2.297   5.267   0.007  0.00  0.00    +0.001 A 
ATOM     24  C   UNL     1       1.077   5.940   0.022  0.00  0.00    +0.001 A 
ATOM     25  C   UNL     1      -0.100   5.256   0.030  0.00  0.00    +0.012 A 
ATOM     26  C   UNL     1      -0.088   3.852   0.024  0.00  0.00    +0.024 A 
ATOM     27  C   UNL     1       1.152   3.167   0.008  0.00  0.00    -0.014 A 
ATOM     28  C   UNL     1       2.347   3.907   0.000  0.00  0.00    +0.008 A 
ATOM     29  C   UNL     1       1.164   1.762   0.000  0.00  0.00    +0.009 A 
ATOM     30  C   UNL     1      -0.013   1.076   0.008  0.00  0.00    +0.004 A 
ATOM     31  C   UNL     1      -1.234   1.744   0.017  0.00  0.00    +0.046 A 
ATOM     32  C   UNL     1      -1.287   3.110   0.032  0.00  0.00    +0.129 A 
ENDBRANCH  22  32
ENDBRANCH  21  22
ENDBRANCH   1  21
TORSDOF 8
