REMARK  Name = ZINC02248966
REMARK  3 active torsions:
REMARK  status: ('A' for Active; 'I' for Inactive)
REMARK    1  A    between atoms: C_1  and  C_2
REMARK    2  A    between atoms: C_5  and  C_8
REMARK    3  A    between atoms: C_26  and  C_28
REMARK                            x       y       z     vdW  Elec       q    Type
REMARK                         _______ _______ _______ _____ _____    ______ ____
ROOT
ATOM      1  C   UNL     1       0.059  -4.275  -0.021  0.00  0.00    +0.234 C 
ATOM      2  C   UNL     1       1.463  -4.755   0.204  0.00  0.00    +0.027 C 
ATOM      3  C   UNL     1       1.920  -4.981   1.453  0.00  0.00    +0.083 C 
ATOM      4  C   UNL     1       0.980  -4.748   2.579  0.00  0.00    +0.044 A 
ATOM      5  C   UNL     1       1.428  -4.633   3.887  0.00  0.00    +0.033 A 
ATOM      6  C   UNL     1       0.517  -4.415   4.904  0.00  0.00    +0.042 A 
ATOM      7  C   UNL     1      -0.834  -4.309   4.619  0.00  0.00    +0.023 A 
ATOM      8  C   UNL     1      -1.287  -4.423   3.318  0.00  0.00    +0.048 A 
ATOM      9  C   UNL     1      -0.387  -4.643   2.290  0.00  0.00    +0.131 A 
ATOM     10  O   UNL     1      -0.803  -4.765   1.008  0.00  0.00    -0.479 OA
ATOM     11 CL   UNL     1       1.069  -4.271   6.544  0.00  0.00    -0.084 Cl
ATOM     12  N   UNL     1       3.187  -5.407   1.678  0.00  0.00    -0.213 NA
ATOM     13  C   UNL     1       4.068  -5.643   0.734  0.00  0.00    +0.237 C 
ATOM     14  N   UNL     1       5.350  -6.068   0.781  0.00  0.00    -0.205 NA
ATOM     15  C   UNL     1       5.841  -6.164  -0.424  0.00  0.00    +0.203 C 
ATOM     16  N   UNL     1       4.892  -5.802  -1.331  0.00  0.00    -0.251 N 
ATOM     17  N   UNL     1       3.752  -5.465  -0.599  0.00  0.00    -0.208 N 
ATOM     18  C   UNL     1       2.406  -4.999  -0.953  0.00  0.00    +0.159 C 
ATOM     19  H   UNL     1       4.989  -5.782  -2.296  0.00  0.00    +0.171 HD
ENDROOT
BRANCH   1  24
ATOM     20  C   UNL     1      -0.018   1.503   0.010  0.00  0.00    +0.044 C 
ATOM     21  C   UNL     1       0.002  -0.004   0.002  0.00  0.00    -0.050 A 
ATOM     22  C   UNL     1       0.006  -0.689  -1.199  0.00  0.00    +0.004 A 
ATOM     23  C   UNL     1       0.025  -2.071  -1.206  0.00  0.00    +0.008 A 
ATOM     24  C   UNL     1       0.040  -2.768  -0.013  0.00  0.00    -0.003 A 
ATOM     25  C   UNL     1       0.037  -2.084   1.188  0.00  0.00    +0.008 A 
ATOM     26  C   UNL     1       0.023  -0.702   1.195  0.00  0.00    +0.004 A 
ENDBRANCH   1  24
BRANCH  18  27
ATOM     27  C   UNL     1       2.542  -3.714  -1.728  0.00  0.00    -0.021 A 
ATOM     28  C   UNL     1       3.392  -2.721  -1.276  0.00  0.00    +0.007 A 
ATOM     29  C   UNL     1       3.517  -1.542  -1.987  0.00  0.00    +0.015 A 
ATOM     30  C   UNL     1       2.793  -1.356  -3.150  0.00  0.00    +0.018 A 
ATOM     31  C   UNL     1       1.943  -2.349  -3.602  0.00  0.00    +0.015 A 
ATOM     32  C   UNL     1       1.822  -3.530  -2.893  0.00  0.00    +0.007 A 
ATOM     33 BR   UNL     1       2.963   0.257  -4.123  0.00  0.00    -0.050 Br
ENDBRANCH  18  27
TORSDOF 2
