REMARK  Name = ZINC36214115
REMARK  12 active torsions:
REMARK  status: ('A' for Active; 'I' for Inactive)
REMARK    1  A    between atoms: C_1  and  C_2
REMARK    2  A    between atoms: C_11  and  N_29
REMARK    3  A    between atoms: C_13  and  S_15
REMARK    4  A    between atoms: S_15  and  C_16
REMARK    5  A    between atoms: C_16  and  C_18
REMARK    6  A    between atoms: C_16  and  C_19
REMARK    7  A    between atoms: N_21  and  C_22
REMARK    8  A    between atoms: C_22  and  C_23
REMARK    9  A    between atoms: C_22  and  C_24
REMARK   10  A    between atoms: C_22  and  C_26
REMARK   11  A    between atoms: C_26  and  C_27
REMARK   12  A    between atoms: C_26  and  C_28
REMARK                            x       y       z     vdW  Elec       q    Type
REMARK                         _______ _______ _______ _____ _____    ______ ____
ROOT
ATOM      1  C   UNL     1       0.559   1.283  -0.694  0.00  0.00    +0.008 C 
ATOM      2  C   UNL     1       0.440  -0.235  -0.549  0.00  0.00    -0.009 C 
ATOM      3  C   UNL     1      -1.037  -0.626  -0.433  0.00  0.00    +0.008 C 
ATOM      4  C   UNL     1      -1.180  -2.144  -0.537  0.00  0.00    +0.037 C 
ATOM      5  C   UNL     1      -0.249  -2.800   0.478  0.00  0.00    -0.025 A 
ATOM      6  C   UNL     1       0.784  -2.109   1.010  0.00  0.00    -0.004 A 
ATOM      7  S   UNL     1       1.583  -3.241   2.119  0.00  0.00    -0.073 S 
ATOM      8  C   UNL     1       0.535  -4.638   1.872  0.00  0.00    +0.115 A 
ATOM      9  C   UNL     1      -0.412  -4.175   0.924  0.00  0.00    +0.051 A 
ATOM     10  C   UNL     1      -1.418  -5.097   0.513  0.00  0.00    +0.129 A 
ATOM     11  N   UNL     1      -1.361  -6.306   1.065  0.00  0.00    -0.207 NA
ATOM     12  C   UNL     1      -0.444  -6.673   1.948  0.00  0.00    +0.192 A 
ATOM     13  N   UNL     1       0.523  -5.857   2.374  0.00  0.00    -0.214 NA
ATOM     14  C   UNL     1       1.173  -0.691   0.721  0.00  0.00    +0.046 C 
ENDROOT
BRANCH  10  15
ATOM     15  N   UNL     1      -2.394  -4.756  -0.406  0.00  0.00    -0.343 N 
ATOM     16  H   UNL     1      -2.277  -3.975  -0.970  0.00  0.00    +0.144 HD
ATOM     17  H   UNL     1      -3.195  -5.297  -0.486  0.00  0.00    +0.144 HD
ENDBRANCH  10  15
BRANCH  12  18
ATOM     18  S   UNL     1      -0.503  -8.313   2.590  0.00  0.00    -0.073 S 
BRANCH  18  19
ATOM     19  C   UNL     1      -1.936  -9.056   1.763  0.00  0.00    +0.137 C 
ATOM     20  C   UNL     1      -3.211  -8.334   2.205  0.00  0.00    +0.029 C 
BRANCH  19  21
ATOM     21  C   UNL     1      -2.030 -10.514   2.134  0.00  0.00    +0.227 C 
ATOM     22  O   UNL     1      -1.546 -10.907   3.174  0.00  0.00    -0.275 OA
ATOM     23  N   UNL     1      -2.652 -11.380   1.310  0.00  0.00    -0.296 N 
ATOM     24  H   UNL     1      -3.039 -11.065   0.478  0.00  0.00    +0.150 HD
BRANCH  23  25
ATOM     25  C   UNL     1      -2.743 -12.797   1.671  0.00  0.00    +0.121 C 
ATOM     26  C   UNL     1      -1.335 -13.376   1.822  0.00  0.00    +0.048 C 
BRANCH  25  27
ATOM     27  C   UNL     1      -3.491 -13.556   0.573  0.00  0.00    +0.020 C 
ATOM     28  C   UNL     1      -2.674 -13.519  -0.720  0.00  0.00    +0.010 C 
ATOM     29  C   UNL     1      -3.696 -15.009   1.006  0.00  0.00    +0.010 C 
ENDBRANCH  25  27
BRANCH  25  30
ATOM     30  C   UNL     1      -3.469 -12.934   2.944  0.00  0.00    +0.088 C 
ATOM     31  N   UNL     1      -4.029 -13.039   3.926  0.00  0.00    -0.194 NA
ENDBRANCH  25  30
ENDBRANCH  23  25
ENDBRANCH  19  21
ENDBRANCH  18  19
ENDBRANCH  12  18
TORSDOF 7
