REMARK  Name = ZINC15799608
REMARK  6 active torsions:
REMARK  status: ('A' for Active; 'I' for Inactive)
REMARK    1  A    between atoms: C_1  and  C_2
REMARK    2  A    between atoms: C_6  and  N_8
REMARK    3  A    between atoms: N_8  and  S_9
REMARK    4  A    between atoms: S_9  and  C_12
REMARK    5  A    between atoms: C_15  and  N_18
REMARK    6  A    between atoms: C_19  and  C_21
REMARK                            x       y       z     vdW  Elec       q    Type
REMARK                         _______ _______ _______ _____ _____    ______ ____
ROOT
ATOM      1  C   UNL     1       0.085  -4.853   4.056  0.00  0.00    +0.111 A 
ATOM      2  C   UNL     1      -0.934  -5.643   4.555  0.00  0.00    +0.031 A 
ATOM      3  C   UNL     1      -0.924  -6.028   5.881  0.00  0.00    +0.025 A 
ATOM      4  C   UNL     1       0.110  -5.620   6.714  0.00  0.00    +0.034 A 
ATOM      5  C   UNL     1       1.131  -4.826   6.209  0.00  0.00    +0.025 A 
ATOM      6  C   UNL     1       1.119  -4.449   4.880  0.00  0.00    +0.031 A 
ENDROOT
BRANCH   4   7
ATOM      7  N   UNL     1       0.122  -6.008   8.058  0.00  0.00    -0.285 N 
ATOM      8  C   UNL     1      -1.037  -6.121   8.737  0.00  0.00    +0.223 C 
ATOM      9  O   UNL     1      -2.094  -5.969   8.162  0.00  0.00    -0.275 OA
ATOM     10  H   UNL     1       0.964  -6.195   8.501  0.00  0.00    +0.155 HD
BRANCH   8  11
ATOM     11  C   UNL     1      -1.019  -6.436  10.211  0.00  0.00    +0.048 C 
ATOM     12  C   UNL     1      -0.233  -7.710  10.349  0.00  0.00    +0.016 C 
ATOM     13  C   UNL     1      -0.579  -8.549  11.538  0.00  0.00    +0.004 C 
ATOM     14  C   UNL     1      -0.942  -7.774  12.766  0.00  0.00    -0.010 C 
ATOM     15  C   UNL     1      -2.413  -7.476  12.920  0.00  0.00    +0.007 C 
ATOM     16  C   UNL     1      -2.771  -6.246  12.079  0.00  0.00    -0.009 C 
ATOM     17  C   UNL     1      -2.453  -6.489  10.639  0.00  0.00    +0.019 C 
ATOM     18  C   UNL     1      -1.998  -5.047  12.629  0.00  0.00    +0.007 C 
ATOM     19  C   UNL     1      -0.510  -5.295  12.373  0.00  0.00    -0.009 C 
ATOM     20  C   UNL     1      -0.051  -6.580  13.038  0.00  0.00    +0.007 C 
ATOM     21  C   UNL     1      -0.246  -5.294  10.868  0.00  0.00    +0.019 C 
ENDBRANCH   8  11
ENDBRANCH   4   7
BRANCH   1  22
ATOM     22  S   UNL     1       0.069  -4.364   2.363  0.00  0.00    +0.094 S 
ATOM     23  O   UNL     1       0.851  -3.180   2.274  0.00  0.00    -0.148 OA
ATOM     24  O   UNL     1      -1.286  -4.416   1.937  0.00  0.00    -0.148 OA
BRANCH  22  25
ATOM     25  N   UNL     1       0.879  -5.530   1.509  0.00  0.00    -0.058 NA
BRANCH  25  31
ATOM     26  C   UNL     1       2.574  -7.339  -2.591  0.00  0.00    +0.066 C 
ATOM     27  C   UNL     1       1.833  -6.263  -1.840  0.00  0.00    +0.043 A 
ATOM     28  C   UNL     1       1.307  -5.172  -2.513  0.00  0.00    +0.043 A 
ATOM     29  C   UNL     1       0.632  -4.205  -1.784  0.00  0.00    +0.116 A 
ATOM     30  N   UNL     1       0.510  -4.352  -0.475  0.00  0.00    -0.220 NA
ATOM     31  C   UNL     1       1.024  -5.408   0.138  0.00  0.00    +0.258 A 
ATOM     32  N   UNL     1       1.671  -6.352  -0.530  0.00  0.00    -0.217 NA
ENDBRANCH  25  31
ENDBRANCH  22  25
ENDBRANCH   1  22
TORSDOF 5
