REMARK  Name = ZINC39482525
REMARK  8 active torsions:
REMARK  status: ('A' for Active; 'I' for Inactive)
REMARK    1  A    between atoms: C_1  and  C_2
REMARK    2  A    between atoms: C_2  and  O_3
REMARK    3  A    between atoms: O_3  and  S_4
REMARK    4  A    between atoms: S_4  and  N_7
REMARK    5  A    between atoms: N_7  and  C_8
REMARK    6  A    between atoms: C_11  and  C_22
REMARK    7  A    between atoms: C_13  and  N_14
REMARK    8  A    between atoms: C_27  and  O_28
REMARK                            x       y       z     vdW  Elec       q    Type
REMARK                         _______ _______ _______ _____ _____    ______ ____
ROOT
ATOM      1  C   UNL     1      -0.983  -3.888  -1.898  0.00  0.00    +0.097 A 
ATOM      2  C   UNL     1       0.050  -4.794  -1.708  0.00  0.00    +0.029 A 
ATOM      3  C   UNL     1      -0.172  -6.145  -1.883  0.00  0.00    +0.010 A 
ATOM      4  C   UNL     1      -1.435  -6.603  -2.253  0.00  0.00    -0.013 A 
ATOM      5  C   UNL     1      -2.475  -5.695  -2.445  0.00  0.00    +0.033 A 
ATOM      6  C   UNL     1      -2.252  -4.341  -2.263  0.00  0.00    +0.055 A 
ENDROOT
BRANCH   6   7
ATOM      7  N   UNL     1      -3.296  -3.427  -2.449  0.00  0.00    -0.325 N 
ATOM      8  C   UNL     1      -3.551  -2.831  -3.769  0.00  0.00    +0.120 C 
ATOM      9  C   UNL     1      -3.630  -1.309  -3.609  0.00  0.00    +0.101 C 
ATOM     10  N   UNL     1      -4.622  -0.980  -2.577  0.00  0.00    -0.302 NA
ATOM     11  C   UNL     1      -4.221  -1.507  -1.266  0.00  0.00    +0.135 C 
ATOM     12  C   UNL     1      -4.170  -3.042  -1.331  0.00  0.00    +0.134 C 
ATOM     13  I   UNL     1      -5.662  -0.898   0.227  0.00  0.00    -0.063 I 
ATOM     14  H   UNL     1      -4.781   0.016  -2.533  0.00  0.00    +0.123 HD
ENDBRANCH   6   7
BRANCH   4  15
ATOM     15  C   UNL     1      -1.673  -8.055  -2.442  0.00  0.00    +0.024 A 
ATOM     16  C   UNL     1      -2.759  -8.672  -1.826  0.00  0.00    +0.012 A 
ATOM     17  C   UNL     1      -2.975 -10.023  -2.005  0.00  0.00    +0.001 A 
ATOM     18  C   UNL     1      -2.117 -10.768  -2.794  0.00  0.00    +0.004 A 
ATOM     19  C   UNL     1      -1.036 -10.166  -3.409  0.00  0.00    +0.046 A 
ATOM     20  C   UNL     1      -0.810  -8.809  -3.243  0.00  0.00    +0.125 A 
BRANCH  20  21
ATOM     21  O   UNL     1       0.248  -8.214  -3.853  0.00  0.00    -0.506 OA
ATOM     22  H   UNL     1       1.058  -8.216  -3.325  0.00  0.00    +0.292 HD
ENDBRANCH  20  21
ENDBRANCH   4  15
BRANCH   1  23
ATOM     23  N   UNL     1      -0.754  -2.519  -1.719  0.00  0.00    -0.075 NA
BRANCH  23  24
ATOM     24  S   UNL     1       0.751  -1.981  -1.287  0.00  0.00    +0.186 S 
ATOM     25  O   UNL     1       1.613  -2.262  -2.381  0.00  0.00    -0.125 OA
ATOM     26  O   UNL     1       0.997  -2.473   0.023  0.00  0.00    -0.125 OA
BRANCH  24  27
ATOM     27  O   UNL     1       0.671  -0.465  -1.174  0.00  0.00    -0.221 OA
BRANCH  27  29
ATOM     28  C   UNL     1      -0.019   1.526   0.010  0.00  0.00    +0.036 C 
ATOM     29  C   UNL     1       0.002  -0.004   0.002  0.00  0.00    +0.192 C 
ENDBRANCH  27  29
ENDBRANCH  24  27
ENDBRANCH  23  24
ENDBRANCH   1  23
TORSDOF 7
