REMARK  Name = ZINC13152454
REMARK  4 active torsions:
REMARK  status: ('A' for Active; 'I' for Inactive)
REMARK    1  A    between atoms: C_4  and  C_7
REMARK    2  A    between atoms: C_7  and  C_8
REMARK    3  A    between atoms: N_12  and  C_22
REMARK    4  A    between atoms: N_14  and  C_15
REMARK                            x       y       z     vdW  Elec       q    Type
REMARK                         _______ _______ _______ _____ _____    ______ ____
ROOT
ATOM      1  C   UNL     1       3.723  -1.790   0.682  0.00  0.00    +0.145 C 
ATOM      2  C   UNL     1       4.973  -2.646   0.562  0.00  0.00    +0.239 C 
ATOM      3  O   UNL     1       5.677  -2.624  -0.425  0.00  0.00    -0.274 OA
ATOM      4  N   UNL     1       5.245  -3.417   1.601  0.00  0.00    -0.218 N 
ATOM      5  C   UNL     1       4.448  -3.447   2.729  0.00  0.00    +0.168 C 
ATOM      6  N   UNL     1       4.610  -4.163   3.817  0.00  0.00    -0.225 NA
ATOM      7  S   UNL     1       3.144  -2.282   2.358  0.00  0.00    -0.077 S 
ENDROOT
BRANCH   6   8
ATOM      8  C   UNL     1       5.776  -4.853   4.015  0.00  0.00    +0.067 A 
ATOM      9  C   UNL     1       6.958  -4.167   4.302  0.00  0.00    +0.028 A 
ATOM     10  C   UNL     1       8.129  -4.869   4.501  0.00  0.00    +0.002 A 
ATOM     11  C   UNL     1       8.134  -6.250   4.416  0.00  0.00    +0.000 A 
ATOM     12  C   UNL     1       6.967  -6.936   4.131  0.00  0.00    +0.002 A 
ATOM     13  C   UNL     1       5.788  -6.247   3.936  0.00  0.00    +0.028 A 
ENDBRANCH   6   8
BRANCH   4  14
ATOM     14  C   UNL     1       6.383  -4.233   1.558  0.00  0.00    +0.043 A 
ATOM     15  C   UNL     1       6.254  -5.596   1.328  0.00  0.00    +0.024 A 
ATOM     16  C   UNL     1       7.378  -6.397   1.285  0.00  0.00    +0.002 A 
ATOM     17  C   UNL     1       8.632  -5.843   1.471  0.00  0.00    +0.000 A 
ATOM     18  C   UNL     1       8.764  -4.486   1.699  0.00  0.00    +0.002 A 
ATOM     19  C   UNL     1       7.644  -3.678   1.738  0.00  0.00    +0.024 A 
ENDBRANCH   4  14
BRANCH   1  20
ATOM     20  C   UNL     1       2.694  -2.158  -0.390  0.00  0.00    +0.059 C 
BRANCH  20  24
ATOM     21  C   UNL     1      -0.731   0.366  -0.004  0.00  0.00    +0.000 A 
ATOM     22  C   UNL     1       0.322   0.748  -0.815  0.00  0.00    +0.000 A 
ATOM     23  C   UNL     1       1.430  -0.068  -0.940  0.00  0.00    +0.004 A 
ATOM     24  C   UNL     1       1.486  -1.267  -0.253  0.00  0.00    -0.046 A 
ATOM     25  C   UNL     1       0.434  -1.649   0.558  0.00  0.00    +0.004 A 
ATOM     26  C   UNL     1      -0.675  -0.833   0.681  0.00  0.00    +0.000 A 
ENDBRANCH  20  24
ENDBRANCH   1  20
TORSDOF 4
