REMARK  Name = ZINC39673436
REMARK  6 active torsions:
REMARK  status: ('A' for Active; 'I' for Inactive)
REMARK    1  A    between atoms: C_3  and  O_33
REMARK    2  A    between atoms: C_6  and  C_7
REMARK    3  A    between atoms: C_7  and  N_8
REMARK    4  A    between atoms: C_9  and  C_11
REMARK    5  A    between atoms: C_22  and  C_24
REMARK    6  A    between atoms: O_33  and  C_34
REMARK                            x       y       z     vdW  Elec       q    Type
REMARK                         _______ _______ _______ _____ _____    ______ ____
ROOT
ATOM      1  C   UNL     1      -3.314  -1.941  -3.024  0.00  0.00    +0.100 C 
ATOM      2  C   UNL     1      -3.720  -0.613  -3.701  0.00  0.00    +0.121 C 
ATOM      3  N   UNL     1      -4.885  -0.965  -4.547  0.00  0.00    -0.296 N 
ATOM      4  C   UNL     1      -5.660  -1.926  -3.726  0.00  0.00    +0.115 C 
ATOM      5  C   UNL     1      -4.590  -2.799  -3.041  0.00  0.00    -0.004 C 
ATOM      6  C   UNL     1      -5.018  -3.138  -1.617  0.00  0.00    -0.010 C 
ATOM      7  C   UNL     1      -6.255  -4.040  -1.661  0.00  0.00    -0.082 C 
ATOM      8  N   UNL     1      -5.941  -5.267  -2.404  0.00  0.00    +0.379 N 
ATOM      9  C   UNL     1      -5.620  -4.940  -3.798  0.00  0.00    -0.082 C 
ATOM     10  C   UNL     1      -4.357  -4.075  -3.844  0.00  0.00    -0.010 C 
ATOM     11  C   UNL     1      -5.175  -0.514  -5.784  0.00  0.00    +0.252 C 
ATOM     12  O   UNL     1      -6.178  -0.900  -6.352  0.00  0.00    -0.270 OA
ATOM     13  H   UNL     1      -5.150  -5.724  -1.976  0.00  0.00    -0.086 HD
ATOM     14  H   UNL     1      -6.737  -5.886  -2.379  0.00  0.00    -0.086 HD
ENDROOT
BRANCH  11  15
ATOM     15  C   UNL     1      -4.275   0.449  -6.447  0.00  0.00    +0.108 A 
ATOM     16  C   UNL     1      -3.224  -0.009  -7.249  0.00  0.00    +0.138 A 
ATOM     17  C   UNL     1      -2.386   0.899  -7.868  0.00  0.00    +0.041 A 
ATOM     18  C   UNL     1      -2.583   2.258  -7.696  0.00  0.00    +0.026 A 
ATOM     19  C   UNL     1      -3.620   2.719  -6.904  0.00  0.00    +0.077 A 
ATOM     20  C   UNL     1      -4.472   1.824  -6.283  0.00  0.00    +0.156 A 
ATOM     21  F   UNL     1      -5.487   2.276  -5.515  0.00  0.00    -0.203 F 
ATOM     22 CL   UNL     1      -3.856   4.426  -6.696  0.00  0.00    -0.081 Cl
ATOM     23  F   UNL     1      -3.029  -1.335  -7.418  0.00  0.00    -0.205 F 
ENDBRANCH  11  15
BRANCH   1  25
ATOM     24  N   UNL     1      -1.970  -2.514  -1.028  0.00  0.00    -0.311 N 
ATOM     25  C   UNL     1      -2.868  -1.692  -1.606  0.00  0.00    +0.218 C 
ATOM     26  O   UNL     1      -3.318  -0.752  -0.986  0.00  0.00    -0.275 OA
ATOM     27  H   UNL     1      -1.611  -3.266  -1.524  0.00  0.00    +0.149 HD
BRANCH  24  28
ATOM     28  C   UNL     1      -1.537  -2.272   0.350  0.00  0.00    +0.139 C 
BRANCH  28  34
ATOM     29  C   UNL     1       0.812  -3.115   0.538  0.00  0.00    +0.009 A 
ATOM     30  C   UNL     1       1.730  -4.079   0.909  0.00  0.00    +0.046 A 
ATOM     31  C   UNL     1       1.296  -5.258   1.499  0.00  0.00    +0.127 A 
ATOM     32  C   UNL     1      -0.058  -5.465   1.715  0.00  0.00    +0.046 A 
ATOM     33  C   UNL     1      -0.972  -4.498   1.343  0.00  0.00    +0.009 A 
ATOM     34  C   UNL     1      -0.538  -3.325   0.755  0.00  0.00    -0.030 A 
BRANCH  31  35
ATOM     35  O   UNL     1       2.197  -6.207   1.864  0.00  0.00    -0.434 OA
BRANCH  35  36
ATOM     36  C   UNL     1       1.680  -7.396   2.466  0.00  0.00    +0.541 C 
ATOM     37  F   UNL     1       0.989  -7.063   3.636  0.00  0.00    -0.166 F 
ATOM     38  F   UNL     1       0.807  -8.028   1.573  0.00  0.00    -0.166 F 
ENDBRANCH  35  36
ENDBRANCH  31  35
ENDBRANCH  28  34
ENDBRANCH  24  28
ENDBRANCH   1  25
TORSDOF 6
