REMARK  Name = ZINC58918693
REMARK  9 active torsions:
REMARK  status: ('A' for Active; 'I' for Inactive)
REMARK    1  A    between atoms: C_1  and  C_2
REMARK    2  A    between atoms: C_2  and  C_3
REMARK    3  A    between atoms: C_3  and  C_5
REMARK    4  A    between atoms: C_3  and  C_6
REMARK    5  A    between atoms: C_11  and  N_12
REMARK    6  A    between atoms: C_13  and  C_15
REMARK    7  A    between atoms: C_15  and  C_17
REMARK    8  A    between atoms: C_15  and  N_18
REMARK    9  A    between atoms: C_22  and  C_25
REMARK                            x       y       z     vdW  Elec       q    Type
REMARK                         _______ _______ _______ _____ _____    ______ ____
ROOT
ATOM      1  N   UNL     1      -2.691  -2.241  -6.330  0.00  0.00    +0.388 N 
ATOM      2  C   UNL     1      -3.124  -1.408  -7.459  0.00  0.00    -0.078 C 
ATOM      3  C   UNL     1      -3.786  -2.287  -8.522  0.00  0.00    -0.018 C 
ATOM      4  C   UNL     1      -5.000  -2.992  -7.910  0.00  0.00    +0.007 C 
ATOM      5  C   UNL     1      -4.548  -3.799  -6.690  0.00  0.00    +0.040 C 
ATOM      6  C   UNL     1      -3.858  -2.864  -5.694  0.00  0.00    -0.067 C 
ATOM      7  H   UNL     1      -2.068  -2.960  -6.666  0.00  0.00    -0.081 HD
ENDROOT
BRANCH   5   8
ATOM      8  C   UNL     1      -5.747  -4.436  -6.035  0.00  0.00    +0.135 A 
ATOM      9  N   UNL     1      -6.784  -3.813  -5.542  0.00  0.00    -0.134 NA
ATOM     10  N   UNL     1      -7.620  -4.670  -5.069  0.00  0.00    -0.134 NA
ATOM     11  C   UNL     1      -7.156  -5.874  -5.243  0.00  0.00    +0.133 A 
ATOM     12  N   UNL     1      -5.954  -5.759  -5.854  0.00  0.00    -0.315 N 
ATOM     13  C   UNL     1      -5.056  -6.854  -6.224  0.00  0.00    +0.125 C 
ATOM     14  C   UNL     1      -5.878  -8.118  -6.487  0.00  0.00    +0.022 C 
ATOM     15  C   UNL     1      -6.050  -8.902  -5.186  0.00  0.00    +0.002 C 
ATOM     16  C   UNL     1      -6.801  -8.066  -4.154  0.00  0.00    +0.008 C 
ATOM     17  C   UNL     1      -7.819  -7.171  -4.857  0.00  0.00    +0.076 C 
ENDBRANCH   5   8
BRANCH   1  18
ATOM     18  C   UNL     1      -1.987  -1.405  -5.348  0.00  0.00    +0.016 C 
ATOM     19  C   UNL     1      -0.804  -0.710  -6.025  0.00  0.00    -0.004 C 
BRANCH  18  21
ATOM     20  N   UNL     1      -1.331  -1.748  -2.988  0.00  0.00    -0.287 N 
ATOM     21  C   UNL     1      -1.485  -2.270  -4.221  0.00  0.00    +0.203 C 
ATOM     22  O   UNL     1      -1.218  -3.436  -4.424  0.00  0.00    -0.277 OA
ATOM     23  H   UNL     1      -1.606  -0.835  -2.811  0.00  0.00    +0.155 HD
BRANCH  20  29
ATOM     24  C   UNL     1       0.023  -1.930  -0.997  0.00  0.00    -0.023 A 
ATOM     25  C   UNL     1       0.564  -2.697   0.016  0.00  0.00    +0.006 A 
ATOM     26  C   UNL     1       0.316  -4.056   0.064  0.00  0.00    +0.000 A 
ATOM     27  C   UNL     1      -0.475  -4.652  -0.901  0.00  0.00    +0.002 A 
ATOM     28  C   UNL     1      -1.020  -3.890  -1.916  0.00  0.00    +0.023 A 
ATOM     29  C   UNL     1      -0.776  -2.524  -1.964  0.00  0.00    +0.037 A 
BRANCH  24  30
ATOM     30  C   UNL     1       0.294  -0.448  -1.048  0.00  0.00    +0.017 C 
ATOM     31  C   UNL     1       1.804  -0.205  -1.042  0.00  0.00    +0.012 C 
BRANCH  30  33
ATOM     32  C   UNL     1      -0.169   1.744   0.058  0.00  0.00    +0.004 C 
ATOM     33  C   UNL     1      -0.336   0.228   0.172  0.00  0.00    +0.004 C 
ENDBRANCH  30  33
ENDBRANCH  24  30
ENDBRANCH  20  29
ENDBRANCH  18  21
ENDBRANCH   1  18
TORSDOF 6
