REMARK  Name = ZINC19825291
REMARK  6 active torsions:
REMARK  status: ('A' for Active; 'I' for Inactive)
REMARK    1  A    between atoms: C_1  and  C_2
REMARK    2  A    between atoms: C_3  and  C_22
REMARK    3  A    between atoms: C_4  and  N_21
REMARK    4  A    between atoms: C_9  and  C_10
REMARK    5  A    between atoms: C_16  and  C_20
REMARK    6  A    between atoms: C_17  and  C_18
REMARK                            x       y       z     vdW  Elec       q    Type
REMARK                         _______ _______ _______ _____ _____    ______ ____
ROOT
ATOM      1  C   UNL     1       4.642  -0.755   0.464  0.00  0.00    +0.046 C 
ATOM      2  C   UNL     1       3.861   0.511   0.704  0.00  0.00    -0.020 A 
ATOM      3  C   UNL     1       4.486   1.656   1.209  0.00  0.00    +0.095 A 
ATOM      4  C   UNL     1       3.720   2.820   1.419  0.00  0.00    +0.135 A 
ATOM      5  N   UNL     1       2.429   2.843   1.147  0.00  0.00    -0.230 NA
ATOM      6  C   UNL     1       1.796   1.775   0.665  0.00  0.00    +0.092 A 
ATOM      7  C   UNL     1       2.500   0.573   0.429  0.00  0.00    +0.013 A 
ATOM      8  C   UNL     1       1.528  -0.403  -0.098  0.00  0.00    -0.010 C 
ATOM      9  C   UNL     1       1.802  -1.718  -0.463  0.00  0.00    +0.024 C 
ATOM     10  C   UNL     1       0.274   0.231  -0.165  0.00  0.00    -0.023 C 
ATOM     11  C   UNL     1       0.396   1.535   0.283  0.00  0.00    +0.081 C 
ATOM     12  C   UNL     1      -1.001  -0.409  -0.650  0.00  0.00    +0.046 C 
ENDROOT
BRANCH   9  13
ATOM     13  C   UNL     1       3.034  -2.040  -1.052  0.00  0.00    +0.014 A 
ATOM     14  C   UNL     1       3.760  -1.335  -2.016  0.00  0.00    +0.017 A 
ATOM     15  C   UNL     1       4.948  -1.880  -2.417  0.00  0.00    +0.028 A 
ATOM     16  C   UNL     1       5.354  -3.066  -1.877  0.00  0.00    +0.079 A 
ATOM     17  S   UNL     1       4.078  -3.459  -0.772  0.00  0.00    -0.077 S 
ATOM     18 CL   UNL     1       6.801  -3.964  -2.214  0.00  0.00    -0.076 Cl
ENDBRANCH   9  13
BRANCH   4  19
ATOM     19  N   UNL     1       4.332   3.957   1.920  0.00  0.00    -0.342 N 
ATOM     20  H   UNL     1       3.742   4.871   2.087  0.00  0.00    +0.144 HD
ATOM     21  H   UNL     1       5.407   3.948   2.150  0.00  0.00    +0.144 HD
ENDBRANCH   4  19
BRANCH  11  22
ATOM     22  C   UNL     1      -0.664   2.495   0.357  0.00  0.00    +0.102 C 
ATOM     23  N   UNL     1      -1.506   3.256   0.416  0.00  0.00    -0.191 NA
ENDBRANCH  11  22
BRANCH   3  24
ATOM     24  C   UNL     1       5.886   1.645   1.510  0.00  0.00    +0.103 C 
ATOM     25  N   UNL     1       6.997   1.636   1.748  0.00  0.00    -0.191 NA
ENDBRANCH   3  24
TORSDOF 4
