REMARK  Name = ZINC20084058
REMARK  11 active torsions:
REMARK  status: ('A' for Active; 'I' for Inactive)
REMARK    1  A    between atoms: C_1  and  C_2
REMARK    2  A    between atoms: C_2  and  O_3
REMARK    3  A    between atoms: O_3  and  C_4
REMARK    4  A    between atoms: C_11  and  C_16
REMARK    5  A    between atoms: C_16  and  C_18
REMARK    6  A    between atoms: C_16  and  N_28
REMARK    7  A    between atoms: N_22  and  C_23
REMARK    8  A    between atoms: N_28  and  C_29
REMARK    9  A    between atoms: N_28  and  C_36
REMARK   10  A    between atoms: C_29  and  C_30
REMARK   11  A    between atoms: C_36  and  C_37
REMARK                            x       y       z     vdW  Elec       q    Type
REMARK                         _______ _______ _______ _____ _____    ______ ____
ROOT
ATOM      1  C   UNL     1       0.476  -0.453  -1.460  0.00  0.00    +0.163 C 
ENDROOT
BRANCH   1   9
ATOM      2  C   UNL     1       1.758  -6.426  -2.510  0.00  0.00    +0.121 A 
ATOM      3  C   UNL     1       0.455  -6.890  -2.345  0.00  0.00    +0.047 A 
ATOM      4  C   UNL     1      -0.568  -6.018  -2.045  0.00  0.00    +0.030 A 
ATOM      5  C   UNL     1      -0.304  -4.660  -1.903  0.00  0.00    +0.049 A 
ATOM      6  C   UNL     1       1.011  -4.187  -2.069  0.00  0.00    +0.002 A 
ATOM      7  C   UNL     1       2.042  -5.082  -2.374  0.00  0.00    +0.055 A 
ATOM      8  C   UNL     1       1.274  -2.754  -1.923  0.00  0.00    +0.021 A 
ATOM      9  C   UNL     1       0.238  -1.932  -1.622  0.00  0.00    +0.042 A 
ATOM     10  C   UNL     1      -1.063  -2.457  -1.466  0.00  0.00    +0.254 A 
ATOM     11  O   UNL     1      -1.980  -1.700  -1.200  0.00  0.00    -0.268 OA
ATOM     12  N   UNL     1      -1.315  -3.770  -1.602  0.00  0.00    -0.322 N 
ATOM     13  H   UNL     1      -2.345  -4.132  -1.471  0.00  0.00    +0.169 HD
BRANCH   2  14
ATOM     14  O   UNL     1       2.755  -7.302  -2.807  0.00  0.00    -0.492 OA
BRANCH  14  16
ATOM     15  C   UNL     1       3.638  -9.504  -3.266  0.00  0.00    +0.048 C 
ATOM     16  C   UNL     1       2.393  -8.678  -2.933  0.00  0.00    +0.225 C 
ENDBRANCH  14  16
ENDBRANCH   2  14
ENDBRANCH   1   9
BRANCH   1  17
ATOM     17  C   UNL     1      -0.224   0.292  -2.568  0.00  0.00    +0.173 A 
ATOM     18  N   UNL     1      -1.511   0.515  -2.670  0.00  0.00    -0.111 NA
ATOM     19  N   UNL     1      -1.715   1.183  -3.752  0.00  0.00    -0.023 NA
ATOM     20  N   UNL     1      -0.591   1.393  -4.343  0.00  0.00    -0.044 NA
ATOM     21  N   UNL     1       0.353   0.863  -3.642  0.00  0.00    -0.224 N 
BRANCH  21  22
ATOM     22  C   UNL     1       1.784   0.878  -3.956  0.00  0.00    +0.111 C 
ATOM     23  C   UNL     1       2.282   2.332  -4.085  0.00  0.00    +0.027 C 
ATOM     24  C   UNL     1       3.314   2.278  -5.240  0.00  0.00    +0.002 C 
ATOM     25  C   UNL     1       2.671   1.274  -6.228  0.00  0.00    +0.002 C 
ATOM     26  C   UNL     1       2.031   0.205  -5.317  0.00  0.00    +0.027 C 
ENDBRANCH  21  22
ENDBRANCH   1  17
BRANCH   1  27
ATOM     27  N   UNL     1      -0.053  -0.011  -0.163  0.00  0.00    -0.277 NA
BRANCH  27  28
ATOM     28  C   UNL     1       0.067   1.446  -0.014  0.00  0.00    +0.121 C 
BRANCH  28  29
ATOM     29  C   UNL     1      -0.825   1.911   1.108  0.00  0.00    -0.033 A 
ATOM     30  C   UNL     1      -2.162   2.168   0.867  0.00  0.00    +0.005 A 
ATOM     31  C   UNL     1      -2.981   2.590   1.897  0.00  0.00    +0.000 A 
ATOM     32  C   UNL     1      -2.461   2.765   3.166  0.00  0.00    +0.000 A 
ATOM     33  C   UNL     1      -1.123   2.513   3.406  0.00  0.00    +0.000 A 
ATOM     34  C   UNL     1      -0.305   2.086   2.377  0.00  0.00    +0.005 A 
ENDBRANCH  28  29
ENDBRANCH  27  28
BRANCH  27  35
ATOM     35  C   UNL     1       0.615  -0.710   0.943  0.00  0.00    +0.160 C 
BRANCH  35  36
ATOM     36  C   UNL     1       2.099  -0.457   0.874  0.00  0.00    +0.119 A 
ATOM     37  C   UNL     1       2.768   0.494   1.551  0.00  0.00    +0.046 A 
ATOM     38  C   UNL     1       4.129   0.374   1.189  0.00  0.00    +0.041 A 
ATOM     39  C   UNL     1       4.211  -0.643   0.312  0.00  0.00    +0.195 A 
ATOM     40  O   UNL     1       2.980  -1.146   0.129  0.00  0.00    -0.467 OA
ENDBRANCH  35  36
ENDBRANCH  27  35
ENDBRANCH   1  27
TORSDOF 10
