REMARK  Name = ZINC33803645
REMARK  7 active torsions:
REMARK  status: ('A' for Active; 'I' for Inactive)
REMARK    1  A    between atoms: C_3  and  O_26
REMARK    2  A    between atoms: C_6  and  C_7
REMARK    3  A    between atoms: C_16  and  C_24
REMARK    4  A    between atoms: C_17  and  N_23
REMARK    5  A    between atoms: C_18  and  C_19
REMARK    6  A    between atoms: C_18  and  C_21
REMARK    7  A    between atoms: O_26  and  C_27
REMARK                            x       y       z     vdW  Elec       q    Type
REMARK                         _______ _______ _______ _____ _____    ______ ____
ROOT
ATOM      1  C   UNL     1       2.293   2.575   2.301  0.00  0.00    +0.066 C 
ATOM      2  C   UNL     1       2.198   1.550   1.169  0.00  0.00    +0.030 C 
ATOM      3  C   UNL     1       1.425   2.086  -0.013  0.00  0.00    +0.009 C 
ATOM      4  C   UNL     1      -0.022   1.599  -0.016  0.00  0.00    +0.005 C 
ATOM      5  C   UNL     1      -0.016   0.065  -0.055  0.00  0.00    +0.027 C 
ATOM      6  C   UNL     1       0.682  -0.424   1.187  0.00  0.00    -0.022 C 
ATOM      7  C   UNL     1       1.659   0.270   1.736  0.00  0.00    -0.029 C 
ATOM      8  C   UNL     1       2.246  -0.195   3.021  0.00  0.00    +0.074 C 
ATOM      9  C   UNL     1       2.994   0.662   3.759  0.00  0.00    +0.054 C 
ATOM     10  C   UNL     1       3.292   2.071   3.343  0.00  0.00    +0.188 C 
ENDROOT
BRANCH   1  16
ATOM     11  C   UNL     1       0.098   3.758   2.515  0.00  0.00    +0.007 A 
ATOM     12  C   UNL     1      -1.145   3.914   3.097  0.00  0.00    +0.046 A 
ATOM     13  C   UNL     1      -1.544   3.063   4.117  0.00  0.00    +0.130 A 
ATOM     14  C   UNL     1      -0.696   2.053   4.547  0.00  0.00    +0.046 A 
ATOM     15  C   UNL     1       0.544   1.897   3.958  0.00  0.00    +0.007 A 
ATOM     16  C   UNL     1       0.940   2.747   2.941  0.00  0.00    -0.041 A 
BRANCH  13  17
ATOM     17  O   UNL     1      -2.765   3.217   4.694  0.00  0.00    -0.406 OA
BRANCH  17  18
ATOM     18  C   UNL     1      -3.586   4.278   4.202  0.00  0.00    +0.575 C 
ATOM     19  F   UNL     1      -3.837   4.080   2.840  0.00  0.00    -0.133 F 
ATOM     20  F   UNL     1      -4.797   4.294   4.901  0.00  0.00    -0.133 F 
ATOM     21  F   UNL     1      -2.927   5.499   4.381  0.00  0.00    -0.133 F 
ENDBRANCH  17  18
ENDBRANCH  13  17
ENDBRANCH   1  16
BRANCH   9  22
ATOM     22  N   UNL     1       3.503   0.218   4.947  0.00  0.00    -0.358 N 
ATOM     23  H   UNL     1       4.114   0.889   5.569  0.00  0.00    +0.142 HD
ATOM     24  H   UNL     1       3.302  -0.811   5.281  0.00  0.00    +0.142 HD
ENDBRANCH   9  22
BRANCH  10  25
ATOM     25  C   UNL     1       4.649   2.126   2.774  0.00  0.00    +0.091 C 
ATOM     26  N   UNL     1       5.695   2.169   2.334  0.00  0.00    -0.194 NA
ENDBRANCH  10  25
BRANCH  10  27
ATOM     27  C   UNL     1       3.233   2.943   4.527  0.00  0.00    +0.091 C 
ATOM     28  N   UNL     1       3.187   3.617   5.441  0.00  0.00    -0.194 NA
ENDBRANCH  10  27
BRANCH   8  29
ATOM     29  C   UNL     1       2.022  -1.535   3.474  0.00  0.00    +0.101 C 
ATOM     30  N   UNL     1       1.845  -2.598   3.834  0.00  0.00    -0.191 NA
ENDBRANCH   8  29
TORSDOF 7
