REMARK  Name = ZINC67399862
REMARK  7 active torsions:
REMARK  status: ('A' for Active; 'I' for Inactive)
REMARK    1  A    between atoms: C_1  and  C_2
REMARK    2  A    between atoms: C_2  and  N_3
REMARK    3  A    between atoms: N_3  and  C_4
REMARK    4  A    between atoms: N_3  and  C_6
REMARK    5  A    between atoms: C_4  and  C_5
REMARK    6  A    between atoms: N_9  and  C_12
REMARK    7  A    between atoms: C_12  and  C_13
REMARK                            x       y       z     vdW  Elec       q    Type
REMARK                         _______ _______ _______ _____ _____    ______ ____
ROOT
ATOM      1  C   UNL     1      -4.683  -4.838   1.511  0.00  0.00    +0.146 A 
ATOM      2  N   UNL     1      -5.259  -4.591   2.674  0.00  0.00    -0.216 NA
ATOM      3  C   UNL     1      -6.540  -4.844   2.893  0.00  0.00    +0.128 A 
ATOM      4  C   UNL     1      -7.325  -5.400   1.846  0.00  0.00    +0.051 A 
ATOM      5  C   UNL     1      -8.744  -5.761   1.856  0.00  0.00    -0.025 A 
ATOM      6  C   UNL     1      -9.252  -6.276   0.718  0.00  0.00    -0.004 A 
ATOM      7  S   UNL     1      -7.894  -6.311  -0.421  0.00  0.00    -0.073 S 
ATOM      8  C   UNL     1      -6.641  -5.635   0.636  0.00  0.00    +0.114 A 
ATOM      9  N   UNL     1      -5.361  -5.348   0.501  0.00  0.00    -0.223 NA
ATOM     10  C   UNL     1     -10.662  -6.721   0.474  0.00  0.00    +0.043 C 
ATOM     11  C   UNL     1     -11.370  -6.855   1.830  0.00  0.00    +0.005 C 
ATOM     12  C   UNL     1     -11.091  -5.595   2.655  0.00  0.00    +0.005 C 
ATOM     13  C   UNL     1      -9.625  -5.571   3.088  0.00  0.00    +0.037 C 
ATOM     14  N   UNL     1      -7.106  -4.572   4.125  0.00  0.00    -0.343 N 
ATOM     15  H   UNL     1      -6.640  -4.005   4.759  0.00  0.00    +0.144 HD
ATOM     16  H   UNL     1      -7.971  -4.947   4.355  0.00  0.00    +0.144 HD
ENDROOT
BRANCH   1  17
ATOM     17  C   UNL     1      -3.219  -4.526   1.333  0.00  0.00    +0.160 C 
BRANCH  17  21
ATOM     18  C   UNL     1      -2.137  -1.034  -0.884  0.00  0.00    -0.066 C 
ATOM     19  C   UNL     1      -1.561  -1.244   0.519  0.00  0.00    +0.000 C 
ATOM     20  C   UNL     1      -1.662  -2.726   0.889  0.00  0.00    +0.083 C 
ATOM     21  N   UNL     1      -3.069  -3.147   0.850  0.00  0.00    -0.295 NA
ATOM     22  C   UNL     1      -3.630  -2.998  -0.499  0.00  0.00    +0.083 C 
ATOM     23  C   UNL     1      -3.587  -1.524  -0.911  0.00  0.00    +0.000 C 
BRANCH  18  24
ATOM     24  N   UNL     1      -2.096   0.396  -1.222  0.00  0.00    +0.381 N 
ATOM     25  H   UNL     1      -2.542   0.543  -2.115  0.00  0.00    -0.081 HD
BRANCH  24  27
ATOM     26  C   UNL     1      -2.869   2.635  -0.602  0.00  0.00    -0.017 C 
ATOM     27  C   UNL     1      -2.803   1.163  -0.189  0.00  0.00    -0.082 C 
ENDBRANCH  24  27
BRANCH  24  28
ATOM     28  C   UNL     1      -0.699   0.842  -1.294  0.00  0.00    -0.082 C 
ATOM     29  C   UNL     1       0.005   0.133  -2.453  0.00  0.00    -0.017 C 
ENDBRANCH  24  28
ENDBRANCH  18  24
ENDBRANCH  17  21
ENDBRANCH   1  17
TORSDOF 5
