REMARK  Name = ZINC39446096
REMARK  5 active torsions:
REMARK  status: ('A' for Active; 'I' for Inactive)
REMARK    1  A    between atoms: C_1  and  C_2
REMARK    2  A    between atoms: C_5  and  C_8
REMARK    3  A    between atoms: N_14  and  C_25
REMARK    4  A    between atoms: C_15  and  C_17
REMARK    5  A    between atoms: C_28  and  C_31
REMARK                            x       y       z     vdW  Elec       q    Type
REMARK                         _______ _______ _______ _____ _____    ______ ____
ROOT
ATOM      1  C   UNL     1       0.059  -4.275  -0.021  0.00  0.00    +0.159 C 
ATOM      2  C   UNL     1      -1.310  -4.828   0.287  0.00  0.00    +0.016 C 
ATOM      3  C   UNL     1      -1.150  -5.535   1.427  0.00  0.00    +0.149 C 
ATOM      4  C   UNL     1      -2.457  -6.116   1.801  0.00  0.00    +0.272 C 
ATOM      5  O   UNL     1      -2.654  -6.810   2.780  0.00  0.00    -0.268 OA
ATOM      6  N   UNL     1      -3.397  -5.768   0.904  0.00  0.00    -0.255 N 
ATOM      7  C   UNL     1      -2.752  -4.932  -0.118  0.00  0.00    +0.144 C 
ATOM      8  N   UNL     1       0.157  -5.462   1.823  0.00  0.00    -0.173 NA
ATOM      9  N   UNL     1       0.886  -4.792   1.084  0.00  0.00    -0.297 N 
ATOM     10  H   UNL     1       1.835  -4.633   1.208  0.00  0.00    +0.183 HD
ENDROOT
BRANCH   7  11
ATOM     11  C   UNL     1      -2.866  -5.585  -1.471  0.00  0.00    -0.004 A 
ATOM     12  C   UNL     1      -3.200  -6.923  -1.567  0.00  0.00    +0.008 A 
ATOM     13  C   UNL     1      -3.305  -7.522  -2.808  0.00  0.00    +0.020 A 
ATOM     14  C   UNL     1      -3.076  -6.783  -3.955  0.00  0.00    +0.042 A 
ATOM     15  C   UNL     1      -2.743  -5.444  -3.860  0.00  0.00    +0.040 A 
ATOM     16  C   UNL     1      -2.643  -4.844  -2.617  0.00  0.00    +0.048 A 
ATOM     17 CL   UNL     1      -2.231  -3.162  -2.497  0.00  0.00    -0.083 Cl
ATOM     18 CL   UNL     1      -3.208  -7.536  -5.514  0.00  0.00    -0.083 Cl
ENDBRANCH   7  11
BRANCH   1  23
ATOM     19  C   UNL     1      -0.018   1.503   0.010  0.00  0.00    +0.044 C 
ATOM     20  C   UNL     1       0.002  -0.004   0.002  0.00  0.00    -0.050 A 
ATOM     21  C   UNL     1       0.006  -0.689  -1.199  0.00  0.00    +0.004 A 
ATOM     22  C   UNL     1       0.025  -2.071  -1.206  0.00  0.00    +0.006 A 
ATOM     23  C   UNL     1       0.040  -2.768  -0.013  0.00  0.00    -0.020 A 
ATOM     24  C   UNL     1       0.037  -2.084   1.188  0.00  0.00    +0.006 A 
ATOM     25  C   UNL     1       0.023  -0.702   1.195  0.00  0.00    +0.004 A 
ENDBRANCH   1  23
BRANCH   6  26
ATOM     26  C   UNL     1      -4.740  -6.134   0.938  0.00  0.00    +0.038 A 
ATOM     27  C   UNL     1      -5.602  -5.703  -0.067  0.00  0.00    +0.024 A 
ATOM     28  C   UNL     1      -6.925  -6.061  -0.037  0.00  0.00    +0.017 A 
ATOM     29  C   UNL     1      -7.409  -6.861   1.004  0.00  0.00    +0.063 A 
ATOM     30  C   UNL     1      -6.539  -7.292   2.012  0.00  0.00    +0.017 A 
ATOM     31  C   UNL     1      -5.216  -6.935   1.972  0.00  0.00    +0.024 A 
BRANCH  29  32
ATOM     32  C   UNL     1      -8.829  -7.247   1.040  0.00  0.00    +0.387 C 
ATOM     33  O   UNL     1      -9.588  -6.869   0.159  0.00  0.00    -0.241 OA
ATOM     34  O   UNL     1      -9.250  -7.946   1.952  0.00  0.00    -0.241 OA
ENDBRANCH  29  32
ENDBRANCH   6  26
TORSDOF 4
