REMARK  Name = ZINC01926024
REMARK  5 active torsions:
REMARK  status: ('A' for Active; 'I' for Inactive)
REMARK    1  A    between atoms: C_3  and  C_9
REMARK    2  A    between atoms: C_4  and  O_8
REMARK    3  A    between atoms: C_6  and  O_7
REMARK    4  A    between atoms: N_11  and  N_12
REMARK    5  A    between atoms: C_13  and  C_15
REMARK                            x       y       z     vdW  Elec       q    Type
REMARK                         _______ _______ _______ _____ _____    ______ ____
ROOT
ATOM      1  N   UNL     1       4.832   4.239  -0.023  0.00  0.00    -0.230 N 
ATOM      2  C   UNL     1       4.812   5.587  -0.016  0.00  0.00    +0.267 C 
ATOM      3  O   UNL     1       3.750   6.179  -0.002  0.00  0.00    -0.268 OA
ATOM      4  H   UNL     1       5.679   3.767  -0.033  0.00  0.00    +0.173 HD
ENDROOT
BRANCH   2   5
ATOM      5  C   UNL     1       6.077   6.342  -0.024  0.00  0.00    +0.123 A 
ATOM      6  C   UNL     1       6.088   7.730  -0.011  0.00  0.00    +0.031 A 
ATOM      7  C   UNL     1       7.345   8.388  -0.053  0.00  0.00    +0.019 A 
ATOM      8  C   UNL     1       7.431   9.772   0.158  0.00  0.00    +0.026 A 
ATOM      9  C   UNL     1       8.652  10.383   0.155  0.00  0.00    +0.019 A 
ATOM     10  C   UNL     1       9.810   9.648  -0.062  0.00  0.00    +0.019 A 
ATOM     11  C   UNL     1       9.746   8.289  -0.291  0.00  0.00    +0.048 A 
ATOM     12  C   UNL     1       8.515   7.647  -0.300  0.00  0.00    +0.139 A 
ATOM     13  O   UNL     1       8.436   6.321  -0.567  0.00  0.00    -0.422 OA
ATOM     14  C   UNL     1       7.380   5.654  -0.040  0.00  0.00    +0.350 A 
ATOM     15  O   UNL     1       7.501   4.526   0.399  0.00  0.00    -0.244 OA
ATOM     16 BR   UNL     1       8.768  12.248   0.451  0.00  0.00    -0.050 Br
ENDBRANCH   2   5
BRANCH   1  19
ATOM     17  C   UNL     1       3.649   2.173  -0.022  0.00  0.00    +0.264 C 
ATOM     18  O   UNL     1       4.712   1.581  -0.035  0.00  0.00    -0.269 OA
ATOM     19  N   UNL     1       3.630   3.521  -0.015  0.00  0.00    -0.230 N 
ATOM     20  H   UNL     1       2.783   3.994  -0.004  0.00  0.00    +0.173 HD
BRANCH  17  23
ATOM     21  C   UNL     1      -0.017   1.387   0.010  0.00  0.00    +0.046 A 
ATOM     22  C   UNL     1       1.162   2.096   0.002  0.00  0.00    +0.020 A 
ATOM     23  C   UNL     1       2.385   1.418  -0.013  0.00  0.00    +0.080 A 
ATOM     24  C   UNL     1       2.402   0.015  -0.021  0.00  0.00    +0.132 A 
ATOM     25  C   UNL     1       1.210  -0.687  -0.013  0.00  0.00    +0.091 A 
ATOM     26  C   UNL     1       0.002  -0.004   0.002  0.00  0.00    +0.120 A 
BRANCH  26  27
ATOM     27  O   UNL     1      -1.165  -0.696   0.010  0.00  0.00    -0.507 OA
ATOM     28  H   UNL     1      -1.513  -0.891  -0.871  0.00  0.00    +0.292 HD
ENDBRANCH  26  27
BRANCH  24  29
ATOM     29  O   UNL     1       3.584  -0.651  -0.036  0.00  0.00    -0.506 OA
ATOM     30  H   UNL     1       3.935  -0.849   0.843  0.00  0.00    +0.292 HD
ENDBRANCH  24  29
ENDBRANCH  17  23
ENDBRANCH   1  19
TORSDOF 5
