REMARK  Name = ZINC40922814
REMARK  4 active torsions:
REMARK  status: ('A' for Active; 'I' for Inactive)
REMARK    1  A    between atoms: C_3  and  C_16
REMARK    2  A    between atoms: C_5  and  O_7
REMARK    3  A    between atoms: O_7  and  C_8
REMARK    4  A    between atoms: C_8  and  C_9
REMARK                            x       y       z     vdW  Elec       q    Type
REMARK                         _______ _______ _______ _____ _____    ______ ____
ROOT
ATOM      1  C   UNL     1      -0.017   1.377   0.010  0.00  0.00    +0.004 A 
ATOM      2  C   UNL     1       1.171   2.086   0.002  0.00  0.00    +0.006 A 
ATOM      3  C   UNL     1       2.379   1.415  -0.013  0.00  0.00    -0.015 A 
ATOM      4  C   UNL     1       2.403   0.033  -0.021  0.00  0.00    +0.051 A 
ATOM      5  C   UNL     1       1.214  -0.680  -0.013  0.00  0.00    +0.121 A 
ATOM      6  C   UNL     1       0.002  -0.004   0.002  0.00  0.00    +0.045 A 
ENDROOT
BRANCH   3   7
ATOM      7  C   UNL     1       3.671   2.190  -0.021  0.00  0.00    +0.177 C 
ATOM      8  C   UNL     1       3.725   3.064  -1.256  0.00  0.00    +0.041 C 
ATOM      9  C   UNL     1       3.551   4.401  -1.198  0.00  0.00    +0.020 C 
ATOM     10  C   UNL     1       3.593   5.244  -2.451  0.00  0.00    +0.052 C 
ATOM     11  C   UNL     1       4.550   4.613  -3.463  0.00  0.00    +0.014 C 
ATOM     12  C   UNL     1       4.061   3.193  -3.769  0.00  0.00    +0.080 C 
ATOM     13  C   UNL     1       3.968   2.421  -2.483  0.00  0.00    +0.163 C 
ATOM     14  O   UNL     1       4.107   1.214  -2.504  0.00  0.00    -0.292 OA
ATOM     15  N   UNL     1       3.336   5.054  -0.007  0.00  0.00    -0.286 N 
ATOM     16  C   UNL     1       3.583   4.364   1.167  0.00  0.00    +0.240 A 
ATOM     17  N   UNL     1       3.746   3.017   1.174  0.00  0.00    -0.201 N 
ATOM     18  N   UNL     1       3.979   2.679   2.505  0.00  0.00    -0.042 NA
ATOM     19  N   UNL     1       3.937   3.784   3.178  0.00  0.00    -0.021 NA
ATOM     20  N   UNL     1       3.704   4.775   2.397  0.00  0.00    -0.092 NA
ATOM     21  H   UNL     1       3.022   5.972   0.009  0.00  0.00    +0.155 HD
ENDBRANCH   3   7
BRANCH   5  22
ATOM     22  O   UNL     1       1.235  -2.039  -0.021  0.00  0.00    -0.487 OA
BRANCH  22  23
ATOM     23  C   UNL     1      -0.028  -2.708  -0.013  0.00  0.00    +0.264 C 
BRANCH  23  24
ATOM     24  C   UNL     1       0.192  -4.198  -0.024  0.00  0.00    -0.010 A 
ATOM     25  C   UNL     1       0.287  -4.874  -1.226  0.00  0.00    +0.008 A 
ATOM     26  C   UNL     1       0.490  -6.241  -1.236  0.00  0.00    +0.020 A 
ATOM     27  C   UNL     1       0.597  -6.934  -0.043  0.00  0.00    +0.041 A 
ATOM     28  C   UNL     1       0.502  -6.257   1.160  0.00  0.00    +0.020 A 
ATOM     29  C   UNL     1       0.305  -4.888   1.169  0.00  0.00    +0.008 A 
ATOM     30 CL   UNL     1       0.851  -8.651  -0.055  0.00  0.00    -0.084 Cl
ENDBRANCH  23  24
ENDBRANCH  22  23
ENDBRANCH   5  22
TORSDOF 4
