REMARK  Name = ZINC18196059
REMARK  2 active torsions:
REMARK  status: ('A' for Active; 'I' for Inactive)
REMARK    1  A    between atoms: C_11  and  C_21
REMARK    2  A    between atoms: C_18  and  O_19
REMARK                            x       y       z     vdW  Elec       q    Type
REMARK                         _______ _______ _______ _____ _____    ______ ____
ROOT
ATOM      1  C   UNL     1      -1.213   1.790   0.017  0.00  0.00    +0.001 A 
ATOM      2  C   UNL     1      -1.242   3.165   0.029  0.00  0.00    +0.001 A 
ATOM      3  C   UNL     1      -0.069   3.927   0.023  0.00  0.00    +0.012 A 
ATOM      4  C   UNL     1       1.127   3.233   0.010  0.00  0.00    +0.031 A 
ATOM      5  C   UNL     1       1.159   1.817   0.001  0.00  0.00    +0.007 A 
ATOM      6  C   UNL     1      -0.013   1.076   0.008  0.00  0.00    +0.010 A 
ATOM      7  C   UNL     1       2.571   1.415  -0.018  0.00  0.00    +0.048 C 
ATOM      8  C   UNL     1       3.355   2.543  -0.013  0.00  0.00    +0.034 C 
ATOM      9  C   UNL     1       2.532   3.691   0.002  0.00  0.00    +0.193 C 
ATOM     10  O   UNL     1       2.912   4.846   0.008  0.00  0.00    -0.287 OA
ATOM     11  C   UNL     1       4.868   2.522  -0.024  0.00  0.00    +0.093 C 
ATOM     12  C   UNL     1       5.302   1.104  -0.307  0.00  0.00    +0.067 A 
ATOM     13  C   UNL     1       4.453   0.030  -0.303  0.00  0.00    +0.126 A 
ATOM     14  N   UNL     1       5.180  -1.070  -0.589  0.00  0.00    -0.260 N 
ATOM     15  H   UNL     1       4.833  -2.006  -0.655  0.00  0.00    +0.190 HD
ATOM     16  N   UNL     1       6.511  -0.666  -0.778  0.00  0.00    -0.134 NA
ATOM     17  C   UNL     1       6.580   0.635  -0.608  0.00  0.00    +0.237 A 
ATOM     18  N   UNL     1       3.086   0.135  -0.043  0.00  0.00    -0.299 N 
ATOM     19  H   UNL     1       2.531  -0.645   0.112  0.00  0.00    +0.154 HD
ENDROOT
BRANCH  11  20
ATOM     20  C   UNL     1       5.395   2.960   1.318  0.00  0.00    -0.035 A 
ATOM     21  C   UNL     1       5.029   2.274   2.461  0.00  0.00    +0.006 A 
ATOM     22  C   UNL     1       5.516   2.672   3.692  0.00  0.00    +0.020 A 
ATOM     23  C   UNL     1       6.362   3.764   3.780  0.00  0.00    +0.041 A 
ATOM     24  C   UNL     1       6.724   4.452   2.636  0.00  0.00    +0.020 A 
ATOM     25  C   UNL     1       6.240   4.050   1.406  0.00  0.00    +0.006 A 
ATOM     26 CL   UNL     1       6.969   4.269   5.326  0.00  0.00    -0.084 Cl
ENDBRANCH  11  20
BRANCH  17  27
ATOM     27  O   UNL     1       7.704   1.394  -0.709  0.00  0.00    -0.491 OA
ATOM     28  H   UNL     1       8.482   0.808  -0.935  0.00  0.00    +0.294 HD
ENDBRANCH  17  27
TORSDOF 2
