REMARK  Name = ZINC40286250
REMARK  2 active torsions:
REMARK  status: ('A' for Active; 'I' for Inactive)
REMARK    1  A    between atoms: C_3  and  C_6
REMARK    2  A    between atoms: C_6  and  C_8
REMARK                            x       y       z     vdW  Elec       q    Type
REMARK                         _______ _______ _______ _____ _____    ______ ____
ROOT
ATOM      1  C   UNL     1       4.100   0.006   1.250  0.00  0.00    -0.005 A 
ATOM      2  C   UNL     1       4.403  -1.342   1.293  0.00  0.00    +0.056 A 
ATOM      3  C   UNL     1       4.865  -1.913   2.468  0.00  0.00    +0.162 A 
ATOM      4  C   UNL     1       5.025  -1.127   3.604  0.00  0.00    +0.163 A 
ATOM      5  C   UNL     1       4.717   0.224   3.556  0.00  0.00    +0.069 A 
ATOM      6  C   UNL     1       4.261   0.789   2.379  0.00  0.00    +0.049 A 
ATOM      7 CL   UNL     1       3.884   2.483   2.320  0.00  0.00    -0.083 Cl
ATOM      8  O   UNL     1       5.484  -1.667   4.766  0.00  0.00    -0.485 OA
ATOM      9  C   UNL     1       5.427  -3.093   4.879  0.00  0.00    +0.270 C 
ATOM     10  C   UNL     1       5.971  -3.702   3.579  0.00  0.00    +0.270 C 
ATOM     11  O   UNL     1       5.156  -3.243   2.495  0.00  0.00    -0.485 OA
ENDROOT
BRANCH   1  12
ATOM     12  C   UNL     1       3.599   0.625  -0.029  0.00  0.00    +0.154 C 
ATOM     13 BR   UNL     1       4.214  -0.445  -1.559  0.00  0.00    -0.075 Br
BRANCH  12  16
ATOM     14  C   UNL     1      -0.016   1.341   0.009  0.00  0.00    +0.041 A 
ATOM     15  C   UNL     1       1.331   1.769  -0.001  0.00  0.00    +0.046 A 
ATOM     16  C   UNL     1       2.092   0.660  -0.014  0.00  0.00    +0.123 A 
ATOM     17  O   UNL     1       1.282  -0.411  -0.012  0.00  0.00    -0.466 OA
ATOM     18  C   UNL     1       0.002  -0.004   0.002  0.00  0.00    +0.195 A 
ENDBRANCH  12  16
ENDBRANCH   1  12
TORSDOF 2
