REMARK  Name = ZINC05927958
REMARK  14 active torsions:
REMARK  status: ('A' for Active; 'I' for Inactive)
REMARK    1  A    between atoms: C_1  and  C_2
REMARK    2  A    between atoms: C_2  and  N_3
REMARK    3  A    between atoms: N_3  and  C_4
REMARK    4  A    between atoms: N_3  and  C_6
REMARK    5  A    between atoms: C_4  and  C_5
REMARK    6  A    between atoms: C_9  and  C_12
REMARK    7  A    between atoms: C_12  and  N_13
REMARK    8  A    between atoms: N_13  and  C_14
REMARK    9  A    between atoms: N_13  and  C_21
REMARK   10  A    between atoms: C_14  and  C_15
REMARK   11  A    between atoms: C_21  and  N_23
REMARK   12  A    between atoms: N_23  and  C_24
REMARK   13  A    between atoms: C_27  and  C_31
REMARK   14  A    between atoms: C_29  and  C_30
REMARK                            x       y       z     vdW  Elec       q    Type
REMARK                         _______ _______ _______ _____ _____    ______ ____
ROOT
ATOM      1  N   UNL     1      -1.351  -6.476  -0.877  0.00  0.00    -0.304 N 
ENDROOT
BRANCH   1   2
ATOM      2  C   UNL     1      -1.424  -6.805   0.428  0.00  0.00    +0.138 C 
ATOM      3  S   UNL     1      -0.158  -6.364   1.493  0.00  0.00    -0.018 S 
BRANCH   2   4
ATOM      4  N   UNL     1      -2.493  -7.480   0.894  0.00  0.00    -0.297 N 
ATOM      5  H   UNL     1      -3.173  -7.795   0.279  0.00  0.00    +0.154 HD
BRANCH   4   6
ATOM      6  C   UNL     1      -2.621  -7.726   2.265  0.00  0.00    +0.036 A 
ATOM      7  C   UNL     1      -1.516  -8.124   3.007  0.00  0.00    +0.024 A 
ATOM      8  C   UNL     1      -1.646  -8.366   4.361  0.00  0.00    +0.005 A 
ATOM      9  C   UNL     1      -2.875  -8.212   4.977  0.00  0.00    -0.050 A 
ATOM     10  C   UNL     1      -3.976  -7.816   4.242  0.00  0.00    +0.008 A 
ATOM     11  C   UNL     1      -3.852  -7.567   2.889  0.00  0.00    -0.029 A 
ATOM     12  C   UNL     1      -5.052  -7.131   2.088  0.00  0.00    +0.045 C 
ATOM     13  C   UNL     1      -3.013  -8.478   6.454  0.00  0.00    +0.044 C 
ENDBRANCH   4   6
ENDBRANCH   2   4
ENDBRANCH   1   2
BRANCH   1  14
ATOM     14  C   UNL     1      -0.189  -5.742  -1.384  0.00  0.00    +0.142 C 
BRANCH  14  18
ATOM     15  C   UNL     1      -0.920  -1.543  -1.104  0.00  0.00    +0.013 A 
ATOM     16  C   UNL     1      -0.329  -2.213  -0.049  0.00  0.00    +0.022 A 
ATOM     17  C   UNL     1      -0.092  -3.572  -0.140  0.00  0.00    +0.007 A 
ATOM     18  C   UNL     1      -0.448  -4.261  -1.285  0.00  0.00    -0.030 A 
ATOM     19  C   UNL     1      -1.039  -3.591  -2.339  0.00  0.00    +0.007 A 
ATOM     20  C   UNL     1      -1.280  -2.232  -2.247  0.00  0.00    +0.022 A 
BRANCH  15  21
ATOM     21  N   UNL     1      -1.160  -0.169  -1.012  0.00  0.00    -0.394 NA
ATOM     22  H   UNL     1      -1.597   0.154  -1.862  0.00  0.00    +0.126 HD
BRANCH  21  24
ATOM     23  C   UNL     1      -3.421  -0.521  -0.139  0.00  0.00    +0.022 C 
ATOM     24  C   UNL     1      -2.047   0.099   0.128  0.00  0.00    +0.081 C 
ENDBRANCH  21  24
BRANCH  21  25
ATOM     25  C   UNL     1       0.113   0.538  -0.818  0.00  0.00    +0.081 C 
ATOM     26  C   UNL     1       0.979   0.384  -2.070  0.00  0.00    +0.022 C 
ENDBRANCH  21  25
ENDBRANCH  15  21
ENDBRANCH  14  18
ENDBRANCH   1  14
BRANCH   1  27
ATOM     27  C   UNL     1      -2.434  -6.853  -1.789  0.00  0.00    +0.142 C 
BRANCH  27  28
ATOM     28  C   UNL     1      -2.148  -8.211  -2.374  0.00  0.00    -0.030 A 
ATOM     29  C   UNL     1      -1.426  -8.320  -3.548  0.00  0.00    +0.005 A 
ATOM     30  C   UNL     1      -1.164  -9.566  -4.086  0.00  0.00    +0.000 A 
ATOM     31  C   UNL     1      -1.623 -10.704  -3.449  0.00  0.00    +0.000 A 
ATOM     32  C   UNL     1      -2.344 -10.595  -2.274  0.00  0.00    +0.000 A 
ATOM     33  C   UNL     1      -2.602  -9.349  -1.735  0.00  0.00    +0.005 A 
ENDBRANCH  27  28
ENDBRANCH   1  27
TORSDOF 10
