REMARK  Name = ZINC16184430
REMARK  11 active torsions:
REMARK  status: ('A' for Active; 'I' for Inactive)
REMARK    1  A    between atoms: C_1  and  C_2
REMARK    2  A    between atoms: C_5  and  S_8
REMARK    3  A    between atoms: S_8  and  N_11
REMARK    4  A    between atoms: N_11  and  C_12
REMARK    5  A    between atoms: N_11  and  C_20
REMARK    6  A    between atoms: C_12  and  C_13
REMARK    7  A    between atoms: C_20  and  C_21
REMARK    8  A    between atoms: N_23  and  N_24
REMARK    9  A    between atoms: C_25  and  C_26
REMARK   10  A    between atoms: C_31  and  O_32
REMARK   11  A    between atoms: O_32  and  C_33
REMARK                            x       y       z     vdW  Elec       q    Type
REMARK                         _______ _______ _______ _____ _____    ______ ____
ROOT
ATOM      1  N   UNL     1       2.050   4.544   3.632  0.00  0.00    -0.163 NA
ENDROOT
BRANCH   1   2
ATOM      2  S   UNL     1       3.445   4.282   4.485  0.00  0.00    +0.062 S 
ATOM      3  O   UNL     1       3.082   3.532   5.636  0.00  0.00    -0.153 OA
ATOM      4  O   UNL     1       4.412   3.822   3.550  0.00  0.00    -0.153 OA
BRANCH   2   9
ATOM      5  C   UNL     1       5.368   9.649   6.459  0.00  0.00    +0.044 C 
ATOM      6  C   UNL     1       4.888   8.308   5.966  0.00  0.00    -0.050 A 
ATOM      7  C   UNL     1       4.028   7.554   6.742  0.00  0.00    +0.005 A 
ATOM      8  C   UNL     1       3.588   6.324   6.290  0.00  0.00    +0.029 A 
ATOM      9  C   UNL     1       4.007   5.849   5.061  0.00  0.00    +0.106 A 
ATOM     10  C   UNL     1       4.870   6.601   4.288  0.00  0.00    +0.029 A 
ATOM     11  C   UNL     1       5.308   7.833   4.738  0.00  0.00    +0.005 A 
ENDBRANCH   2   9
ENDBRANCH   1   2
BRANCH   1  12
ATOM     12  C   UNL     1       2.111   4.809   2.193  0.00  0.00    +0.145 C 
BRANCH  12  13
ATOM     13  C   UNL     1       1.905   3.521   1.437  0.00  0.00    -0.032 A 
ATOM     14  C   UNL     1       0.630   3.128   1.077  0.00  0.00    +0.006 A 
ATOM     15  C   UNL     1       0.440   1.948   0.383  0.00  0.00    +0.020 A 
ATOM     16  C   UNL     1       1.528   1.160   0.048  0.00  0.00    +0.041 A 
ATOM     17  C   UNL     1       2.804   1.554   0.409  0.00  0.00    +0.020 A 
ATOM     18  C   UNL     1       2.992   2.735   1.103  0.00  0.00    +0.006 A 
ATOM     19 CL   UNL     1       1.290  -0.323  -0.823  0.00  0.00    -0.084 Cl
ENDBRANCH  12  13
ENDBRANCH   1  12
BRANCH   1  20
ATOM     20  C   UNL     1       0.756   4.512   4.318  0.00  0.00    +0.207 C 
BRANCH  20  21
ATOM     21  C   UNL     1       0.152   3.138   4.186  0.00  0.00    +0.248 C 
ATOM     22  O   UNL     1       0.791   2.240   3.681  0.00  0.00    -0.273 OA
ATOM     23  N   UNL     1      -1.099   2.907   4.631  0.00  0.00    -0.206 N 
ATOM     24  H   UNL     1      -1.638   3.640   4.968  0.00  0.00    +0.177 HD
BRANCH  23  25
ATOM     25  N   UNL     1      -1.623   1.607   4.606  0.00  0.00    -0.188 NA
ATOM     26  C   UNL     1      -2.864   1.401   4.924  0.00  0.00    +0.142 C 
BRANCH  26  27
ATOM     27  C   UNL     1      -3.781   2.543   5.091  0.00  0.00    +0.036 A 
ATOM     28  C   UNL     1      -3.549   3.736   4.404  0.00  0.00    +0.013 A 
ATOM     29  C   UNL     1      -4.414   4.799   4.561  0.00  0.00    +0.001 A 
ATOM     30  C   UNL     1      -5.505   4.692   5.406  0.00  0.00    +0.004 A 
ATOM     31  C   UNL     1      -5.743   3.518   6.096  0.00  0.00    +0.046 A 
ATOM     32  C   UNL     1      -4.887   2.439   5.945  0.00  0.00    +0.129 A 
BRANCH  32  33
ATOM     33  O   UNL     1      -5.120   1.285   6.622  0.00  0.00    -0.494 OA
ATOM     34  C   UNL     1      -6.325   1.213   7.386  0.00  0.00    +0.277 C 
ENDBRANCH  32  33
ENDBRANCH  26  27
ENDBRANCH  23  25
ENDBRANCH  20  21
ENDBRANCH   1  20
TORSDOF 9
