REMARK  Name = ZINC20080566
REMARK  14 active torsions:
REMARK  status: ('A' for Active; 'I' for Inactive)
REMARK    1  A    between atoms: C_1  and  C_2
REMARK    2  A    between atoms: C_2  and  C_3
REMARK    3  A    between atoms: C_3  and  C_4
REMARK    4  A    between atoms: C_3  and  C_5
REMARK    5  A    between atoms: C_3  and  N_6
REMARK    6  A    between atoms: C_7  and  C_11
REMARK    7  A    between atoms: C_11  and  C_13
REMARK    8  A    between atoms: C_11  and  N_28
REMARK    9  A    between atoms: C_17  and  O_25
REMARK   10  A    between atoms: O_25  and  C_26
REMARK   11  A    between atoms: C_26  and  C_27
REMARK   12  A    between atoms: N_31  and  C_34
REMARK   13  A    between atoms: C_39  and  O_40
REMARK   14  A    between atoms: O_40  and  C_41
REMARK                            x       y       z     vdW  Elec       q    Type
REMARK                         _______ _______ _______ _____ _____    ______ ____
ROOT
ATOM      1  C   UNL     1       3.412   0.625  -0.505  0.00  0.00    +0.162 C 
ENDROOT
BRANCH   1   2
ATOM      2  C   UNL     1       3.677   0.257  -1.943  0.00  0.00    +0.042 A 
ATOM      3  C   UNL     1       4.261   1.155  -2.773  0.00  0.00    +0.021 A 
ATOM      4  C   UNL     1       4.510   0.766  -4.163  0.00  0.00    +0.002 A 
ATOM      5  C   UNL     1       5.114   1.650  -5.063  0.00  0.00    +0.055 A 
ATOM      6  C   UNL     1       5.328   1.252  -6.367  0.00  0.00    +0.121 A 
ATOM      7  C   UNL     1       4.947  -0.020  -6.787  0.00  0.00    +0.047 A 
ATOM      8  C   UNL     1       4.351  -0.899  -5.909  0.00  0.00    +0.030 A 
ATOM      9  C   UNL     1       4.126  -0.518  -4.590  0.00  0.00    +0.049 A 
ATOM     10  N   UNL     1       3.530  -1.385  -3.696  0.00  0.00    -0.322 N 
ATOM     11  H   UNL     1       3.228  -2.390  -4.023  0.00  0.00    +0.169 HD
ATOM     12  C   UNL     1       3.311  -1.019  -2.421  0.00  0.00    +0.254 A 
ATOM     13  O   UNL     1       2.784  -1.811  -1.658  0.00  0.00    -0.268 OA
BRANCH   6  14
ATOM     14  O   UNL     1       5.915   2.107  -7.247  0.00  0.00    -0.492 OA
BRANCH  14  15
ATOM     15  C   UNL     1       6.108   1.633  -8.581  0.00  0.00    +0.225 C 
ATOM     16  C   UNL     1       6.776   2.725  -9.419  0.00  0.00    +0.048 C 
ENDBRANCH  14  15
ENDBRANCH   6  14
ENDBRANCH   1   2
BRANCH   1  17
ATOM     17  N   UNL     1       4.029  -0.375   0.377  0.00  0.00    -0.286 NA
ATOM     18  C   UNL     1       3.715  -0.098   1.786  0.00  0.00    +0.104 C 
ATOM     19  C   UNL     1       4.307  -1.203   2.664  0.00  0.00    +0.120 C 
ATOM     20  N   UNL     1       5.760  -1.267   2.454  0.00  0.00    -0.325 N 
ATOM     21  C   UNL     1       6.074  -1.543   1.046  0.00  0.00    +0.120 C 
ATOM     22  C   UNL     1       5.482  -0.438   0.167  0.00  0.00    +0.104 C 
BRANCH  20  23
ATOM     23  C   UNL     1       6.347  -2.219   3.296  0.00  0.00    +0.072 A 
ATOM     24  C   UNL     1       5.550  -3.094   4.018  0.00  0.00    +0.027 A 
ATOM     25  C   UNL     1       6.132  -4.037   4.845  0.00  0.00    +0.002 A 
ATOM     26  C   UNL     1       7.508  -4.103   4.961  0.00  0.00    +0.004 A 
ATOM     27  C   UNL     1       8.309  -3.230   4.247  0.00  0.00    +0.047 A 
ATOM     28  C   UNL     1       7.734  -2.286   3.413  0.00  0.00    +0.141 A 
BRANCH  28  29
ATOM     29  O   UNL     1       8.520  -1.426   2.712  0.00  0.00    -0.493 OA
ATOM     30  C   UNL     1       9.933  -1.554   2.882  0.00  0.00    +0.277 C 
ENDBRANCH  28  29
ENDBRANCH  20  23
ENDBRANCH   1  17
BRANCH   1  32
ATOM     31  N   UNL     1       1.180   1.751  -0.002  0.00  0.00    -0.222 N 
ATOM     32  C   UNL     1       1.926   0.661  -0.262  0.00  0.00    +0.174 A 
ATOM     33  N   UNL     1       1.107  -0.363  -0.263  0.00  0.00    -0.111 NA
ATOM     34  N   UNL     1      -0.079   0.075  -0.017  0.00  0.00    -0.023 NA
ATOM     35  N   UNL     1      -0.038   1.352   0.142  0.00  0.00    -0.043 NA
BRANCH  31  36
ATOM     36  C   UNL     1       1.662   3.131   0.099  0.00  0.00    +0.062 C 
ATOM     37  C   UNL     1       2.656   3.241   1.257  0.00  0.00    +0.036 C 
ATOM     38  C   UNL     1       2.355   3.526  -1.207  0.00  0.00    +0.036 C 
BRANCH  36  40
ATOM     39  C   UNL     1       0.982   5.508   0.457  0.00  0.00    +0.006 C 
ATOM     40  C   UNL     1       0.479   4.067   0.352  0.00  0.00    +0.026 C 
ENDBRANCH  36  40
ENDBRANCH  31  36
ENDBRANCH   1  32
TORSDOF 9
