REMARK  Name = ZINC03007249
REMARK  9 active torsions:
REMARK  status: ('A' for Active; 'I' for Inactive)
REMARK    1  A    between atoms: C_1  and  C_2
REMARK    2  A    between atoms: N_8  and  S_9
REMARK    3  A    between atoms: S_9  and  C_12
REMARK    4  A    between atoms: C_15  and  C_18
REMARK    5  A    between atoms: N_20  and  C_21
REMARK    6  A    between atoms: C_22  and  C_33
REMARK    7  A    between atoms: C_30  and  C_32
REMARK    8  A    between atoms: C_33  and  O_35
REMARK    9  A    between atoms: O_35  and  C_36
REMARK                            x       y       z     vdW  Elec       q    Type
REMARK                         _______ _______ _______ _____ _____    ______ ____
ROOT
ATOM      1  C   UNL     1      -2.169   3.515  -1.069  0.00  0.00    +0.249 C 
ATOM      2  O   UNL     1      -2.577   4.660  -1.043  0.00  0.00    -0.270 OA
ATOM      3  N   UNL     1      -0.864   3.270  -1.300  0.00  0.00    -0.275 N 
ATOM      4  H   UNL     1      -0.539   2.356  -1.320  0.00  0.00    +0.156 HD
ENDROOT
BRANCH   3   5
ATOM      5  C   UNL     1       0.011   4.321  -1.515  0.00  0.00    +0.087 A 
ATOM      6  C   UNL     1       1.375   4.271  -1.772  0.00  0.00    +0.091 A 
ATOM      7  C   UNL     1       2.071   5.533  -1.961  0.00  0.00    -0.018 A 
ATOM      8  C   UNL     1       1.294   6.634  -1.867  0.00  0.00    +0.013 A 
ATOM      9  S   UNL     1      -0.332   6.020  -1.535  0.00  0.00    -0.076 S 
ATOM     10  C   UNL     1       1.734   8.059  -2.020  0.00  0.00    +0.150 C 
ATOM     11  N   UNL     1       3.209   8.058  -2.059  0.00  0.00    -0.297 N 
ATOM     12  C   UNL     1       3.867   7.008  -2.852  0.00  0.00    +0.113 C 
ATOM     13  C   UNL     1       3.565   5.639  -2.239  0.00  0.00    +0.056 C 
ATOM     14  C   UNL     1       3.927   8.984  -1.393  0.00  0.00    +0.213 C 
ATOM     15  O   UNL     1       5.139   8.962  -1.441  0.00  0.00    -0.276 OA
ATOM     16  C   UNL     1       3.224  10.048  -0.589  0.00  0.00    +0.109 C 
BRANCH   6  17
ATOM     17  C   UNL     1       2.086   2.993  -1.850  0.00  0.00    +0.342 C 
ATOM     18  O   UNL     1       2.184   2.416  -2.916  0.00  0.00    -0.245 OA
BRANCH  17  19
ATOM     19  O   UNL     1       2.631   2.456  -0.739  0.00  0.00    -0.464 OA
ATOM     20  C   UNL     1       3.320   1.187  -0.890  0.00  0.00    +0.280 C 
ENDBRANCH  17  19
ENDBRANCH   6  17
ENDBRANCH   3   5
BRANCH   1  24
ATOM     21  C   UNL     1      -4.856   0.289  -0.427  0.00  0.00    +0.106 A 
ATOM     22  C   UNL     1      -5.324   1.591  -0.398  0.00  0.00    +0.029 A 
ATOM     23  C   UNL     1      -4.456   2.643  -0.605  0.00  0.00    +0.015 A 
ATOM     24  C   UNL     1      -3.104   2.393  -0.845  0.00  0.00    +0.037 A 
ATOM     25  C   UNL     1      -2.640   1.076  -0.879  0.00  0.00    +0.015 A 
ATOM     26  C   UNL     1      -3.517   0.033  -0.664  0.00  0.00    +0.029 A 
BRANCH  21  27
ATOM     27  S   UNL     1      -5.971  -1.049  -0.160  0.00  0.00    +0.061 S 
ATOM     28  O   UNL     1      -5.189  -2.142   0.304  0.00  0.00    -0.153 OA
ATOM     29  O   UNL     1      -7.064  -0.526   0.581  0.00  0.00    -0.153 OA
BRANCH  27  36
ATOM     30  C   UNL     1      -8.273   0.219  -1.211  0.00  0.00    +0.026 C 
ATOM     31  C   UNL     1      -7.712  -0.778  -2.227  0.00  0.00    +0.077 C 
ATOM     32  C   UNL     1      -8.793  -1.792  -2.597  0.00  0.00    +0.020 C 
ATOM     33  C   UNL     1      -8.191  -2.869  -3.502  0.00  0.00    +0.003 C 
ATOM     34  C   UNL     1      -7.076  -3.602  -2.752  0.00  0.00    +0.017 C 
ATOM     35  C   UNL     1      -5.971  -2.605  -2.387  0.00  0.00    +0.110 C 
ATOM     36  N   UNL     1      -6.569  -1.490  -1.640  0.00  0.00    -0.174 NA
ENDBRANCH  27  36
ENDBRANCH  21  27
ENDBRANCH   1  24
TORSDOF 6
