REMARK  Name = ZINC24964115
REMARK  13 active torsions:
REMARK  status: ('A' for Active; 'I' for Inactive)
REMARK    1  A    between atoms: C_1  and  C_2
REMARK    2  A    between atoms: C_2  and  C_4
REMARK    3  A    between atoms: C_2  and  S_14
REMARK    4  A    between atoms: N_10  and  C_11
REMARK    5  A    between atoms: N_10  and  C_12
REMARK    6  A    between atoms: S_14  and  C_15
REMARK    7  A    between atoms: C_18  and  C_29
REMARK    8  A    between atoms: N_19  and  C_20
REMARK    9  A    between atoms: C_25  and  C_26
REMARK   10  A    between atoms: C_26  and  C_27
REMARK   11  A    between atoms: C_26  and  C_28
REMARK   12  A    between atoms: C_32  and  O_35
REMARK   13  A    between atoms: O_35  and  C_36
REMARK                            x       y       z     vdW  Elec       q    Type
REMARK                         _______ _______ _______ _____ _____    ______ ____
ROOT
ATOM      1  C   UNL     1      -0.189  -0.057  -2.809  0.00  0.00    +0.197 A 
ATOM      2  N   UNL     1      -1.313   0.615  -2.693  0.00  0.00    -0.122 NA
ATOM      3  N   UNL     1      -1.815   0.840  -3.854  0.00  0.00    -0.128 NA
ATOM      4  C   UNL     1      -1.045   0.326  -4.785  0.00  0.00    +0.169 A 
ATOM      5  N   UNL     1       0.025  -0.261  -4.146  0.00  0.00    -0.270 N 
ENDROOT
BRANCH   5   6
ATOM      6  C   UNL     1       1.105  -0.928  -4.739  0.00  0.00    +0.054 A 
ATOM      7  C   UNL     1       1.032  -2.294  -4.978  0.00  0.00    +0.026 A 
ATOM      8  C   UNL     1       2.098  -2.949  -5.563  0.00  0.00    +0.002 A 
ATOM      9  C   UNL     1       3.238  -2.246  -5.910  0.00  0.00    +0.000 A 
ATOM     10  C   UNL     1       3.313  -0.886  -5.672  0.00  0.00    +0.006 A 
ATOM     11  C   UNL     1       2.248  -0.224  -5.093  0.00  0.00    -0.021 A 
BRANCH  11  12
ATOM     12  C   UNL     1       2.328   1.259  -4.842  0.00  0.00    +0.015 C 
ATOM     13  C   UNL     1       3.504   1.555  -3.909  0.00  0.00    +0.012 C 
ATOM     14  C   UNL     1       2.534   1.992  -6.169  0.00  0.00    +0.012 C 
ENDBRANCH  11  12
ENDBRANCH   5   6
BRANCH   4  15
ATOM     15  C   UNL     1      -1.279   0.373  -6.244  0.00  0.00    +0.020 A 
ATOM     16  C   UNL     1      -0.565  -0.473  -7.095  0.00  0.00    +0.015 A 
ATOM     17  C   UNL     1      -0.786  -0.426  -8.454  0.00  0.00    +0.046 A 
ATOM     18  C   UNL     1      -1.717   0.461  -8.978  0.00  0.00    +0.120 A 
ATOM     19  C   UNL     1      -2.428   1.305  -8.136  0.00  0.00    +0.046 A 
ATOM     20  C   UNL     1      -2.218   1.260  -6.774  0.00  0.00    +0.015 A 
BRANCH  18  21
ATOM     21  O   UNL     1      -1.932   0.504 -10.319  0.00  0.00    -0.495 OA
ATOM     22  C   UNL     1      -2.903   1.440 -10.791  0.00  0.00    +0.277 C 
ENDBRANCH  18  21
ENDBRANCH   4  15
BRANCH   1  23
ATOM     23  S   UNL     1       0.851  -0.589  -1.490  0.00  0.00    -0.075 S 
BRANCH  23  25
ATOM     24  C   UNL     1      -0.019   1.526   0.010  0.00  0.00    +0.028 C 
ATOM     25  C   UNL     1       0.002  -0.004   0.002  0.00  0.00    +0.119 C 
BRANCH  25  26
ATOM     26  C   UNL     1       0.731  -0.503   1.223  0.00  0.00    +0.149 A 
ATOM     27  N   UNL     1       2.049  -0.421   1.284  0.00  0.00    -0.198 NA
ATOM     28  C   UNL     1       2.696  -0.860   2.360  0.00  0.00    +0.217 A 
ATOM     29  N   UNL     1       2.015  -1.382   3.375  0.00  0.00    -0.181 NA
ATOM     30  C   UNL     1       0.691  -1.464   3.311  0.00  0.00    +0.222 A 
ATOM     31  N   UNL     1       0.051  -1.017   2.232  0.00  0.00    -0.198 NA
ATOM     32  N   UNL     1      -0.020  -2.005   4.362  0.00  0.00    -0.306 N 
ATOM     33  C   UNL     1       0.686  -2.491   5.550  0.00  0.00    +0.132 C 
ATOM     34  C   UNL     1      -1.480  -2.094   4.290  0.00  0.00    +0.132 C 
ATOM     35  N   UNL     1       4.072  -0.774   2.422  0.00  0.00    -0.327 N 
ATOM     36  H   UNL     1       4.568  -0.393   1.681  0.00  0.00    +0.145 HD
ATOM     37  H   UNL     1       4.543  -1.095   3.207  0.00  0.00    +0.145 HD
ENDBRANCH  25  26
ENDBRANCH  23  25
ENDBRANCH   1  23
TORSDOF 7
