REMARK  Name = ZINC38657816
REMARK  9 active torsions:
REMARK  status: ('A' for Active; 'I' for Inactive)
REMARK    1  A    between atoms: C_2  and  C_3
REMARK    2  A    between atoms: C_3  and  O_4
REMARK    3  A    between atoms: O_4  and  C_5
REMARK    4  A    between atoms: C_8  and  C_11
REMARK    5  A    between atoms: C_11  and  O_13
REMARK    6  A    between atoms: O_13  and  C_14
REMARK    7  A    between atoms: C_21  and  N_37
REMARK    8  A    between atoms: C_22  and  C_35
REMARK    9  A    between atoms: C_23  and  C_25
REMARK                            x       y       z     vdW  Elec       q    Type
REMARK                         _______ _______ _______ _____ _____    ______ ____
ROOT
ATOM      1  C   UNL     1      -6.902  -6.829  -2.360  0.00  0.00    +0.135 A 
ATOM      2  C   UNL     1      -7.973  -6.434  -1.571  0.00  0.00    +0.047 A 
ATOM      3  C   UNL     1      -9.159  -7.140  -1.613  0.00  0.00    +0.012 A 
ATOM      4  C   UNL     1      -9.285  -8.242  -2.441  0.00  0.00    +0.008 A 
ATOM      5  C   UNL     1      -8.219  -8.640  -3.232  0.00  0.00    +0.138 A 
ATOM      6  C   UNL     1      -7.027  -7.928  -3.194  0.00  0.00    +0.093 A 
ATOM      7  O   UNL     1      -8.323  -9.717  -4.049  0.00  0.00    -0.441 OA
ATOM      8  C   UNL     1      -9.286 -10.629  -3.836  0.00  0.00    +0.199 C 
ATOM      9  C   UNL     1     -10.386 -10.351  -3.096  0.00  0.00    +0.098 C 
ATOM     10  C   UNL     1     -10.586  -8.998  -2.473  0.00  0.00    +0.098 C 
ENDROOT
BRANCH  10  11
ATOM     11  C   UNL     1     -11.596  -8.222  -3.278  0.00  0.00    -0.027 A 
ATOM     12  C   UNL     1     -11.400  -8.021  -4.611  0.00  0.00    +0.005 A 
ATOM     13  C   UNL     1     -12.322  -7.306  -5.372  0.00  0.00    +0.001 A 
ATOM     14  C   UNL     1     -13.445  -6.786  -4.805  0.00  0.00    +0.008 A 
ATOM     15  C   UNL     1     -13.681  -6.972  -3.433  0.00  0.00    -0.018 A 
ATOM     16  C   UNL     1     -12.747  -7.705  -2.660  0.00  0.00    -0.014 A 
ATOM     17  C   UNL     1     -12.986  -7.897  -1.288  0.00  0.00    +0.009 A 
ATOM     18  C   UNL     1     -14.112  -7.382  -0.723  0.00  0.00    +0.001 A 
ATOM     19  C   UNL     1     -15.035  -6.666  -1.485  0.00  0.00    +0.001 A 
ATOM     20  C   UNL     1     -14.829  -6.450  -2.812  0.00  0.00    +0.008 A 
ENDBRANCH  10  11
BRANCH   8  21
ATOM     21  N   UNL     1      -9.152 -11.880  -4.385  0.00  0.00    -0.328 N 
ATOM     22  H   UNL     1      -8.370 -12.095  -4.917  0.00  0.00    +0.145 HD
ATOM     23  H   UNL     1      -9.839 -12.550  -4.240  0.00  0.00    +0.145 HD
ENDBRANCH   8  21
BRANCH   9  24
ATOM     24  C   UNL     1     -11.377 -11.366  -2.904  0.00  0.00    +0.101 C 
ATOM     25  N   UNL     1     -12.164 -12.171  -2.752  0.00  0.00    -0.191 NA
ENDBRANCH   9  24
BRANCH   1  26
ATOM     26  O   UNL     1      -5.734  -6.134  -2.320  0.00  0.00    -0.422 OA
BRANCH  26  27
ATOM     27  C   UNL     1      -5.465  -5.290  -3.335  0.00  0.00    +0.344 C 
ATOM     28  O   UNL     1      -6.212  -5.232  -4.292  0.00  0.00    -0.245 OA
BRANCH  27  32
ATOM     29  C   UNL     1      -2.010  -2.827  -3.187  0.00  0.00    +0.121 A 
ATOM     30  C   UNL     1      -2.863  -2.760  -4.283  0.00  0.00    +0.046 A 
ATOM     31  C   UNL     1      -3.984  -3.557  -4.335  0.00  0.00    +0.018 A 
ATOM     32  C   UNL     1      -4.265  -4.434  -3.284  0.00  0.00    +0.060 A 
ATOM     33  C   UNL     1      -3.405  -4.498  -2.183  0.00  0.00    +0.018 A 
ATOM     34  C   UNL     1      -2.283  -3.702  -2.142  0.00  0.00    +0.046 A 
BRANCH  29  35
ATOM     35  O   UNL     1      -0.906  -2.039  -3.140  0.00  0.00    -0.488 OA
BRANCH  35  36
ATOM     36  C   UNL     1      -0.686  -1.163  -4.247  0.00  0.00    +0.256 C 
BRANCH  36  38
ATOM     37  C   UNL     1       1.444  -0.231  -4.992  0.00  0.00    +0.007 C 
ATOM     38  C   UNL     1       0.578  -0.374  -4.020  0.00  0.00    +0.006 C 
ENDBRANCH  36  38
ENDBRANCH  35  36
ENDBRANCH  29  35
ENDBRANCH  27  32
ENDBRANCH  26  27
ENDBRANCH   1  26
TORSDOF 9
