REMARK  Name = ZINC49937860
REMARK  2 active torsions:
REMARK  status: ('A' for Active; 'I' for Inactive)
REMARK    1  A    between atoms: C_4  and  C_7
REMARK    2  A    between atoms: C_25  and  C_27
REMARK                            x       y       z     vdW  Elec       q    Type
REMARK                         _______ _______ _______ _____ _____    ______ ____
ROOT
ATOM      1  C   UNL     1       3.291  -0.717   0.137  0.00  0.00    +0.215 C 
ATOM      2  C   UNL     1       3.858  -1.068   1.512  0.00  0.00    +0.113 C 
ATOM      3  C   UNL     1       2.731  -1.781   2.243  0.00  0.00    +0.065 C 
ATOM      4  C   UNL     1       2.004  -2.810   1.491  0.00  0.00    +0.040 A 
ATOM      5  C   UNL     1       1.205  -3.755   2.132  0.00  0.00    +0.033 A 
ATOM      6  C   UNL     1       0.532  -4.700   1.384  0.00  0.00    +0.042 A 
ATOM      7  C   UNL     1       0.651  -4.707   0.002  0.00  0.00    +0.023 A 
ATOM      8  C   UNL     1       1.443  -3.777  -0.642  0.00  0.00    +0.048 A 
ATOM      9  C   UNL     1       2.131  -2.821   0.089  0.00  0.00    +0.130 A 
ATOM     10  O   UNL     1       2.919  -1.918  -0.543  0.00  0.00    -0.483 OA
ATOM     11 CL   UNL     1      -0.465  -5.881   2.173  0.00  0.00    -0.084 Cl
ATOM     12  N   UNL     1       2.415  -1.427   3.444  0.00  0.00    -0.215 NA
ATOM     13  C   UNL     1       2.951  -0.367   4.100  0.00  0.00    +0.249 A 
ATOM     14  N   UNL     1       2.733   0.073   5.334  0.00  0.00    -0.198 NA
ATOM     15  C   UNL     1       3.448   1.171   5.557  0.00  0.00    +0.247 A 
ATOM     16  N   UNL     1       4.145   1.459   4.489  0.00  0.00    -0.156 NA
ATOM     17  N   UNL     1       3.860   0.470   3.540  0.00  0.00    -0.221 N 
ATOM     18  C   UNL     1       4.366   0.222   2.181  0.00  0.00    +0.160 C 
ENDROOT
BRANCH   1  22
ATOM     19  C   UNL     1      -0.144   1.780   0.606  0.00  0.00    +0.000 A 
ATOM     20  C   UNL     1       0.496   1.268   1.719  0.00  0.00    +0.000 A 
ATOM     21  C   UNL     1       1.608   0.460   1.568  0.00  0.00    +0.007 A 
ATOM     22  C   UNL     1       2.079   0.163   0.302  0.00  0.00    -0.007 A 
ATOM     23  C   UNL     1       1.438   0.674  -0.811  0.00  0.00    +0.007 A 
ATOM     24  C   UNL     1       0.328   1.483  -0.659  0.00  0.00    +0.000 A 
ENDBRANCH   1  22
BRANCH  18  25
ATOM     25  C   UNL     1       3.977   1.390   1.312  0.00  0.00    +0.015 A 
ATOM     26  C   UNL     1       3.112   2.400   1.575  0.00  0.00    +0.013 A 
ATOM     27  C   UNL     1       2.909   3.376   0.617  0.00  0.00    +0.008 A 
ATOM     28  C   UNL     1       3.582   3.294  -0.557  0.00  0.00    +0.045 A 
ATOM     29  S   UNL     1       4.543   1.807  -0.329  0.00  0.00    -0.099 S 
ENDBRANCH  18  25
TORSDOF 2
