REMARK  Name = ZINC20599632
REMARK  6 active torsions:
REMARK  status: ('A' for Active; 'I' for Inactive)
REMARK    1  A    between atoms: C_3  and  N_13
REMARK    2  A    between atoms: C_5  and  N_7
REMARK    3  A    between atoms: C_16  and  N_19
REMARK    4  A    between atoms: N_19  and  C_20
REMARK    5  A    between atoms: C_20  and  C_21
REMARK    6  A    between atoms: C_21  and  C_22
REMARK                            x       y       z     vdW  Elec       q    Type
REMARK                         _______ _______ _______ _____ _____    ______ ____
ROOT
ATOM      1  N   UNL     1       3.582   2.131   0.011  0.00  0.00    -0.330 N 
ATOM      2  C   UNL     1       4.433   1.748  -1.122  0.00  0.00    +0.103 C 
ATOM      3  C   UNL     1       5.791   2.444  -1.000  0.00  0.00    +0.003 C 
ATOM      4  C   UNL     1       5.582   3.961  -0.985  0.00  0.00    -0.069 C 
ATOM      5  C   UNL     1       4.652   4.329   0.175  0.00  0.00    +0.003 C 
ATOM      6  C   UNL     1       3.328   3.578   0.019  0.00  0.00    +0.103 C 
ENDROOT
BRANCH   1   9
ATOM      7  C   UNL     1      -0.017   1.377  -0.006  0.00  0.00    +0.004 A 
ATOM      8  C   UNL     1       1.169   2.087   0.002  0.00  0.00    +0.023 A 
ATOM      9  C   UNL     1       2.384   1.413   0.003  0.00  0.00    +0.031 A 
ATOM     10  C   UNL     1       2.406   0.025  -0.006  0.00  0.00    +0.046 A 
ATOM     11  C   UNL     1       1.214  -0.684  -0.014  0.00  0.00    +0.040 A 
ATOM     12  C   UNL     1       0.002  -0.004  -0.014  0.00  0.00    +0.024 A 
BRANCH  11  13
ATOM     13  N   UNL     1       1.232  -2.083  -0.021  0.00  0.00    -0.254 N 
ATOM     14  C   UNL     1       2.435  -2.919  -0.149  0.00  0.00    +0.134 C 
ATOM     15  C   UNL     1       1.890  -4.360  -0.095  0.00  0.00    +0.125 C 
ATOM     16  N   UNL     1       0.437  -4.183   0.047  0.00  0.00    -0.297 N 
ATOM     17  C   UNL     1       0.155  -2.874   0.080  0.00  0.00    +0.307 C 
ATOM     18  O   UNL     1      -0.976  -2.442   0.192  0.00  0.00    -0.252 OA
ATOM     19  H   UNL     1      -0.221  -5.062   0.108  0.00  0.00    +0.150 HD
ENDBRANCH  11  13
ENDBRANCH   1   9
BRANCH   4  20
ATOM     20  N   UNL     1       6.876   4.633  -0.810  0.00  0.00    +0.381 N 
ATOM     21  H   UNL     1       6.717   5.622  -0.356  0.00  0.00    -0.086 HD
ATOM     22  H   UNL     1       7.518   4.027  -0.153  0.00  0.00    -0.086 HD
BRANCH  20  23
ATOM     23  C   UNL     1       7.556   4.810  -2.099  0.00  0.00    -0.082 C 
BRANCH  23  24
ATOM     24  C   UNL     1       8.898   5.512  -1.876  0.00  0.00    -0.016 C 
BRANCH  24  25
ATOM     25  C   UNL     1       9.606   5.697  -3.220  0.00  0.00    -0.013 C 
ATOM     26  C   UNL     1      10.031   4.326  -3.786  0.00  0.00    +0.003 C 
ATOM     27  C   UNL     1      11.400   4.599  -4.455  0.00  0.00    +0.000 C 
ATOM     28  C   UNL     1      12.061   5.607  -3.483  0.00  0.00    +0.000 C 
ATOM     29  C   UNL     1      10.897   6.511  -3.027  0.00  0.00    +0.003 C 
ENDBRANCH  24  25
ENDBRANCH  23  24
ENDBRANCH  20  23
ENDBRANCH   4  20
TORSDOF 6
