REMARK  Name = ZINC12792601
REMARK  7 active torsions:
REMARK  status: ('A' for Active; 'I' for Inactive)
REMARK    1  A    between atoms: C_1  and  C_2
REMARK    2  A    between atoms: C_2  and  C_4
REMARK    3  A    between atoms: C_2  and  O_16
REMARK    4  A    between atoms: N_6  and  C_7
REMARK    5  A    between atoms: C_10  and  C_13
REMARK    6  A    between atoms: O_16  and  C_17
REMARK    7  A    between atoms: C_17  and  C_19
REMARK                            x       y       z     vdW  Elec       q    Type
REMARK                         _______ _______ _______ _____ _____    ______ ____
ROOT
ATOM      1  C   UNL     1       0.248   1.388  -0.180  0.00  0.00    +0.062 C 
ATOM      2  C   UNL     1       0.276  -0.141  -0.112  0.00  0.00    +0.259 C 
ENDROOT
BRANCH   2   3
ATOM      3  C   UNL     1       1.035  -0.682  -1.296  0.00  0.00    +0.258 C 
ATOM      4  O   UNL     1       2.079  -1.276  -1.127  0.00  0.00    -0.271 OA
ATOM      5  N   UNL     1       0.554  -0.505  -2.543  0.00  0.00    -0.282 N 
ATOM      6  H   UNL     1      -0.311  -0.087  -2.674  0.00  0.00    +0.155 HD
BRANCH   5   7
ATOM      7  C   UNL     1       1.300  -0.925  -3.644  0.00  0.00    +0.034 A 
ATOM      8  C   UNL     1       2.071  -2.080  -3.560  0.00  0.00    +0.024 A 
ATOM      9  C   UNL     1       2.809  -2.497  -4.645  0.00  0.00    +0.015 A 
ATOM     10  C   UNL     1       2.782  -1.759  -5.832  0.00  0.00    +0.037 A 
ATOM     11  C   UNL     1       2.006  -0.599  -5.912  0.00  0.00    +0.015 A 
ATOM     12  C   UNL     1       1.267  -0.191  -4.825  0.00  0.00    +0.024 A 
BRANCH  10  13
ATOM     13  C   UNL     1       3.572  -2.203  -6.997  0.00  0.00    +0.242 C 
ATOM     14  O   UNL     1       4.247  -3.211  -6.925  0.00  0.00    -0.270 OA
ATOM     15  N   UNL     1       3.545  -1.490  -8.140  0.00  0.00    -0.325 N 
ATOM     16  H   UNL     1       3.007  -0.685  -8.197  0.00  0.00    +0.145 HD
ATOM     17  H   UNL     1       4.064  -1.781  -8.906  0.00  0.00    +0.145 HD
ENDBRANCH  10  13
ENDBRANCH   5   7
ENDBRANCH   2   3
BRANCH   2  18
ATOM     18  O   UNL     1       0.921  -0.552   1.095  0.00  0.00    -0.449 OA
BRANCH  18  19
ATOM     19  C   UNL     1       0.139  -0.722   2.178  0.00  0.00    +0.341 C 
ATOM     20  O   UNL     1      -1.057  -0.527   2.100  0.00  0.00    -0.245 OA
BRANCH  19  21
ATOM     21  C   UNL     1       0.738  -1.148   3.466  0.00  0.00    +0.073 A 
ATOM     22  C   UNL     1      -0.052  -1.437   4.541  0.00  0.00    +0.085 A 
ATOM     23  C   UNL     1       0.569  -1.854   5.797  0.00  0.00    +0.250 A 
ATOM     24  O   UNL     1      -0.135  -2.113   6.757  0.00  0.00    -0.268 OA
ATOM     25  N   UNL     1       1.904  -1.957   5.908  0.00  0.00    -0.322 N 
ATOM     26  H   UNL     1       2.291  -2.237   6.753  0.00  0.00    +0.169 HD
ATOM     27  C   UNL     1       2.736  -1.675   4.846  0.00  0.00    +0.050 A 
ATOM     28  C   UNL     1       2.196  -1.274   3.611  0.00  0.00    +0.012 A 
ATOM     29  C   UNL     1       3.047  -0.994   2.538  0.00  0.00    +0.011 A 
ATOM     30  C   UNL     1       4.399  -1.117   2.692  0.00  0.00    +0.001 A 
ATOM     31  C   UNL     1       4.936  -1.517   3.908  0.00  0.00    +0.002 A 
ATOM     32  C   UNL     1       4.117  -1.788   4.982  0.00  0.00    +0.026 A 
ENDBRANCH  19  21
ENDBRANCH  18  19
ENDBRANCH   2  18
TORSDOF 6
