REMARK  Name = ZINC39197695
REMARK  6 active torsions:
REMARK  status: ('A' for Active; 'I' for Inactive)
REMARK    1  A    between atoms: C_3  and  C_7
REMARK    2  A    between atoms: C_7  and  C_9
REMARK    3  A    between atoms: C_7  and  N_21
REMARK    4  A    between atoms: C_9  and  N_10
REMARK    5  A    between atoms: N_10  and  S_11
REMARK    6  A    between atoms: S_11  and  C_14
REMARK                            x       y       z     vdW  Elec       q    Type
REMARK                         _______ _______ _______ _____ _____    ______ ____
ROOT
ATOM      1  C   UNL     1       3.655   1.929   0.083  0.00  0.00    -0.020 C 
ENDROOT
BRANCH   1   4
ATOM      2  C   UNL     1      -0.073   1.420  -0.190  0.00  0.00    +0.020 A 
ATOM      3  C   UNL     1       1.159   2.056  -0.159  0.00  0.00    +0.005 A 
ATOM      4  C   UNL     1       2.294   1.285   0.042  0.00  0.00    -0.042 A 
ATOM      5  C   UNL     1       2.160  -0.081   0.202  0.00  0.00    +0.112 A 
ATOM      6  N   UNL     1       0.972  -0.652   0.166  0.00  0.00    -0.263 NA
ATOM      7  C   UNL     1      -0.129   0.050  -0.022  0.00  0.00    +0.111 A 
ENDBRANCH   1   4
BRANCH   1   8
ATOM      8  N   UNL     1       4.622   1.077  -0.623  0.00  0.00    +0.385 N 
ATOM      9  C   UNL     1       4.284   1.007  -2.067  0.00  0.00    -0.078 C 
ATOM     10  C   UNL     1       5.624   0.594  -2.725  0.00  0.00    -0.020 C 
ATOM     11  C   UNL     1       6.671   1.367  -1.892  0.00  0.00    -0.020 C 
ATOM     12  C   UNL     1       5.973   1.673  -0.553  0.00  0.00    -0.078 C 
ATOM     13  H   UNL     1       4.629   0.152  -0.220  0.00  0.00    -0.081 HD
ENDBRANCH   1   8
BRANCH   1  14
ATOM     14  C   UNL     1       4.094   2.101   1.539  0.00  0.00    +0.095 C 
BRANCH  14  15
ATOM     15  N   UNL     1       3.175   3.015   2.221  0.00  0.00    -0.191 NA
ATOM     16  H   UNL     1       2.581   3.581   1.704  0.00  0.00    +0.148 HD
BRANCH  15  17
ATOM     17  S   UNL     1       3.150   3.081   3.876  0.00  0.00    +0.065 S 
ATOM     18  O   UNL     1       2.188   4.066   4.229  0.00  0.00    -0.153 OA
ATOM     19  O   UNL     1       3.070   1.739   4.335  0.00  0.00    -0.153 OA
BRANCH  17  20
ATOM     20  C   UNL     1       4.717   3.698   4.396  0.00  0.00    +0.145 A 
ATOM     21  C   UNL     1       5.101   4.981   4.608  0.00  0.00    +0.058 A 
ATOM     22  C   UNL     1       6.397   5.233   5.019  0.00  0.00    +0.068 A 
ATOM     23  C   UNL     1       7.245   4.189   5.197  0.00  0.00    +0.098 A 
ATOM     24  S   UNL     1       6.206   2.796   4.787  0.00  0.00    -0.056 S 
ATOM     25 CL   UNL     1       8.906   4.203   5.700  0.00  0.00    -0.074 Cl
ATOM     26 CL   UNL     1       6.931   6.861   5.301  0.00  0.00    -0.081 Cl
ENDBRANCH  17  20
ENDBRANCH  15  17
ENDBRANCH  14  15
ENDBRANCH   1  14
TORSDOF 6
