REMARK  Name = ZINC36000165
REMARK  11 active torsions:
REMARK  status: ('A' for Active; 'I' for Inactive)
REMARK    1  A    between atoms: C_1  and  C_2
REMARK    2  A    between atoms: C_2  and  O_3
REMARK    3  A    between atoms: O_3  and  C_4
REMARK    4  A    between atoms: C_4  and  C_6
REMARK    5  A    between atoms: C_7  and  C_22
REMARK    6  A    between atoms: N_8  and  C_21
REMARK    7  A    between atoms: C_12  and  C_14
REMARK    8  A    between atoms: C_22  and  N_23
REMARK    9  A    between atoms: N_32  and  C_33
REMARK   10  A    between atoms: C_33  and  C_34
REMARK   11  A    between atoms: C_33  and  C_35
REMARK                            x       y       z     vdW  Elec       q    Type
REMARK                         _______ _______ _______ _____ _____    ______ ____
ROOT
ATOM      1  C   UNL     1      -2.455  -3.153   1.134  0.00  0.00    +0.076 C 
ATOM      2  C   UNL     1      -2.791  -4.146   0.282  0.00  0.00    +0.010 C 
ATOM      3  N   UNL     1      -3.985  -4.131  -0.381  0.00  0.00    -0.264 N 
ATOM      4  C   UNL     1      -4.897  -3.160  -0.248  0.00  0.00    +0.307 C 
ATOM      5  O   UNL     1      -5.932  -3.234  -0.881  0.00  0.00    -0.252 OA
ATOM      6  N   UNL     1      -4.705  -2.103   0.566  0.00  0.00    -0.288 N 
ATOM      7  C   UNL     1      -3.450  -2.027   1.332  0.00  0.00    +0.143 C 
ATOM      8  C   UNL     1      -4.284  -5.241  -1.290  0.00  0.00    +0.139 C 
ATOM      9  H   UNL     1      -5.379  -1.410   0.647  0.00  0.00    +0.151 HD
ENDROOT
BRANCH   7  10
ATOM     10  C   UNL     1      -2.766  -0.734   0.969  0.00  0.00    -0.022 A 
ATOM     11  C   UNL     1      -2.645  -0.366  -0.358  0.00  0.00    +0.007 A 
ATOM     12  C   UNL     1      -2.018   0.820  -0.692  0.00  0.00    +0.020 A 
ATOM     13  C   UNL     1      -1.512   1.638   0.302  0.00  0.00    +0.041 A 
ATOM     14  C   UNL     1      -1.633   1.269   1.630  0.00  0.00    +0.020 A 
ATOM     15  C   UNL     1      -2.266   0.086   1.963  0.00  0.00    +0.007 A 
ATOM     16 CL   UNL     1      -0.724   3.127  -0.117  0.00  0.00    -0.084 Cl
ENDBRANCH   7  10
BRANCH   1  17
ATOM     17  C   UNL     1      -1.220  -3.167   1.822  0.00  0.00    +0.339 C 
ATOM     18  O   UNL     1      -0.492  -4.139   1.746  0.00  0.00    -0.245 OA
BRANCH  17  19
ATOM     19  O   UNL     1      -0.848  -2.103   2.564  0.00  0.00    -0.462 OA
BRANCH  19  21
ATOM     20  C   UNL     1       0.659  -0.895   4.016  0.00  0.00    +0.048 C 
ATOM     21  C   UNL     1       0.412  -2.185   3.232  0.00  0.00    +0.229 C 
ENDBRANCH  19  21
ENDBRANCH  17  19
ENDBRANCH   1  17
BRANCH   2  22
ATOM     22  C   UNL     1      -1.833  -5.288   0.060  0.00  0.00    -0.026 C 
BRANCH  22  23
ATOM     23  N   UNL     1      -1.988  -6.273   1.138  0.00  0.00    +0.384 N 
ATOM     24  C   UNL     1      -0.888  -7.232   1.047  0.00  0.00    -0.077 C 
ATOM     25  C   UNL     1      -0.577  -7.766   2.428  0.00  0.00    +0.000 C 
ATOM     26  C   UNL     1      -1.360  -9.071   2.661  0.00  0.00    +0.107 C 
ATOM     27  N   UNL     1      -2.725  -8.977   2.105  0.00  0.00    -0.287 N 
ATOM     28  C   UNL     1      -3.537  -7.785   2.239  0.00  0.00    +0.091 C 
ATOM     29  C   UNL     1      -3.279  -6.838   1.044  0.00  0.00    -0.059 C 
ATOM     30  C   UNL     1      -3.234 -10.039   1.450  0.00  0.00    +0.302 C 
ATOM     31  O   UNL     1      -2.609 -11.081   1.402  0.00  0.00    -0.253 OA
ATOM     32  N   UNL     1      -4.436  -9.946   0.847  0.00  0.00    -0.297 N 
ATOM     33  H   UNL     1      -4.902  -9.096   0.821  0.00  0.00    +0.150 HD
ATOM     34  H   UNL     1      -1.914  -5.791   2.021  0.00  0.00    -0.081 HD
BRANCH  32  35
ATOM     35  C   UNL     1      -5.040 -11.130   0.230  0.00  0.00    +0.068 C 
ATOM     36  C   UNL     1      -6.560 -10.963   0.185  0.00  0.00    +0.027 C 
ATOM     37  C   UNL     1      -4.502 -11.293  -1.194  0.00  0.00    +0.027 C 
ENDBRANCH  32  35
ENDBRANCH  22  23
ENDBRANCH   2  22
TORSDOF 7
