REMARK  Name = ZINC04762715
REMARK  12 active torsions:
REMARK  status: ('A' for Active; 'I' for Inactive)
REMARK    1  A    between atoms: C_1  and  C_2
REMARK    2  A    between atoms: C_7  and  C_19
REMARK    3  A    between atoms: C_9  and  C_13
REMARK    4  A    between atoms: C_10  and  C_12
REMARK    5  A    between atoms: C_13  and  O_15
REMARK    6  A    between atoms: O_15  and  C_16
REMARK    7  A    between atoms: C_16  and  C_17
REMARK    8  A    between atoms: C_16  and  C_18
REMARK    9  A    between atoms: C_22  and  C_25
REMARK   10  A    between atoms: C_31  and  C_33
REMARK   11  A    between atoms: C_33  and  O_35
REMARK   12  A    between atoms: O_35  and  C_36
REMARK                            x       y       z     vdW  Elec       q    Type
REMARK                         _______ _______ _______ _____ _____    ______ ____
ROOT
ATOM      1  C   UNL     1      -0.162  -2.220   1.210  0.00  0.00    +0.009 C 
ATOM      2  C   UNL     1      -0.947  -1.958  -0.077  0.00  0.00    +0.013 C 
ATOM      3  C   UNL     1      -2.230  -2.793  -0.076  0.00  0.00    +0.055 C 
ATOM      4  C   UNL     1      -3.028  -2.496  -1.322  0.00  0.00    +0.016 C 
ATOM      5  C   UNL     1      -2.979  -1.280  -1.905  0.00  0.00    +0.025 C 
ATOM      6  C   UNL     1      -3.780  -0.990  -3.150  0.00  0.00    +0.092 C 
ATOM      7  C   UNL     1      -4.867  -2.007  -3.340  0.00  0.00    +0.065 C 
ATOM      8  C   UNL     1      -4.837  -3.188  -2.700  0.00  0.00    +0.016 C 
ATOM      9  N   UNL     1      -3.810  -3.489  -1.849  0.00  0.00    -0.321 N 
ATOM     10  C   UNL     1      -5.941  -4.189  -2.922  0.00  0.00    +0.061 C 
ATOM     11  C   UNL     1      -2.179  -0.252  -1.375  0.00  0.00    +0.176 C 
ATOM     12  O   UNL     1      -2.171   0.836  -1.915  0.00  0.00    -0.291 OA
ATOM     13  C   UNL     1      -1.333  -0.477  -0.152  0.00  0.00    +0.171 C 
ATOM     14  H   UNL     1      -3.615  -4.539  -1.588  0.00  0.00    +0.152 HD
ENDROOT
BRANCH   6  15
ATOM     15  C   UNL     1      -2.863  -1.016  -4.345  0.00  0.00    -0.035 A 
ATOM     16  C   UNL     1      -2.159  -2.165  -4.651  0.00  0.00    +0.005 A 
ATOM     17  C   UNL     1      -1.321  -2.191  -5.750  0.00  0.00    +0.012 A 
ATOM     18  C   UNL     1      -1.181  -1.064  -6.539  0.00  0.00    +0.055 A 
ATOM     19  C   UNL     1      -1.882   0.087  -6.230  0.00  0.00    +0.012 A 
ATOM     20  C   UNL     1      -2.723   0.111  -5.133  0.00  0.00    +0.005 A 
BRANCH  18  21
ATOM     21  C   UNL     1      -0.265  -1.091  -7.735  0.00  0.00    +0.417 C 
ATOM     22  F   UNL     1       1.019  -0.693  -7.348  0.00  0.00    -0.166 F 
ATOM     23  F   UNL     1      -0.214  -2.388  -8.255  0.00  0.00    -0.166 F 
ATOM     24  F   UNL     1      -0.750  -0.215  -8.713  0.00  0.00    -0.166 F 
ENDBRANCH  18  21
ENDBRANCH   6  15
BRANCH   7  25
ATOM     25  C   UNL     1      -5.944  -1.716  -4.209  0.00  0.00    +0.338 C 
ATOM     26  O   UNL     1      -6.776  -2.570  -4.454  0.00  0.00    -0.245 OA
BRANCH  25  27
ATOM     27  O   UNL     1      -6.051  -0.492  -4.766  0.00  0.00    -0.459 OA
BRANCH  27  28
ATOM     28  C   UNL     1      -7.164  -0.268  -5.633  0.00  0.00    +0.171 C 
ATOM     29  C   UNL     1      -8.349   0.255  -4.819  0.00  0.00    +0.052 C 
ATOM     30  C   UNL     1      -6.782   0.763  -6.697  0.00  0.00    +0.052 C 
ENDBRANCH  27  28
ENDBRANCH  25  27
ENDBRANCH   7  25
BRANCH  13  31
ATOM     31  C   UNL     1      -0.086   0.365  -0.240  0.00  0.00    +0.318 C 
ATOM     32  O   UNL     1       1.001  -0.163  -0.243  0.00  0.00    -0.250 OA
BRANCH  31  33
ATOM     33  O   UNL     1      -0.182   1.702  -0.315  0.00  0.00    -0.467 OA
ATOM     34  C   UNL     1       1.060   2.449  -0.398  0.00  0.00    +0.280 C 
ENDBRANCH  31  33
ENDBRANCH  13  31
TORSDOF 7
