REMARK  Name = ZINC39495462
REMARK  11 active torsions:
REMARK  status: ('A' for Active; 'I' for Inactive)
REMARK    1  A    between atoms: C_4  and  C_7
REMARK    2  A    between atoms: C_7  and  C_8
REMARK    3  A    between atoms: C_9  and  C_31
REMARK    4  A    between atoms: C_12  and  C_24
REMARK    5  A    between atoms: C_13  and  S_14
REMARK    6  A    between atoms: S_14  and  O_17
REMARK    7  A    between atoms: O_17  and  C_18
REMARK    8  A    between atoms: C_29  and  O_30
REMARK    9  A    between atoms: C_31  and  C_33
REMARK   10  A    between atoms: C_31  and  N_36
REMARK   11  A    between atoms: C_33  and  C_34
REMARK                            x       y       z     vdW  Elec       q    Type
REMARK                         _______ _______ _______ _____ _____    ______ ____
ROOT
ATOM      1  C   UNL     1       3.308  -0.773   1.810  0.00  0.00    -0.009 A 
ATOM      2  C   UNL     1       4.330   0.158   1.769  0.00  0.00    -0.021 A 
ATOM      3  C   UNL     1       5.397   0.062   2.644  0.00  0.00    +0.006 A 
ATOM      4  C   UNL     1       5.447  -0.966   3.564  0.00  0.00    +0.011 A 
ATOM      5  C   UNL     1       4.421  -1.907   3.610  0.00  0.00    +0.014 A 
ATOM      6  C   UNL     1       3.346  -1.802   2.730  0.00  0.00    +0.140 A 
ENDROOT
BRANCH   5   7
ATOM      7  C   UNL     1       4.470  -3.014   4.596  0.00  0.00    +0.025 A 
ATOM      8  C   UNL     1       3.630  -3.000   5.707  0.00  0.00    +0.012 A 
ATOM      9  C   UNL     1       3.679  -4.032   6.622  0.00  0.00    +0.001 A 
ATOM     10  C   UNL     1       4.561  -5.083   6.439  0.00  0.00    +0.004 A 
ATOM     11  C   UNL     1       5.399  -5.107   5.341  0.00  0.00    +0.046 A 
ATOM     12  C   UNL     1       5.356  -4.080   4.412  0.00  0.00    +0.125 A 
BRANCH  12  13
ATOM     13  O   UNL     1       6.175  -4.106   3.328  0.00  0.00    -0.506 OA
ATOM     14  H   UNL     1       7.031  -3.679   3.472  0.00  0.00    +0.292 HD
ENDBRANCH  12  13
ENDBRANCH   5   7
BRANCH   6  15
ATOM     15  S   UNL     1       2.040  -2.984   2.785  0.00  0.00    +0.152 S 
ATOM     16  O   UNL     1       2.649  -4.253   2.983  0.00  0.00    -0.131 OA
ATOM     17  O   UNL     1       1.059  -2.463   3.672  0.00  0.00    -0.131 OA
BRANCH  15  18
ATOM     18  O   UNL     1       1.404  -3.017   1.403  0.00  0.00    -0.342 OA
BRANCH  18  19
ATOM     19  C   UNL     1       2.045  -3.824   0.518  0.00  0.00    +0.157 A 
ATOM     20  C   UNL     1       3.152  -3.355  -0.174  0.00  0.00    +0.048 A 
ATOM     21  C   UNL     1       3.803  -4.178  -1.073  0.00  0.00    +0.004 A 
ATOM     22  C   UNL     1       3.352  -5.468  -1.282  0.00  0.00    +0.000 A 
ATOM     23  C   UNL     1       2.249  -5.938  -0.593  0.00  0.00    +0.004 A 
ATOM     24  C   UNL     1       1.599  -5.121   0.311  0.00  0.00    +0.048 A 
ENDBRANCH  18  19
ENDBRANCH  15  18
ENDBRANCH   6  15
BRANCH   1  25
ATOM     25  C   UNL     1       2.149  -0.661   0.854  0.00  0.00    +0.072 C 
BRANCH  25  29
ATOM     26  C   UNL     1      -1.091   1.357   2.770  0.00  0.00    +0.000 A 
ATOM     27  C   UNL     1      -0.056   2.085   2.213  0.00  0.00    +0.000 A 
ATOM     28  C   UNL     1       0.993   1.432   1.593  0.00  0.00    +0.004 A 
ATOM     29  C   UNL     1       1.006   0.051   1.531  0.00  0.00    -0.043 A 
ATOM     30  C   UNL     1      -0.028  -0.677   2.089  0.00  0.00    +0.004 A 
ATOM     31  C   UNL     1      -1.077  -0.023   2.708  0.00  0.00    +0.000 A 
ENDBRANCH  25  29
ENDBRANCH   1  25
BRANCH   2  32
ATOM     32  C   UNL     1       4.281   1.282   0.766  0.00  0.00    +0.110 C 
BRANCH  32  33
ATOM     33  N   UNL     1       5.569   1.376   0.074  0.00  0.00    -0.311 N 
ATOM     34  C   UNL     1       5.633   1.918  -1.158  0.00  0.00    +0.326 C 
ATOM     35  O   UNL     1       4.626   2.328  -1.694  0.00  0.00    -0.280 OA
ATOM     36  H   UNL     1       6.375   1.048   0.502  0.00  0.00    +0.149 HD
ENDBRANCH  32  33
BRANCH  32  37
ATOM     37  C   UNL     1       3.994   2.599   1.490  0.00  0.00    +0.097 C 
BRANCH  37  38
ATOM     38  C   UNL     1       3.803   3.698   0.477  0.00  0.00    +0.225 C 
ATOM     39  O   UNL     1       2.795   4.363   0.489  0.00  0.00    -0.301 OA
ENDBRANCH  37  38
ENDBRANCH  32  37
ENDBRANCH   2  32
TORSDOF 11
