REMARK  Name = ZINC32747493
REMARK  3 active torsions:
REMARK  status: ('A' for Active; 'I' for Inactive)
REMARK    1  A    between atoms: C_11  and  C_13
REMARK    2  A    between atoms: C_13  and  C_14
REMARK    3  A    between atoms: C_17  and  C_19
REMARK                            x       y       z     vdW  Elec       q    Type
REMARK                         _______ _______ _______ _____ _____    ______ ____
ROOT
ATOM      1  C   UNL     1      -2.876   2.921  -4.442  0.00  0.00    +0.002 A 
ATOM      2  C   UNL     1      -2.254   3.081  -5.666  0.00  0.00    +0.001 A 
ATOM      3  C   UNL     1      -0.949   2.663  -5.835  0.00  0.00    +0.016 A 
ATOM      4  C   UNL     1      -0.258   2.083  -4.779  0.00  0.00    +0.029 A 
ATOM      5  C   UNL     1      -0.878   1.925  -3.543  0.00  0.00    +0.050 A 
ATOM      6  C   UNL     1      -2.196   2.348  -3.386  0.00  0.00    +0.024 A 
ATOM      7  N   UNL     1      -0.234   1.358  -2.441  0.00  0.00    -0.269 N 
ATOM      8  C   UNL     1       0.967   0.536  -2.556  0.00  0.00    +0.124 C 
ATOM      9  C   UNL     1       2.029   1.313  -3.340  0.00  0.00    +0.094 C 
ATOM     10  S   UNL     1       1.406   1.550  -5.031  0.00  0.00    -0.122 S 
ATOM     11  C   UNL     1      -0.742   1.585  -1.213  0.00  0.00    +0.226 C 
ATOM     12  O   UNL     1      -1.751   2.246  -1.087  0.00  0.00    -0.275 OA
ENDROOT
BRANCH  11  13
ATOM     13  C   UNL     1      -0.055   1.018   0.003  0.00  0.00    +0.152 C 
BRANCH  13  14
ATOM     14  C   UNL     1      -0.743   1.518   1.247  0.00  0.00    +0.058 A 
ATOM     15  C   UNL     1      -1.214   0.636   2.165  0.00  0.00    +0.071 A 
ATOM     16  S   UNL     1      -1.901   1.756   3.379  0.00  0.00    -0.075 S 
ATOM     17  C   UNL     1      -1.493   3.275   2.529  0.00  0.00    +0.109 A 
ATOM     18  N   UNL     1      -0.892   2.809   1.442  0.00  0.00    -0.243 NA
BRANCH  17  19
ATOM     19  C   UNL     1      -1.756   4.673   2.929  0.00  0.00    +0.014 A 
ATOM     20  C   UNL     1      -2.411   4.963   4.124  0.00  0.00    +0.018 A 
ATOM     21  C   UNL     1      -2.632   6.254   4.455  0.00  0.00    +0.046 A 
ATOM     22  S   UNL     1      -1.917   7.128   3.074  0.00  0.00    -0.104 S 
ATOM     23  C   UNL     1      -1.357   5.716   2.136  0.00  0.00    +0.055 A 
ENDBRANCH  17  19
ENDBRANCH  13  14
ENDBRANCH  11  13
TORSDOF 3
