REMARK  Name = ZINC33070771
REMARK  7 active torsions:
REMARK  status: ('A' for Active; 'I' for Inactive)
REMARK    1  A    between atoms: C_1  and  C_2
REMARK    2  A    between atoms: C_15  and  C_18
REMARK    3  A    between atoms: N_20  and  C_21
REMARK    4  A    between atoms: C_21  and  C_23
REMARK    5  A    between atoms: C_21  and  C_24
REMARK    6  A    between atoms: C_24  and  C_25
REMARK    7  A    between atoms: C_25  and  C_26
REMARK                            x       y       z     vdW  Elec       q    Type
REMARK                         _______ _______ _______ _____ _____    ______ ____
ROOT
ATOM      1  C   UNL     1      17.229   4.723   1.261  0.00  0.00    +0.044 C 
ATOM      2  C   UNL     1      16.131   3.718   1.497  0.00  0.00    -0.048 A 
ATOM      3  C   UNL     1      16.010   3.108   2.737  0.00  0.00    +0.005 A 
ATOM      4  C   UNL     1      15.013   2.188   2.969  0.00  0.00    +0.028 A 
ATOM      5  C   UNL     1      14.115   1.866   1.948  0.00  0.00    +0.065 A 
ATOM      6  C   UNL     1      14.242   2.486   0.694  0.00  0.00    +0.066 A 
ATOM      7  C   UNL     1      15.253   3.411   0.478  0.00  0.00    +0.031 A 
ATOM      8  N   UNL     1      13.226   1.972  -0.095  0.00  0.00    -0.327 N 
ATOM      9  H   UNL     1      13.115   2.308  -1.136  0.00  0.00    +0.169 HD
ATOM     10  C   UNL     1      12.530   1.081   0.671  0.00  0.00    +0.174 A 
ATOM     11  N   UNL     1      13.050   1.025   1.872  0.00  0.00    -0.327 N 
ATOM     12  N   UNL     1      11.438   0.354   0.246  0.00  0.00    -0.303 N 
ATOM     13  C   UNL     1      10.930  -0.508   1.320  0.00  0.00    +0.108 C 
ATOM     14  C   UNL     1       9.816  -1.403   0.773  0.00  0.00    +0.032 C 
ATOM     15  C   UNL     1       8.689  -0.527   0.220  0.00  0.00    +0.078 C 
ATOM     16  C   UNL     1       9.254   0.397  -0.863  0.00  0.00    +0.032 C 
ATOM     17  C   UNL     1      10.385   1.239  -0.269  0.00  0.00    +0.108 C 
ATOM     18  H   UNL     1      12.755   0.431   2.749  0.00  0.00    +0.169 HD
ENDROOT
BRANCH  15  19
ATOM     19  C   UNL     1       7.615  -1.402  -0.375  0.00  0.00    +0.216 C 
ATOM     20  O   UNL     1       7.738  -2.608  -0.357  0.00  0.00    -0.276 OA
ATOM     21  N   UNL     1       6.520  -0.844  -0.927  0.00  0.00    -0.312 N 
ATOM     22  H   UNL     1       6.409   0.250  -0.944  0.00  0.00    +0.149 HD
BRANCH  21  23
ATOM     23  C   UNL     1       5.477  -1.695  -1.505  0.00  0.00    +0.070 C 
ATOM     24  C   UNL     1       5.846  -2.045  -2.948  0.00  0.00    +0.028 C 
BRANCH  23  25
ATOM     25  C   UNL     1       4.142  -0.948  -1.488  0.00  0.00    +0.026 C 
BRANCH  25  26
ATOM     26  C   UNL     1       3.711  -0.707  -0.039  0.00  0.00    +0.037 C 
BRANCH  26  27
ATOM     27  C   UNL     1       2.396   0.029  -0.022  0.00  0.00    -0.047 A 
ATOM     28  C   UNL     1       1.208  -0.679  -0.014  0.00  0.00    +0.003 A 
ATOM     29  C   UNL     1       0.002  -0.004   0.002  0.00  0.00    +0.000 A 
ATOM     30  C   UNL     1      -0.017   1.378   0.010  0.00  0.00    +0.000 A 
ATOM     31  C   UNL     1       1.171   2.086   0.002  0.00  0.00    +0.000 A 
ATOM     32  C   UNL     1       2.377   1.411  -0.014  0.00  0.00    +0.003 A 
ENDBRANCH  26  27
ENDBRANCH  25  26
ENDBRANCH  23  25
ENDBRANCH  21  23
ENDBRANCH  15  19
TORSDOF 5
