REMARK  Name = ZINC13495940
REMARK  13 active torsions:
REMARK  status: ('A' for Active; 'I' for Inactive)
REMARK    1  A    between atoms: C_1  and  C_2
REMARK    2  A    between atoms: C_2  and  C_3
REMARK    3  A    between atoms: C_3  and  C_5
REMARK    4  A    between atoms: C_3  and  N_75
REMARK    5  A    between atoms: N_9  and  C_10
REMARK    6  A    between atoms: C_15  and  C_16
REMARK    7  A    between atoms: C_15  and  N_75
REMARK    8  A    between atoms: C_16  and  C_17
REMARK    9  A    between atoms: C_21  and  C_23
REMARK   10  A    between atoms: C_24  and  C_25
REMARK   11  A    between atoms: C_24  and  N_75
REMARK   12  A    between atoms: C_29  and  C_38
REMARK   13  A    between atoms: C_31  and  C_37
REMARK                            x       y       z     vdW  Elec       q    Type
REMARK                         _______ _______ _______ _____ _____    ______ ____
ROOT
ATOM      1  N   UNL     1       1.009   3.982   1.480  0.00  0.00    +0.389 N 
ATOM      2  H   UNL     1       1.022   3.795   2.489  0.00  0.00    -0.080 HD
ENDROOT
BRANCH   1   3
ATOM      3  C   UNL     1       1.993   3.103   0.815  0.00  0.00    +0.003 C 
BRANCH   3   4
ATOM      4  C   UNL     1       2.139   3.476  -0.638  0.00  0.00    +0.138 A 
ATOM      5  N   UNL     1       2.337   4.678  -1.121  0.00  0.00    -0.115 NA
ATOM      6  N   UNL     1       2.407   4.584  -2.404  0.00  0.00    -0.023 NA
ATOM      7  N   UNL     1       2.258   3.353  -2.752  0.00  0.00    -0.044 NA
ATOM      8  N   UNL     1       2.091   2.639  -1.691  0.00  0.00    -0.228 N 
BRANCH   8   9
ATOM      9  C   UNL     1       1.887   1.189  -1.641  0.00  0.00    +0.111 C 
ATOM     10  C   UNL     1       3.072   0.465  -2.313  0.00  0.00    +0.027 C 
ATOM     11  C   UNL     1       2.420  -0.736  -3.042  0.00  0.00    +0.002 C 
ATOM     12  C   UNL     1       1.092  -0.137  -3.568  0.00  0.00    +0.002 C 
ATOM     13  C   UNL     1       0.628   0.806  -2.439  0.00  0.00    +0.027 C 
ENDBRANCH   8   9
ENDBRANCH   3   4
BRANCH   3  15
ATOM     14  C   UNL     1       3.230   2.747   2.957  0.00  0.00    +0.002 C 
ATOM     15  C   UNL     1       3.344   3.254   1.518  0.00  0.00    -0.011 C 
ENDBRANCH   3  15
ENDBRANCH   1   3
BRANCH   1  16
ATOM     16  C   UNL     1      -0.347   3.708   0.958  0.00  0.00    -0.073 C 
BRANCH  16  17
ATOM     17  C   UNL     1      -0.806   2.343   1.473  0.00  0.00    +0.016 C 
BRANCH  17  18
ATOM     18  C   UNL     1      -2.244   2.118   1.085  0.00  0.00    -0.049 A 
ATOM     19  C   UNL     1      -3.261   2.619   1.877  0.00  0.00    +0.003 A 
ATOM     20  C   UNL     1      -4.580   2.416   1.519  0.00  0.00    +0.001 A 
ATOM     21  C   UNL     1      -4.884   1.704   0.374  0.00  0.00    +0.003 A 
ATOM     22  C   UNL     1      -3.868   1.198  -0.415  0.00  0.00    -0.050 A 
ATOM     23  C   UNL     1      -2.548   1.405  -0.059  0.00  0.00    +0.007 A 
ATOM     24  C   UNL     1      -4.199   0.421  -1.663  0.00  0.00    +0.044 C 
ENDBRANCH  17  18
ENDBRANCH  16  17
ENDBRANCH   1  16
BRANCH   1  25
ATOM     25  C   UNL     1       1.361   5.399   1.251  0.00  0.00    -0.037 C 
BRANCH  25  26
ATOM     26  C   UNL     1       0.593   6.253   2.226  0.00  0.00    +0.001 A 
ATOM     27  C   UNL     1       1.156   6.599   3.410  0.00  0.00    +0.017 A 
ATOM     28  C   UNL     1       0.383   7.429   4.336  0.00  0.00    -0.001 A 
ATOM     29  C   UNL     1       0.911   7.819   5.572  0.00  0.00    +0.013 A 
ATOM     30  C   UNL     1       0.164   8.594   6.413  0.00  0.00    -0.050 A 
ATOM     31  C   UNL     1      -1.114   8.999   6.052  0.00  0.00    +0.008 A 
ATOM     32  C   UNL     1      -1.653   8.628   4.840  0.00  0.00    -0.026 A 
ATOM     33  C   UNL     1      -0.912   7.838   3.967  0.00  0.00    +0.052 A 
ATOM     34  N   UNL     1      -1.427   7.453   2.748  0.00  0.00    -0.322 N 
ATOM     35  H   UNL     1      -2.320   7.735   2.495  0.00  0.00    +0.169 HD
ATOM     36  C   UNL     1      -0.708   6.694   1.902  0.00  0.00    +0.251 A 
ATOM     37  O   UNL     1      -1.193   6.376   0.830  0.00  0.00    -0.268 OA
ATOM     38  C   UNL     1      -3.042   9.075   4.461  0.00  0.00    +0.046 C 
ATOM     39  C   UNL     1       0.733   9.013   7.744  0.00  0.00    +0.044 C 
ENDBRANCH  25  26
ENDBRANCH   1  25
TORSDOF 9
