REMARK  Name = ZINC09341592
REMARK  7 active torsions:
REMARK  status: ('A' for Active; 'I' for Inactive)
REMARK    1  A    between atoms: C_1  and  C_2
REMARK    2  A    between atoms: C_4  and  C_24
REMARK    3  A    between atoms: C_5  and  O_9
REMARK    4  A    between atoms: C_6  and  C_8
REMARK    5  A    between atoms: O_9  and  C_10
REMARK    6  A    between atoms: C_10  and  C_11
REMARK    7  A    between atoms: N_15  and  C_16
REMARK                            x       y       z     vdW  Elec       q    Type
REMARK                         _______ _______ _______ _____ _____    ______ ____
ROOT
ATOM      1  C   UNL     1       2.023   0.585  -0.270  0.00  0.00    +0.194 A 
ATOM      2  N   UNL     1       1.196  -0.422  -0.172  0.00  0.00    -0.109 NA
ATOM      3  N   UNL     1       0.022  -0.014   0.152  0.00  0.00    -0.023 NA
ATOM      4  N   UNL     1       0.017   1.269   0.282  0.00  0.00    -0.039 NA
ATOM      5  N   UNL     1       1.325   1.707   0.011  0.00  0.00    -0.194 N 
ENDROOT
BRANCH   5   6
ATOM      6  C   UNL     1       1.802   3.026   0.027  0.00  0.00    +0.071 A 
ATOM      7  C   UNL     1       3.023   3.316   0.622  0.00  0.00    +0.029 A 
ATOM      8  C   UNL     1       3.492   4.615   0.637  0.00  0.00    +0.023 A 
ATOM      9  C   UNL     1       2.746   5.628   0.060  0.00  0.00    +0.059 A 
ATOM     10  C   UNL     1       1.528   5.341  -0.534  0.00  0.00    +0.061 A 
ATOM     11  C   UNL     1       1.057   4.042  -0.555  0.00  0.00    +0.049 A 
ATOM     12 CL   UNL     1       0.595   6.614  -1.257  0.00  0.00    -0.082 Cl
ATOM     13 CL   UNL     1       3.337   7.260   0.081  0.00  0.00    -0.082 Cl
ENDBRANCH   5   6
BRANCH   1  14
ATOM     14  C   UNL     1       3.485   0.510  -0.630  0.00  0.00    +0.307 C 
BRANCH  14  15
ATOM     15  O   UNL     1       3.625   0.486  -2.052  0.00  0.00    -0.484 OA
BRANCH  15  20
ATOM     16  C   UNL     1       8.864   0.205  -4.101  0.00  0.00    +0.044 C 
ATOM     17  C   UNL     1       7.462   0.280  -3.553  0.00  0.00    -0.050 A 
ATOM     18  C   UNL     1       6.761  -0.882  -3.288  0.00  0.00    +0.010 A 
ATOM     19  C   UNL     1       5.476  -0.816  -2.785  0.00  0.00    -0.008 A 
ATOM     20  C   UNL     1       4.889   0.418  -2.546  0.00  0.00    +0.127 A 
ATOM     21  C   UNL     1       5.592   1.583  -2.819  0.00  0.00    -0.008 A 
ATOM     22  C   UNL     1       6.879   1.511  -3.315  0.00  0.00    +0.010 A 
ATOM     23  C   UNL     1       4.954   2.925  -2.567  0.00  0.00    +0.047 C 
ATOM     24  C   UNL     1       4.713  -2.083  -2.495  0.00  0.00    +0.047 C 
ENDBRANCH  15  20
ENDBRANCH  14  15
ENDBRANCH   1  14
TORSDOF 4
