REMARK  Name = ZINC04222361
REMARK  12 active torsions:
REMARK  status: ('A' for Active; 'I' for Inactive)
REMARK    1  A    between atoms: C_1  and  C_2
REMARK    2  A    between atoms: C_5  and  O_38
REMARK    3  A    between atoms: C_7  and  C_35
REMARK    4  A    between atoms: C_7  and  C_36
REMARK    5  A    between atoms: C_17  and  C_19
REMARK    6  A    between atoms: C_19  and  C_20
REMARK    7  A    between atoms: C_19  and  C_21
REMARK    8  A    between atoms: C_19  and  C_22
REMARK    9  A    between atoms: C_23  and  C_25
REMARK   10  A    between atoms: C_25  and  C_26
REMARK   11  A    between atoms: N_28  and  C_29
REMARK   12  A    between atoms: C_36  and  O_37
REMARK                            x       y       z     vdW  Elec       q    Type
REMARK                         _______ _______ _______ _____ _____    ______ ____
ROOT
ATOM      1  C   UNL     1       1.085   1.945  -2.448  0.00  0.00    +0.012 C 
ATOM      2  C   UNL     1       1.985   1.517  -1.286  0.00  0.00    -0.019 C 
ATOM      3  C   UNL     1       1.411   2.049   0.031  0.00  0.00    +0.010 C 
ATOM      4  C   UNL     1       0.034   1.444   0.294  0.00  0.00    +0.032 C 
ATOM      5  C   UNL     1       0.175  -0.078   0.398  0.00  0.00    +0.123 C 
ATOM      6  C   UNL     1       0.702  -0.613  -0.932  0.00  0.00    +0.021 C 
ATOM      7  C   UNL     1       2.075  -0.010  -1.243  0.00  0.00    +0.011 C 
ATOM      8  C   UNL     1       2.495  -0.526  -2.634  0.00  0.00    +0.049 C 
ATOM      9  C   UNL     1       3.624   0.287  -3.139  0.00  0.00    +0.015 A 
ATOM     10  C   UNL     1       4.070   1.477  -2.659  0.00  0.00    +0.058 A 
ATOM     11  N   UNL     1       5.114   2.007  -3.292  0.00  0.00    -0.229 NA
ATOM     12  C   UNL     1       5.686   1.416  -4.321  0.00  0.00    +0.165 A 
ATOM     13  S   UNL     1       4.731  -0.028  -4.488  0.00  0.00    -0.057 S 
ATOM     14  N   UNL     1       6.772   1.837  -5.078  0.00  0.00    -0.264 N 
ATOM     15  C   UNL     1       7.212   1.082  -6.104  0.00  0.00    +0.224 C 
ATOM     16  O   UNL     1       6.660   0.034  -6.365  0.00  0.00    -0.275 OA
ATOM     17  C   UNL     1       3.382   2.125  -1.467  0.00  0.00    +0.054 C 
ATOM     18  C   UNL     1       0.824  -2.136  -0.852  0.00  0.00    +0.016 C 
ATOM     19  H   UNL     1       7.213   2.675  -4.868  0.00  0.00    +0.157 HD
ENDROOT
BRANCH  15  20
ATOM     20  C   UNL     1       8.390   1.539  -6.925  0.00  0.00    +0.039 C 
ATOM     21  C   UNL     1       8.682   0.507  -8.016  0.00  0.00    +0.020 C 
ATOM     22  C   UNL     1       8.069   2.888  -7.571  0.00  0.00    +0.020 C 
ATOM     23  C   UNL     1       9.616   1.685  -6.021  0.00  0.00    +0.020 C 
ENDBRANCH  15  20
BRANCH   5  24
ATOM     24  O   UNL     1      -1.099  -0.660   0.677  0.00  0.00    -0.391 OA
ATOM     25  H   UNL     1      -1.498  -0.354   1.504  0.00  0.00    +0.210 HD
ENDBRANCH   5  24
BRANCH  17  26
ATOM     26  C   UNL     1       3.256   3.631  -1.709  0.00  0.00    +0.106 C 
BRANCH  26  27
ATOM     27  C   UNL     1       4.625   4.259  -1.689  0.00  0.00    +0.214 C 
ATOM     28  O   UNL     1       5.606   3.571  -1.501  0.00  0.00    -0.276 OA
ATOM     29  N   UNL     1       4.760   5.587  -1.881  0.00  0.00    -0.312 N 
ATOM     30  H   UNL     1       3.975   6.137  -2.032  0.00  0.00    +0.149 HD
BRANCH  29  31
ATOM     31  C   UNL     1       6.091   6.198  -1.863  0.00  0.00    +0.073 C 
ATOM     32  C   UNL     1       6.486   6.515  -0.419  0.00  0.00    +0.022 C 
ATOM     33  C   UNL     1       7.877   7.153  -0.399  0.00  0.00    +0.002 C 
ATOM     34  C   UNL     1       7.856   8.446  -1.218  0.00  0.00    +0.000 C 
ATOM     35  C   UNL     1       7.460   8.129  -2.662  0.00  0.00    +0.002 C 
ATOM     36  C   UNL     1       6.070   7.490  -2.681  0.00  0.00    +0.022 C 
ENDBRANCH  29  31
ENDBRANCH  26  27
ENDBRANCH  17  26
BRANCH   6  37
ATOM     37  C   UNL     1      -0.275  -0.242  -2.050  0.00  0.00    +0.165 C 
BRANCH  37  38
ATOM     38  O   UNL     1      -1.504  -0.946  -1.862  0.00  0.00    -0.394 OA
ATOM     39  H   UNL     1      -2.172  -0.758  -2.536  0.00  0.00    +0.209 HD
ENDBRANCH  37  38
ENDBRANCH   6  37
TORSDOF 7
