REMARK  Name = ZINC20860479
REMARK  7 active torsions:
REMARK  status: ('A' for Active; 'I' for Inactive)
REMARK    1  A    between atoms: C_1  and  C_2
REMARK    2  A    between atoms: C_5  and  C_8
REMARK    3  A    between atoms: C_8  and  N_9
REMARK    4  A    between atoms: C_10  and  C_12
REMARK    5  A    between atoms: C_17  and  S_25
REMARK    6  A    between atoms: C_22  and  C_24
REMARK    7  A    between atoms: S_25  and  N_28
REMARK                            x       y       z     vdW  Elec       q    Type
REMARK                         _______ _______ _______ _____ _____    ______ ____
ROOT
ATOM      1  C   UNL     1      -0.424  -2.379   0.005  0.00  0.00    +0.171 C 
ATOM      2  C   UNL     1      -1.126  -1.011   0.013  0.00  0.00    +0.069 C 
ATOM      3  C   UNL     1       0.002  -0.004  -0.008  0.00  0.00    -0.022 A 
ATOM      4  C   UNL     1      -0.017   1.378  -0.011  0.00  0.00    +0.034 A 
ATOM      5  C   UNL     1       1.168   2.088  -0.032  0.00  0.00    +0.106 A 
ATOM      6  C   UNL     1       2.375   1.413  -0.049  0.00  0.00    +0.030 A 
ATOM      7  C   UNL     1       2.399   0.035  -0.047  0.00  0.00    +0.026 A 
ATOM      8  C   UNL     1       1.205  -0.690  -0.026  0.00  0.00    +0.040 A 
ATOM      9  N   UNL     1       1.009  -2.075  -0.019  0.00  0.00    -0.259 N 
ATOM     10  C   UNL     1       1.994  -2.995  -0.034  0.00  0.00    +0.217 C 
ATOM     11  O   UNL     1       3.151  -2.643  -0.135  0.00  0.00    -0.276 OA
ATOM     12  C   UNL     1       1.659  -4.460   0.075  0.00  0.00    +0.109 C 
ENDROOT
BRANCH   1  14
ATOM     13  N   UNL     1      -1.923  -3.854   1.306  0.00  0.00    -0.310 N 
ATOM     14  C   UNL     1      -0.773  -3.155   1.249  0.00  0.00    +0.235 C 
ATOM     15  O   UNL     1      -0.018  -3.151   2.198  0.00  0.00    -0.274 OA
ATOM     16  H   UNL     1      -2.608  -3.858   0.445  0.00  0.00    +0.149 HD
BRANCH  13  17
ATOM     17  C   UNL     1      -2.263  -4.609   2.515  0.00  0.00    +0.139 C 
BRANCH  17  22
ATOM     18  C   UNL     1      -7.352  -7.244   1.776  0.00  0.00    +0.044 C 
ATOM     19  C   UNL     1      -6.025  -6.557   1.970  0.00  0.00    -0.050 A 
ATOM     20  C   UNL     1      -4.855  -7.202   1.616  0.00  0.00    +0.003 A 
ATOM     21  C   UNL     1      -3.637  -6.572   1.792  0.00  0.00    +0.005 A 
ATOM     22  C   UNL     1      -3.590  -5.296   2.323  0.00  0.00    -0.030 A 
ATOM     23  C   UNL     1      -4.760  -4.653   2.682  0.00  0.00    +0.005 A 
ATOM     24  C   UNL     1      -5.978  -5.282   2.501  0.00  0.00    +0.003 A 
ENDBRANCH  17  22
ENDBRANCH  13  17
ENDBRANCH   1  14
BRANCH   5  25
ATOM     25  S   UNL     1       1.142   3.850  -0.037  0.00  0.00    +0.061 S 
ATOM     26  O   UNL     1       2.372   4.273  -0.609  0.00  0.00    -0.153 OA
ATOM     27  O   UNL     1      -0.118   4.236  -0.568  0.00  0.00    -0.153 OA
BRANCH  25  28
ATOM     28  N   UNL     1       1.161   4.344   1.544  0.00  0.00    -0.177 NA
ATOM     29  C   UNL     1      -0.100   4.537   2.224  0.00  0.00    +0.109 C 
ATOM     30  C   UNL     1      -0.590   5.987   2.021  0.00  0.00    +0.017 C 
ATOM     31  C   UNL     1       0.247   6.920   2.790  0.00  0.00    +0.001 C 
ATOM     32  C   UNL     1       1.711   6.951   2.361  0.00  0.00    +0.001 C 
ATOM     33  C   UNL     1       2.461   5.847   3.064  0.00  0.00    +0.017 C 
ATOM     34  C   UNL     1       2.463   4.574   2.198  0.00  0.00    +0.109 C 
ENDBRANCH  25  28
ENDBRANCH   5  25
TORSDOF 5
