REMARK  Name = ZINC41004085
REMARK  10 active torsions:
REMARK  status: ('A' for Active; 'I' for Inactive)
REMARK    1  A    between atoms: C_1  and  C_2
REMARK    2  A    between atoms: C_2  and  S_3
REMARK    3  A    between atoms: S_3  and  C_4
REMARK    4  A    between atoms: C_9  and  C_21
REMARK    5  A    between atoms: C_15  and  C_19
REMARK    6  A    between atoms: C_15  and  C_20
REMARK    7  A    between atoms: C_23  and  O_30
REMARK    8  A    between atoms: C_24  and  O_28
REMARK    9  A    between atoms: O_28  and  C_29
REMARK   10  A    between atoms: O_30  and  C_31
REMARK                            x       y       z     vdW  Elec       q    Type
REMARK                         _______ _______ _______ _____ _____    ______ ____
ROOT
ATOM      1  C   UNL     1      -1.508  -2.383   0.004  0.00  0.00    +0.210 A 
ATOM      2  N   UNL     1      -0.338  -3.039  -0.005  0.00  0.00    -0.187 NA
ATOM      3  C   UNL     1      -0.559  -4.325  -0.014  0.00  0.00    +0.219 A 
ATOM      4  N   UNL     1      -1.900  -4.523  -0.005  0.00  0.00    -0.220 N 
ATOM      5  N   UNL     1      -2.490  -3.260   0.008  0.00  0.00    -0.141 NA
ATOM      6  C   UNL     1      -2.516  -5.844   0.000  0.00  0.00    +0.176 C 
ATOM      7  C   UNL     1      -1.486  -6.897  -0.347  0.00  0.00    +0.041 C 
ATOM      8  C   UNL     1      -0.162  -6.633  -0.348  0.00  0.00    +0.020 C 
ATOM      9  N   UNL     1       0.329  -5.388  -0.033  0.00  0.00    -0.287 N 
ATOM     10  C   UNL     1       0.842  -7.703  -0.706  0.00  0.00    +0.058 C 
ATOM     11  C   UNL     1       0.303  -9.074  -0.293  0.00  0.00    -0.023 C 
ATOM     12  C   UNL     1      -1.031  -9.305  -1.010  0.00  0.00    +0.086 C 
ATOM     13  C   UNL     1      -1.967  -8.178  -0.672  0.00  0.00    +0.164 C 
ATOM     14  O   UNL     1      -3.166  -8.379  -0.680  0.00  0.00    -0.292 OA
ATOM     15  C   UNL     1       1.300 -10.162  -0.696  0.00  0.00    +0.011 C 
ATOM     16  C   UNL     1       0.087  -9.107   1.222  0.00  0.00    +0.011 C 
ATOM     17  H   UNL     1       1.268  -5.259   0.170  0.00  0.00    +0.155 HD
ENDROOT
BRANCH   6  18
ATOM     18  C   UNL     1      -3.076  -6.129   1.370  0.00  0.00    -0.014 A 
ATOM     19  C   UNL     1      -4.428  -6.380   1.523  0.00  0.00    +0.055 A 
ATOM     20  C   UNL     1      -4.945  -6.642   2.782  0.00  0.00    +0.163 A 
ATOM     21  C   UNL     1      -4.102  -6.652   3.889  0.00  0.00    +0.175 A 
ATOM     22  C   UNL     1      -2.749  -6.400   3.728  0.00  0.00    +0.063 A 
ATOM     23  C   UNL     1      -2.238  -6.144   2.468  0.00  0.00    +0.025 A 
ATOM     24 BR   UNL     1      -1.600  -6.413   5.230  0.00  0.00    -0.046 Br
BRANCH  21  25
ATOM     25  O   UNL     1      -4.606  -6.908   5.126  0.00  0.00    -0.490 OA
ATOM     26  C   UNL     1      -4.636  -8.275   5.544  0.00  0.00    +0.277 C 
ENDBRANCH  21  25
BRANCH  20  27
ATOM     27  O   UNL     1      -6.274  -6.888   2.934  0.00  0.00    -0.491 OA
ATOM     28  C   UNL     1      -7.078  -6.860   1.754  0.00  0.00    +0.277 C 
ENDBRANCH  20  27
ENDBRANCH   6  18
BRANCH   1  29
ATOM     29  S   UNL     1      -1.700  -0.632   0.015  0.00  0.00    -0.085 S 
BRANCH  29  31
ATOM     30  C   UNL     1      -0.019   1.526   0.010  0.00  0.00    +0.016 C 
ATOM     31  C   UNL     1       0.002  -0.004   0.002  0.00  0.00    +0.074 C 
ENDBRANCH  29  31
ENDBRANCH   1  29
TORSDOF 5
