REMARK  Name = ZINC21231130
REMARK  2 active torsions:
REMARK  status: ('A' for Active; 'I' for Inactive)
REMARK    1  A    between atoms: C_8  and  C_24
REMARK    2  A    between atoms: C_14  and  C_19
REMARK                            x       y       z     vdW  Elec       q    Type
REMARK                         _______ _______ _______ _____ _____    ______ ____
ROOT
ATOM      1  C   UNL     1      -2.643   4.801  -2.353  0.00  0.00    +0.002 A 
ATOM      2  C   UNL     1      -3.075   3.500  -2.536  0.00  0.00    +0.002 A 
ATOM      3  C   UNL     1      -2.534   2.471  -1.783  0.00  0.00    +0.025 A 
ATOM      4  C   UNL     1      -1.559   2.758  -0.845  0.00  0.00    +0.052 A 
ATOM      5  C   UNL     1      -1.095   4.056  -0.688  0.00  0.00    +0.049 A 
ATOM      6  C   UNL     1      -1.651   5.085  -1.430  0.00  0.00    +0.025 A 
ATOM      7  N   UNL     1      -0.062   4.286   0.219  0.00  0.00    -0.331 N 
ATOM      8  C   UNL     1       1.253   3.718   0.012  0.00  0.00    +0.137 C 
ATOM      9  C   UNL     1       1.300   2.210   0.066  0.00  0.00    +0.036 C 
ATOM     10  C   UNL     1       0.238   1.387   0.064  0.00  0.00    +0.017 C 
ATOM     11  N   UNL     1      -1.056   1.795   0.022  0.00  0.00    -0.316 N 
ATOM     12  C   UNL     1       0.429  -0.120   0.124  0.00  0.00    +0.060 C 
ATOM     13  C   UNL     1       1.726  -0.510  -0.584  0.00  0.00    +0.039 C 
ATOM     14  C   UNL     1       2.880   0.204   0.130  0.00  0.00    +0.088 C 
ATOM     15  C   UNL     1       2.611   1.679   0.113  0.00  0.00    +0.163 C 
ATOM     16  O   UNL     1       3.554   2.447   0.140  0.00  0.00    -0.292 OA
ATOM     17  H   UNL     1      -0.259   4.910   1.104  0.00  0.00    +0.147 HD
ATOM     18  H   UNL     1      -1.724   1.302   0.744  0.00  0.00    +0.152 HD
ENDROOT
BRANCH   8  19
ATOM     19  C   UNL     1       1.758   4.163  -1.336  0.00  0.00    -0.003 A 
ATOM     20  C   UNL     1       1.825   3.261  -2.382  0.00  0.00    +0.007 A 
ATOM     21  C   UNL     1       2.288   3.669  -3.619  0.00  0.00    +0.002 A 
ATOM     22  C   UNL     1       2.686   4.979  -3.812  0.00  0.00    +0.021 A 
ATOM     23  C   UNL     1       2.619   5.883  -2.767  0.00  0.00    +0.060 A 
ATOM     24  C   UNL     1       2.149   5.476  -1.529  0.00  0.00    +0.064 A 
ATOM     25 CL   UNL     1       2.058   6.610  -0.218  0.00  0.00    -0.082 Cl
ATOM     26 CL   UNL     1       3.117   7.528  -3.009  0.00  0.00    -0.082 Cl
ENDBRANCH   8  19
BRANCH  13  27
ATOM     27  C   UNL     1       1.921  -2.002  -0.505  0.00  0.00    -0.006 A 
ATOM     28  C   UNL     1       2.025  -2.903  -1.512  0.00  0.00    +0.011 A 
ATOM     29  C   UNL     1       2.205  -4.238  -1.201  0.00  0.00    +0.008 A 
ATOM     30  C   UNL     1       2.271  -4.606   0.102  0.00  0.00    +0.045 A 
ATOM     31  S   UNL     1       2.085  -3.040   0.938  0.00  0.00    -0.101 S 
ENDBRANCH  13  27
TORSDOF 2
