REMARK  Name = ZINC01908156
REMARK  7 active torsions:
REMARK  status: ('A' for Active; 'I' for Inactive)
REMARK    1  A    between atoms: C_1  and  C_2
REMARK    2  A    between atoms: C_3  and  N_15
REMARK    3  A    between atoms: N_6  and  C_9
REMARK    4  A    between atoms: N_7  and  C_8
REMARK    5  A    between atoms: N_15  and  C_16
REMARK    6  A    between atoms: C_16  and  N_18
REMARK    7  A    between atoms: N_18  and  N_19
REMARK                            x       y       z     vdW  Elec       q    Type
REMARK                         _______ _______ _______ _____ _____    ______ ____
ROOT
ATOM      1  C   UNL     1       1.030   9.068   0.413  0.00  0.00    +0.154 C 
ATOM      2  S   UNL     1       0.701  10.146   1.702  0.00  0.00    -0.017 S 
ENDROOT
BRANCH   1   3
ATOM      3  N   UNL     1       2.108   9.264  -0.371  0.00  0.00    -0.290 N 
ATOM      4  H   UNL     1       2.372   8.522  -1.139  0.00  0.00    +0.154 HD
BRANCH   3   7
ATOM      5  C   UNL     1       5.095   9.253   0.333  0.00  0.00    +0.067 C 
ATOM      6  C   UNL     1       4.214  10.454   0.103  0.00  0.00    +0.059 A 
ATOM      7  C   UNL     1       2.898  10.419  -0.206  0.00  0.00    +0.121 A 
ATOM      8  C   UNL     1       2.449  11.805  -0.344  0.00  0.00    +0.293 A 
ATOM      9  O   UNL     1       1.324  12.178  -0.624  0.00  0.00    -0.264 OA
ATOM     10  N   UNL     1       3.518  12.591  -0.100  0.00  0.00    -0.216 N 
ATOM     11  N   UNL     1       4.612  11.763   0.173  0.00  0.00    -0.282 N 
ATOM     12  C   UNL     1       5.968  12.223   0.485  0.00  0.00    +0.171 C 
BRANCH  10  13
ATOM     13  C   UNL     1       3.531  13.989  -0.122  0.00  0.00    +0.067 A 
ATOM     14  C   UNL     1       4.114  14.697   0.921  0.00  0.00    +0.028 A 
ATOM     15  C   UNL     1       4.129  16.077   0.894  0.00  0.00    +0.002 A 
ATOM     16  C   UNL     1       3.557  16.756  -0.166  0.00  0.00    +0.000 A 
ATOM     17  C   UNL     1       2.972  16.055  -1.205  0.00  0.00    +0.002 A 
ATOM     18  C   UNL     1       2.957  14.674  -1.186  0.00  0.00    +0.028 A 
ENDBRANCH  10  13
ENDBRANCH   3   7
ENDBRANCH   1   3
BRANCH   1  19
ATOM     19  N   UNL     1       0.210   8.023   0.182  0.00  0.00    -0.217 N 
ATOM     20  H   UNL     1      -0.670   7.863   0.822  0.00  0.00    +0.176 HD
BRANCH  19  21
ATOM     21  N   UNL     1       0.480   7.141  -0.873  0.00  0.00    -0.175 NA
ATOM     22  C   UNL     1      -0.318   6.124  -1.097  0.00  0.00    +0.152 C 
ATOM     23  C   UNL     1      -0.193   5.096  -2.157  0.00  0.00    +0.028 A 
ATOM     24  C   UNL     1       0.729   4.887  -3.176  0.00  0.00    +0.013 A 
ATOM     25  C   UNL     1       0.575   3.813  -4.029  0.00  0.00    +0.016 A 
ATOM     26  C   UNL     1      -0.495   2.948  -3.869  0.00  0.00    +0.020 A 
ATOM     27  C   UNL     1      -1.419   3.151  -2.864  0.00  0.00    +0.039 A 
ATOM     28  C   UNL     1      -1.277   4.224  -1.991  0.00  0.00    +0.044 A 
ATOM     29  N   UNL     1      -2.046   4.646  -0.913  0.00  0.00    -0.280 N 
ATOM     30  C   UNL     1      -1.535   5.754  -0.349  0.00  0.00    +0.269 C 
ATOM     31  O   UNL     1      -1.995   6.347   0.609  0.00  0.00    -0.268 OA
ATOM     32 BR   UNL     1      -0.696   1.480  -5.044  0.00  0.00    -0.050 Br
ATOM     33  H   UNL     1      -2.946   4.084  -0.625  0.00  0.00    +0.155 HD
ENDBRANCH  19  21
ENDBRANCH   1  19
TORSDOF 5
