REMARK  Name = ZINC38743976
REMARK  6 active torsions:
REMARK  status: ('A' for Active; 'I' for Inactive)
REMARK    1  A    between atoms: C_1  and  C_2
REMARK    2  A    between atoms: C_2  and  C_3
REMARK    3  A    between atoms: C_10  and  C_12
REMARK    4  A    between atoms: C_13  and  C_21
REMARK    5  A    between atoms: C_21  and  S_22
REMARK    6  A    between atoms: S_22  and  C_23
REMARK                            x       y       z     vdW  Elec       q    Type
REMARK                         _______ _______ _______ _____ _____    ______ ____
ROOT
ATOM      1  C   UNL     1       6.299  -3.756   1.072  0.00  0.00    +0.195 A 
ATOM      2  C   UNL     1       6.755  -5.035   1.044  0.00  0.00    +0.021 A 
ATOM      3  C   UNL     1       8.215  -4.943   1.009  0.00  0.00    +0.025 A 
ATOM      4  C   UNL     1       9.249  -5.882   0.972  0.00  0.00    +0.012 A 
ATOM      5  C   UNL     1      10.547  -5.458   0.946  0.00  0.00    +0.001 A 
ATOM      6  C   UNL     1      10.845  -4.102   0.955  0.00  0.00    +0.004 A 
ATOM      7  C   UNL     1       9.840  -3.161   0.992  0.00  0.00    +0.047 A 
ATOM      8  C   UNL     1       8.511  -3.568   1.019  0.00  0.00    +0.136 A 
ATOM      9  O   UNL     1       7.341  -2.900   1.051  0.00  0.00    -0.450 OA
ENDROOT
BRANCH   1  16
ATOM     10  C   UNL     1       0.742  -0.511   1.242  0.00  0.00    +0.153 C 
ATOM     11  N   UNL     1       0.872  -1.986   1.226  0.00  0.00    -0.253 N 
ATOM     12  N   UNL     1       2.163  -2.461   1.189  0.00  0.00    -0.163 NA
ATOM     13  C   UNL     1       3.206  -1.689   1.168  0.00  0.00    +0.179 C 
ATOM     14  S   UNL     1       2.520  -0.039   1.200  0.00  0.00    -0.065 S 
ATOM     15  N   UNL     1       4.545  -2.060   1.130  0.00  0.00    -0.257 N 
ATOM     16  C   UNL     1       4.883  -3.365   1.111  0.00  0.00    +0.285 C 
ATOM     17  O   UNL     1       4.016  -4.218   1.127  0.00  0.00    -0.266 OA
ATOM     18  H   UNL     1       0.102  -2.575   1.241  0.00  0.00    +0.169 HD
ATOM     19  H   UNL     1       5.237  -1.380   1.118  0.00  0.00    +0.157 HD
BRANCH  10  21
ATOM     20  C   UNL     1      -0.019   1.526   0.010  0.00  0.00    +0.006 C 
ATOM     21  C   UNL     1       0.002  -0.004   0.002  0.00  0.00    +0.032 C 
ENDBRANCH  10  21
ENDBRANCH   1  16
BRANCH   2  22
ATOM     22  C   UNL     1       5.927  -6.294   1.050  0.00  0.00    +0.117 C 
BRANCH  22  23
ATOM     23  S   UNL     1       5.551  -6.778  -0.657  0.00  0.00    -0.082 S 
BRANCH  23  24
ATOM     24  C   UNL     1       4.591  -8.245  -0.483  0.00  0.00    +0.184 A 
ATOM     25  N   UNL     1       4.077  -8.984  -1.490  0.00  0.00    -0.254 N 
ATOM     26  H   UNL     1       4.165  -8.812  -2.441  0.00  0.00    +0.191 HD
ATOM     27  N   UNL     1       3.391 -10.051  -0.888  0.00  0.00    -0.160 NA
ATOM     28  C   UNL     1       3.521  -9.907   0.404  0.00  0.00    +0.245 A 
ATOM     29  N   UNL     1       4.251  -8.819   0.652  0.00  0.00    -0.209 NA
ENDBRANCH  23  24
ENDBRANCH  22  23
ENDBRANCH   2  22
TORSDOF 5
