REMARK  Name = ZINC20775532
REMARK  3 active torsions:
REMARK  status: ('A' for Active; 'I' for Inactive)
REMARK    1  A    between atoms: C_4  and  C_7
REMARK    2  A    between atoms: C_7  and  O_24
REMARK    3  A    between atoms: C_18  and  C_20
REMARK                            x       y       z     vdW  Elec       q    Type
REMARK                         _______ _______ _______ _____ _____    ______ ____
ROOT
ATOM      1  C   UNL     1       6.863  -3.908  -0.055  0.00  0.00    +0.108 C 
ATOM      2  C   UNL     1       7.513  -2.569   0.384  0.00  0.00    +0.060 C 
ATOM      3  C   UNL     1       6.473  -1.539  -0.129  0.00  0.00    +0.112 C 
ATOM      4  N   UNL     1       5.165  -2.180   0.098  0.00  0.00    -0.282 N 
ATOM      5  C   UNL     1       5.355  -3.638   0.131  0.00  0.00    +0.149 C 
ATOM      6  C   UNL     1       3.990  -1.538   0.245  0.00  0.00    +0.308 C 
ATOM      7  O   UNL     1       2.968  -2.172   0.423  0.00  0.00    -0.252 OA
ATOM      8  N   UNL     1       3.947  -0.192   0.196  0.00  0.00    -0.247 N 
ATOM      9  C   UNL     1       2.734   0.472   0.348  0.00  0.00    +0.189 A 
ATOM     10  N   UNL     1       1.524  -0.021   0.548  0.00  0.00    -0.125 NA
ATOM     11  N   UNL     1       0.512   0.724   0.667  0.00  0.00    -0.136 NA
ATOM     12  C   UNL     1       0.630   2.035   0.596  0.00  0.00    +0.206 A 
ATOM     13  S   UNL     1       2.393   2.177   0.329  0.00  0.00    -0.027 S 
ATOM     14  H   UNL     1       4.872   0.383   0.035  0.00  0.00    +0.158 HD
ENDROOT
BRANCH   1  18
ATOM     15  C   UNL     1       8.147  -7.109   2.465  0.00  0.00    +0.000 A 
ATOM     16  C   UNL     1       8.382  -7.164   1.104  0.00  0.00    +0.000 A 
ATOM     17  C   UNL     1       7.967  -6.128   0.288  0.00  0.00    +0.006 A 
ATOM     18  C   UNL     1       7.316  -5.037   0.834  0.00  0.00    -0.015 A 
ATOM     19  C   UNL     1       7.085  -4.980   2.196  0.00  0.00    +0.006 A 
ATOM     20  C   UNL     1       7.496  -6.018   3.010  0.00  0.00    +0.000 A 
ENDBRANCH   1  18
BRANCH  12  21
ATOM     21  C   UNL     1      -0.422   3.108   0.703  0.00  0.00    +0.443 C 
ATOM     22  F   UNL     1      -1.653   2.525   1.020  0.00  0.00    -0.164 F 
ATOM     23  F   UNL     1      -0.063   4.015   1.706  0.00  0.00    -0.164 F 
ATOM     24  F   UNL     1      -0.527   3.782  -0.519  0.00  0.00    -0.164 F 
ENDBRANCH  12  21
BRANCH   1  25
ATOM     25  O   UNL     1       7.161  -4.190  -1.424  0.00  0.00    -0.382 OA
ATOM     26  H   UNL     1       6.894  -3.463  -2.206  0.00  0.00    +0.211 HD
ENDBRANCH   1  25
TORSDOF 3
