REMARK  Name = ZINC11603288
REMARK  10 active torsions:
REMARK  status: ('A' for Active; 'I' for Inactive)
REMARK    1  A    between atoms: C_1  and  N_53
REMARK    2  A    between atoms: C_2  and  N_53
REMARK    3  A    between atoms: C_3  and  C_5
REMARK    4  A    between atoms: C_3  and  C_23
REMARK    5  A    between atoms: C_3  and  N_53
REMARK    6  A    between atoms: C_5  and  N_6
REMARK    7  A    between atoms: C_7  and  C_9
REMARK    8  A    between atoms: C_9  and  C_10
REMARK    9  A    between atoms: C_28  and  O_29
REMARK   10  A    between atoms: O_29  and  C_30
REMARK                            x       y       z     vdW  Elec       q    Type
REMARK                         _______ _______ _______ _____ _____    ______ ____
ROOT
ATOM      1  N   UNL     1      -0.021   0.604  -2.389  0.00  0.00    -0.316 N 
ATOM      2  C   UNL     1      -0.395   0.467  -1.101  0.00  0.00    +0.215 C 
ATOM      3  O   UNL     1      -1.496   0.830  -0.747  0.00  0.00    -0.276 OA
ATOM      4  H   UNL     1       0.860   0.314  -2.672  0.00  0.00    +0.149 HD
ENDROOT
BRANCH   1   5
ATOM      5  C   UNL     1      -0.947   1.191  -3.362  0.00  0.00    +0.093 C 
BRANCH   5   6
ATOM      6  C   UNL     1      -0.282   1.230  -4.739  0.00  0.00    -0.017 C 
BRANCH   6   7
ATOM      7  C   UNL     1      -1.185   1.944  -5.712  0.00  0.00    -0.018 A 
ATOM      8  C   UNL     1      -2.110   2.862  -5.252  0.00  0.00    +0.005 A 
ATOM      9  C   UNL     1      -2.934   3.520  -6.144  0.00  0.00    +0.000 A 
ATOM     10  C   UNL     1      -2.843   3.255  -7.499  0.00  0.00    +0.004 A 
ATOM     11  C   UNL     1      -1.924   2.335  -7.963  0.00  0.00    +0.046 A 
ATOM     12  C   UNL     1      -1.091   1.677  -7.070  0.00  0.00    +0.122 A 
BRANCH  12  13
ATOM     13  O   UNL     1      -0.186   0.771  -7.524  0.00  0.00    -0.495 OA
ATOM     14  C   UNL     1      -0.146   0.546  -8.935  0.00  0.00    +0.277 C 
ENDBRANCH  12  13
ENDBRANCH   6   7
BRANCH   6  17
ATOM     15  C   UNL     1       1.777   1.794  -5.880  0.00  0.00    -0.096 C 
ATOM     16  C   UNL     1       0.788   3.362  -4.323  0.00  0.00    -0.096 C 
ATOM     17  N   UNL     1       1.013   1.933  -4.623  0.00  0.00    +0.382 N 
ATOM     18  H   UNL     1       1.553   1.512  -3.857  0.00  0.00    -0.082 HD
ENDBRANCH   6  17
ENDBRANCH   5   6
ENDBRANCH   1   5
BRANCH   2  19
ATOM     19  C   UNL     1       0.557  -0.137  -0.101  0.00  0.00    +0.119 C 
BRANCH  19  20
ATOM     20  C   UNL     1      -0.107  -0.176   1.276  0.00  0.00    +0.146 C 
ATOM     21  C   UNL     1       0.881  -0.665   2.303  0.00  0.00    +0.231 C 
ATOM     22  O   UNL     1       1.461   0.156   2.982  0.00  0.00    -0.274 OA
ATOM     23  N   UNL     1       1.150  -1.951   2.500  0.00  0.00    -0.284 N 
ATOM     24  C   UNL     1       0.514  -3.035   1.902  0.00  0.00    +0.048 A 
ATOM     25  C   UNL     1       1.111  -4.290   1.956  0.00  0.00    +0.044 A 
ATOM     26  C   UNL     1       0.500  -5.379   1.365  0.00  0.00    +0.043 A 
ATOM     27  C   UNL     1      -0.716  -5.236   0.720  0.00  0.00    +0.021 A 
ATOM     28  C   UNL     1      -1.329  -3.997   0.674  0.00  0.00    +0.018 A 
ATOM     29  C   UNL     1      -0.723  -2.904   1.269  0.00  0.00    +0.030 A 
ATOM     30  S   UNL     1      -1.516  -1.326   1.243  0.00  0.00    -0.110 S 
ATOM     31 CL   UNL     1       1.263  -6.937   1.431  0.00  0.00    -0.083 Cl
ATOM     32  H   UNL     1       1.863  -2.156   3.125  0.00  0.00    +0.155 HD
ENDBRANCH  19  20
ENDBRANCH   2  19
TORSDOF 7
