REMARK  Name = ZINC33435747
REMARK  5 active torsions:
REMARK  status: ('A' for Active; 'I' for Inactive)
REMARK    1  A    between atoms: C_7  and  C_11
REMARK    2  A    between atoms: C_11  and  C_12
REMARK    3  A    between atoms: C_12  and  N_13
REMARK    4  A    between atoms: C_14  and  C_16
REMARK    5  A    between atoms: C_17  and  N_21
REMARK                            x       y       z     vdW  Elec       q    Type
REMARK                         _______ _______ _______ _____ _____    ______ ____
ROOT
ATOM      1  C   UNL     1      -4.644  -3.209  -2.568  0.00  0.00    +0.177 A 
ATOM      2  C   UNL     1      -5.302  -3.571  -3.746  0.00  0.00    +0.126 A 
ATOM      3  S   UNL     1      -6.550  -4.604  -3.125  0.00  0.00    +0.052 S 
ATOM      4  N   UNL     1      -6.154  -4.502  -1.464  0.00  0.00    -0.108 NA
ATOM      5  N   UNL     1      -5.126  -3.722  -1.446  0.00  0.00    -0.135 NA
ENDROOT
BRANCH   2   6
ATOM      6  N   UNL     1      -5.031  -3.205  -5.054  0.00  0.00    -0.261 N 
ATOM      7  C   UNL     1      -5.800  -3.673  -6.057  0.00  0.00    +0.307 C 
ATOM      8  O   UNL     1      -6.673  -4.486  -5.826  0.00  0.00    -0.252 OA
ATOM      9  N   UNL     1      -5.601  -3.238  -7.317  0.00  0.00    -0.284 N 
ATOM     10  C   UNL     1      -4.481  -2.345  -7.635  0.00  0.00    +0.114 C 
ATOM     11  C   UNL     1      -3.696  -2.885  -8.822  0.00  0.00    +0.027 C 
ATOM     12  C   UNL     1      -4.627  -3.226  -9.986  0.00  0.00    +0.018 C 
ATOM     13  C   UNL     1      -5.644  -4.254  -9.526  0.00  0.00    +0.054 C 
ATOM     14  C   UNL     1      -6.499  -3.654  -8.407  0.00  0.00    +0.119 C 
ATOM     15  C   UNL     1      -4.921  -5.437  -8.925  0.00  0.00    +0.027 A 
ATOM     16  C   UNL     1      -5.567  -6.633  -8.935  0.00  0.00    +0.022 A 
ATOM     17  C   UNL     1      -5.019  -7.742  -8.280  0.00  0.00    +0.007 A 
ATOM     18  C   UNL     1      -3.833  -7.598  -7.621  0.00  0.00    +0.070 A 
ATOM     19  C   UNL     1      -3.187  -6.354  -7.642  0.00  0.00    +0.251 A 
ATOM     20  O   UNL     1      -2.149  -6.202  -7.019  0.00  0.00    -0.268 OA
ATOM     21  N   UNL     1      -3.703  -5.317  -8.348  0.00  0.00    -0.312 N 
ATOM     22  C   UNL     1      -2.881  -4.112  -8.455  0.00  0.00    +0.130 C 
ATOM     23  H   UNL     1      -4.189  -2.533  -5.274  0.00  0.00    +0.157 HD
ENDBRANCH   2   6
BRANCH   1  25
ATOM     24  N   UNL     1      -2.872  -1.991  -1.415  0.00  0.00    -0.310 N 
ATOM     25  C   UNL     1      -3.478  -2.315  -2.574  0.00  0.00    +0.267 C 
ATOM     26  O   UNL     1      -3.060  -1.867  -3.625  0.00  0.00    -0.268 OA
ATOM     27  H   UNL     1      -3.249  -2.396  -0.464  0.00  0.00    +0.149 HD
BRANCH  24  28
ATOM     28  C   UNL     1      -1.709  -1.099  -1.420  0.00  0.00    +0.109 C 
BRANCH  28  29
ATOM     29  C   UNL     1      -1.216  -0.895   0.013  0.00  0.00    +0.056 C 
BRANCH  29  36
ATOM     30  C   UNL     1      -0.752   3.769   0.031  0.00  0.00    +0.001 A 
ATOM     31  C   UNL     1       0.574   4.181   0.022  0.00  0.00    +0.002 A 
ATOM     32  C   UNL     1       1.596   3.258   0.009  0.00  0.00    +0.026 A 
ATOM     33  C   UNL     1       1.300   1.899   0.005  0.00  0.00    +0.047 A 
ATOM     34  C   UNL     1      -0.045   1.487   0.014  0.00  0.00    +0.003 A 
ATOM     35  C   UNL     1      -1.066   2.439   0.032  0.00  0.00    +0.010 A 
ATOM     36  C   UNL     1      -0.020   0.022   0.007  0.00  0.00    -0.021 A 
ATOM     37  C   UNL     1       1.270  -0.348  -0.005  0.00  0.00    +0.087 A 
ATOM     38  N   UNL     1       2.073   0.760  -0.006  0.00  0.00    -0.360 N 
ATOM     39  H   UNL     1       3.170   0.840  -0.015  0.00  0.00    +0.165 HD
ENDBRANCH  29  36
ENDBRANCH  28  29
ENDBRANCH  24  28
ENDBRANCH   1  25
TORSDOF 5
