REMARK  Name = ZINC09389369
REMARK  5 active torsions:
REMARK  status: ('A' for Active; 'I' for Inactive)
REMARK    1  A    between atoms: C_1  and  C_2
REMARK    2  A    between atoms: C_15  and  C_17
REMARK    3  A    between atoms: C_17  and  N_18
REMARK    4  A    between atoms: C_21  and  C_25
REMARK    5  A    between atoms: C_21  and  C_26
REMARK                            x       y       z     vdW  Elec       q    Type
REMARK                         _______ _______ _______ _____ _____    ______ ____
ROOT
ATOM      1  N   UNL     1       5.074   1.661   3.261  0.00  0.00    -0.215 N 
ATOM      2  C   UNL     1       5.079   2.680   4.144  0.00  0.00    +0.251 C 
ATOM      3  O   UNL     1       4.254   3.562   4.249  0.00  0.00    -0.272 OA
ATOM      4  C   UNL     1       6.332   2.494   4.977  0.00  0.00    +0.135 C 
ATOM      5  N   UNL     1       6.944   1.278   4.415  0.00  0.00    -0.281 N 
ATOM      6  C   UNL     1       6.135   0.863   3.423  0.00  0.00    +0.310 C 
ATOM      7  O   UNL     1       6.347  -0.125   2.747  0.00  0.00    -0.252 OA
ATOM      8  C   UNL     1       7.269   3.692   4.816  0.00  0.00    +0.047 C 
ATOM      9  H   UNL     1       7.768   0.856   4.706  0.00  0.00    +0.152 HD
ENDROOT
BRANCH   4  10
ATOM     10  C   UNL     1       5.977   2.287   6.427  0.00  0.00    -0.015 A 
ATOM     11  C   UNL     1       4.824   2.876   6.943  0.00  0.00    +0.007 A 
ATOM     12  C   UNL     1       4.476   2.709   8.248  0.00  0.00    +0.009 A 
ATOM     13  C   UNL     1       5.288   1.932   9.091  0.00  0.00    -0.018 A 
ATOM     14  C   UNL     1       4.961   1.737  10.444  0.00  0.00    +0.008 A 
ATOM     15  C   UNL     1       5.772   0.978  11.230  0.00  0.00    +0.001 A 
ATOM     16  C   UNL     1       6.926   0.390  10.715  0.00  0.00    +0.001 A 
ATOM     17  C   UNL     1       7.274   0.556   9.410  0.00  0.00    +0.008 A 
ATOM     18  C   UNL     1       6.461   1.333   8.567  0.00  0.00    -0.018 A 
ATOM     19  C   UNL     1       6.786   1.524   7.213  0.00  0.00    +0.014 A 
ENDBRANCH   4  10
BRANCH   1  20
ATOM     20  C   UNL     1       4.032   1.451   2.254  0.00  0.00    +0.214 C 
BRANCH  20  34
ATOM     21  C   UNL     1       4.473   1.810  -2.343  0.00  0.00    +0.029 C 
ATOM     22  C   UNL     1       3.939   2.819  -1.324  0.00  0.00    +0.087 C 
ATOM     23  C   UNL     1       2.702   3.513  -1.897  0.00  0.00    +0.118 C 
ATOM     24  C   UNL     1       1.938   4.200  -0.796  0.00  0.00    +0.219 C 
ATOM     25  O   UNL     1       2.002   5.406  -0.680  0.00  0.00    -0.275 OA
ATOM     26  N   UNL     1       1.182   3.482   0.062  0.00  0.00    -0.284 N 
ATOM     27  C   UNL     1       1.175   2.084   0.002  0.00  0.00    +0.055 A 
ATOM     28  C   UNL     1      -0.017   1.379   0.010  0.00  0.00    +0.025 A 
ATOM     29  C   UNL     1       0.002  -0.004   0.002  0.00  0.00    +0.002 A 
ATOM     30  C   UNL     1       1.206  -0.685  -0.016  0.00  0.00    +0.002 A 
ATOM     31  C   UNL     1       2.400   0.012  -0.037  0.00  0.00    +0.025 A 
ATOM     32  C   UNL     1       2.390   1.397  -0.034  0.00  0.00    +0.058 A 
ATOM     33  N   UNL     1       3.589   2.121  -0.086  0.00  0.00    -0.265 N 
ATOM     34  C   UNL     1       4.405   2.174   0.986  0.00  0.00    +0.238 C 
ATOM     35  O   UNL     1       5.441   2.803   0.929  0.00  0.00    -0.273 OA
ATOM     36  H   UNL     1       0.640   3.939   0.725  0.00  0.00    +0.155 HD
ENDBRANCH  20  34
ENDBRANCH   1  20
TORSDOF 3
