REMARK  Name = ZINC39609778
REMARK  4 active torsions:
REMARK  status: ('A' for Active; 'I' for Inactive)
REMARK    1  A    between atoms: C_6  and  C_7
REMARK    2  A    between atoms: C_7  and  N_8
REMARK    3  A    between atoms: C_9  and  C_11
REMARK    4  A    between atoms: C_22  and  C_24
REMARK                            x       y       z     vdW  Elec       q    Type
REMARK                         _______ _______ _______ _____ _____    ______ ____
ROOT
ATOM      1  C   UNL     1      -2.825  -2.373  -3.747  0.00  0.00    +0.100 C 
ATOM      2  C   UNL     1      -3.481  -0.989  -3.947  0.00  0.00    +0.121 C 
ATOM      3  N   UNL     1      -4.682  -1.260  -4.772  0.00  0.00    -0.300 N 
ATOM      4  C   UNL     1      -5.219  -2.533  -4.235  0.00  0.00    +0.115 C 
ATOM      5  C   UNL     1      -3.969  -3.384  -3.935  0.00  0.00    -0.004 C 
ATOM      6  C   UNL     1      -4.175  -4.192  -2.658  0.00  0.00    -0.010 C 
ATOM      7  C   UNL     1      -5.278  -5.230  -2.889  0.00  0.00    -0.082 C 
ATOM      8  N   UNL     1      -4.896  -6.114  -3.996  0.00  0.00    +0.379 N 
ATOM      9  C   UNL     1      -4.790  -5.343  -5.240  0.00  0.00    -0.082 C 
ATOM     10  C   UNL     1      -3.667  -4.310  -5.109  0.00  0.00    -0.010 C 
ATOM     11  C   UNL     1      -5.175  -0.517  -5.784  0.00  0.00    +0.219 C 
ATOM     12  O   UNL     1      -4.574   0.466  -6.162  0.00  0.00    -0.275 OA
ATOM     13  H   UNL     1      -4.006  -6.543  -3.791  0.00  0.00    -0.086 HD
ATOM     14  H   UNL     1      -5.595  -6.834  -4.106  0.00  0.00    -0.086 HD
ENDROOT
BRANCH  11  15
ATOM     15  C   UNL     1      -6.472  -0.908  -6.443  0.00  0.00    +0.079 C 
ATOM     16  C   UNL     1      -6.507  -0.362  -7.876  0.00  0.00    +0.017 C 
ATOM     17  C   UNL     1      -7.747  -0.921  -8.577  0.00  0.00    +0.027 C 
ATOM     18  C   UNL     1      -8.960  -0.723  -7.717  0.00  0.00    -0.031 C 
ATOM     19  C   UNL     1      -8.916  -0.460  -6.451  0.00  0.00    -0.030 C 
ATOM     20  C   UNL     1      -7.646  -0.310  -5.664  0.00  0.00    +0.039 C 
ENDBRANCH  11  15
BRANCH   1  22
ATOM     21  N   UNL     1      -1.197  -3.294  -2.128  0.00  0.00    -0.311 N 
ATOM     22  C   UNL     1      -2.250  -2.485  -2.358  0.00  0.00    +0.218 C 
ATOM     23  O   UNL     1      -2.734  -1.846  -1.448  0.00  0.00    -0.275 OA
ATOM     24  H   UNL     1      -0.809  -3.804  -2.857  0.00  0.00    +0.149 HD
BRANCH  21  25
ATOM     25  C   UNL     1      -0.637  -3.402  -0.779  0.00  0.00    +0.139 C 
BRANCH  25  31
ATOM     26  C   UNL     1       1.802  -3.900  -1.035  0.00  0.00    +0.007 A 
ATOM     27  C   UNL     1       2.867  -4.781  -1.046  0.00  0.00    +0.022 A 
ATOM     28  C   UNL     1       2.654  -6.128  -0.815  0.00  0.00    +0.059 A 
ATOM     29  C   UNL     1       1.372  -6.593  -0.572  0.00  0.00    +0.060 A 
ATOM     30  C   UNL     1       0.307  -5.710  -0.560  0.00  0.00    +0.026 A 
ATOM     31  C   UNL     1       0.523  -4.364  -0.792  0.00  0.00    -0.029 A 
ATOM     32 CL   UNL     1       1.102  -8.283  -0.281  0.00  0.00    -0.082 Cl
ATOM     33 CL   UNL     1       3.991  -7.234  -0.830  0.00  0.00    -0.082 Cl
ENDBRANCH  25  31
ENDBRANCH  21  25
ENDBRANCH   1  22
TORSDOF 4
