REMARK  Name = ZINC41644070
REMARK  7 active torsions:
REMARK  status: ('A' for Active; 'I' for Inactive)
REMARK    1  A    between atoms: C_1  and  C_2
REMARK    2  A    between atoms: N_8  and  C_9
REMARK    3  A    between atoms: C_9  and  C_11
REMARK    4  A    between atoms: C_9  and  C_12
REMARK    5  A    between atoms: C_12  and  N_13
REMARK    6  A    between atoms: C_14  and  C_16
REMARK    7  A    between atoms: N_18  and  C_19
REMARK                            x       y       z     vdW  Elec       q    Type
REMARK                         _______ _______ _______ _____ _____    ______ ____
ROOT
ATOM      1  N   UNL     1      -0.827   1.944   0.805  0.00  0.00    -0.309 N 
ATOM      2  C   UNL     1      -1.072   3.217   0.436  0.00  0.00    +0.299 C 
ATOM      3  O   UNL     1      -0.586   4.135   1.063  0.00  0.00    -0.265 OA
ATOM      4  H   UNL     1      -1.154   1.210   0.263  0.00  0.00    +0.149 HD
ENDROOT
BRANCH   2   5
ATOM      5  C   UNL     1      -1.942   3.497  -0.745  0.00  0.00    +0.303 C 
ATOM      6  O   UNL     1      -2.502   2.584  -1.317  0.00  0.00    -0.265 OA
ATOM      7  N   UNL     1      -2.106   4.763  -1.177  0.00  0.00    -0.276 N 
ATOM      8  H   UNL     1      -1.607   5.485  -0.762  0.00  0.00    +0.155 HD
BRANCH   7   9
ATOM      9  C   UNL     1      -2.993   5.037  -2.221  0.00  0.00    +0.054 A 
ATOM     10  C   UNL     1      -4.149   4.280  -2.368  0.00  0.00    +0.044 A 
ATOM     11  C   UNL     1      -5.024   4.553  -3.402  0.00  0.00    +0.043 A 
ATOM     12  C   UNL     1      -4.750   5.579  -4.291  0.00  0.00    +0.021 A 
ATOM     13  C   UNL     1      -3.601   6.333  -4.147  0.00  0.00    +0.023 A 
ATOM     14  C   UNL     1      -2.724   6.070  -3.112  0.00  0.00    +0.062 A 
ATOM     15 CL   UNL     1      -1.285   7.022  -2.928  0.00  0.00    -0.082 Cl
ATOM     16 CL   UNL     1      -6.469   3.609  -3.587  0.00  0.00    -0.083 Cl
ENDBRANCH   7   9
ENDBRANCH   2   5
BRANCH   1  17
ATOM     17  C   UNL     1      -0.065   1.670   2.026  0.00  0.00    +0.089 C 
BRANCH  17  18
ATOM     18  C   UNL     1      -0.033   0.161   2.279  0.00  0.00    -0.054 C 
ATOM     19  C   UNL     1       0.807  -0.130   3.525  0.00  0.00    -0.012 C 
BRANCH  18  26
ATOM     20  C   UNL     1      -0.929  -2.405   1.574  0.00  0.00    -0.013 C 
ATOM     21  C   UNL     1       0.517  -1.970   1.328  0.00  0.00    -0.071 C 
ATOM     22  C   UNL     1       1.060  -2.684   0.088  0.00  0.00    -0.016 C 
ATOM     23  C   UNL     1       2.507  -2.245  -0.154  0.00  0.00    -0.003 C 
ATOM     24  C   UNL     1       2.551  -0.721  -0.295  0.00  0.00    -0.019 C 
ATOM     25  C   UNL     1       1.953  -0.080   0.959  0.00  0.00    -0.078 C 
ATOM     26  N   UNL     1       0.561  -0.518   1.119  0.00  0.00    +0.384 N 
ATOM     27  H   UNL     1       0.037  -0.282   0.290  0.00  0.00    -0.081 HD
ENDBRANCH  18  26
ENDBRANCH  17  18
ENDBRANCH   1  17
TORSDOF 5
