REMARK  Name = ZINC67450654
REMARK  15 active torsions:
REMARK  status: ('A' for Active; 'I' for Inactive)
REMARK    1  A    between atoms: C_1  and  C_2
REMARK    2  A    between atoms: C_2  and  C_3
REMARK    3  A    between atoms: C_2  and  C_4
REMARK    4  A    between atoms: C_4  and  C_5
REMARK    5  A    between atoms: C_5  and  O_6
REMARK    6  A    between atoms: O_6  and  C_7
REMARK    7  A    between atoms: C_10  and  C_15
REMARK    8  A    between atoms: C_12  and  O_13
REMARK    9  A    between atoms: O_13  and  C_14
REMARK   10  A    between atoms: C_15  and  N_16
REMARK   11  A    between atoms: N_16  and  C_17
REMARK   12  A    between atoms: C_17  and  C_18
REMARK   13  A    between atoms: C_21  and  O_24
REMARK   14  A    between atoms: O_24  and  C_25
REMARK   15  A    between atoms: C_25  and  C_26
REMARK                            x       y       z     vdW  Elec       q    Type
REMARK                         _______ _______ _______ _____ _____    ______ ____
ROOT
ATOM      1  N   UNL     1       9.134  -0.386  -2.251  0.00  0.00    +0.384 N 
ATOM      2  H   UNL     1       8.891  -0.481  -1.276  0.00  0.00    -0.085 HD
ATOM      3  H   UNL     1       8.943  -1.252  -2.731  0.00  0.00    -0.085 HD
ENDROOT
BRANCH   1   4
ATOM      4  C   UNL     1       8.338   0.693  -2.850  0.00  0.00    -0.046 C 
BRANCH   4   8
ATOM      5  C   UNL     1       4.179  -0.238  -2.497  0.00  0.00    +0.162 A 
ATOM      6  C   UNL     1       4.820   0.474  -1.496  0.00  0.00    +0.049 A 
ATOM      7  C   UNL     1       6.164   0.774  -1.613  0.00  0.00    +0.005 A 
ATOM      8  C   UNL     1       6.872   0.364  -2.728  0.00  0.00    -0.061 A 
ATOM      9  C   UNL     1       6.239  -0.347  -3.730  0.00  0.00    +0.051 A 
ATOM     10  C   UNL     1       4.893  -0.656  -3.616  0.00  0.00    +0.162 A 
BRANCH  10  11
ATOM     11  O   UNL     1       4.269  -1.361  -4.598  0.00  0.00    -0.491 OA
ATOM     12  C   UNL     1       5.065  -1.756  -5.717  0.00  0.00    +0.277 C 
ENDBRANCH  10  11
BRANCH   5  13
ATOM     13  O   UNL     1       2.856  -0.534  -2.383  0.00  0.00    -0.488 OA
BRANCH  13  14
ATOM     14  C   UNL     1       2.187  -0.073  -1.207  0.00  0.00    +0.229 C 
BRANCH  14  15
ATOM     15  C   UNL     1       0.718  -0.497  -1.257  0.00  0.00    +0.044 C 
BRANCH  15  17
ATOM     16  C   UNL     1      -0.019   1.526   0.010  0.00  0.00    +0.007 C 
ATOM     17  C   UNL     1       0.002  -0.004   0.002  0.00  0.00    -0.014 C 
ATOM     18  C   UNL     1      -1.433  -0.534   0.013  0.00  0.00    +0.007 C 
ENDBRANCH  15  17
ENDBRANCH  14  15
ENDBRANCH  13  14
ENDBRANCH   5  13
ENDBRANCH   4   8
ENDBRANCH   1   4
BRANCH   1  19
ATOM     19  C   UNL     1      10.562  -0.065  -2.370  0.00  0.00    -0.046 C 
BRANCH  19  20
ATOM     20  C   UNL     1      11.379  -1.172  -1.755  0.00  0.00    -0.064 A 
ATOM     21  C   UNL     1      11.711  -1.121  -0.414  0.00  0.00    +0.005 A 
ATOM     22  C   UNL     1      12.460  -2.134   0.153  0.00  0.00    +0.046 A 
ATOM     23  C   UNL     1      12.879  -3.203  -0.625  0.00  0.00    +0.121 A 
ATOM     24  C   UNL     1      12.544  -3.252  -1.971  0.00  0.00    +0.046 A 
ATOM     25  C   UNL     1      11.791  -2.239  -2.531  0.00  0.00    +0.005 A 
BRANCH  23  26
ATOM     26  O   UNL     1      13.617  -4.201  -0.071  0.00  0.00    -0.483 OA
BRANCH  26  27
ATOM     27  C   UNL     1      14.013  -5.270  -0.932  0.00  0.00    +0.324 C 
BRANCH  27  28
ATOM     28  C   UNL     1      14.817  -6.275  -0.147  0.00  0.00    +0.248 C 
ATOM     29  O   UNL     1      15.029  -6.093   1.033  0.00  0.00    -0.272 OA
ATOM     30  N   UNL     1      15.300  -7.376  -0.757  0.00  0.00    -0.327 N 
ATOM     31  H   UNL     1      15.130  -7.521  -1.701  0.00  0.00    +0.145 HD
ATOM     32  H   UNL     1      15.817  -8.023  -0.252  0.00  0.00    +0.145 HD
ENDBRANCH  27  28
ENDBRANCH  26  27
ENDBRANCH  23  26
ENDBRANCH  19  20
ENDBRANCH   1  19
TORSDOF 12
