REMARK  Name = ZINC35098546
REMARK  10 active torsions:
REMARK  status: ('A' for Active; 'I' for Inactive)
REMARK    1  A    between atoms: C_1  and  C_2
REMARK    2  A    between atoms: C_2  and  C_3
REMARK    3  A    between atoms: C_3  and  C_5
REMARK    4  A    between atoms: C_3  and  C_6
REMARK    5  A    between atoms: C_6  and  C_8
REMARK    6  A    between atoms: C_6  and  N_27
REMARK    7  A    between atoms: C_14  and  C_17
REMARK    8  A    between atoms: N_20  and  C_21
REMARK    9  A    between atoms: C_28  and  C_30
REMARK   10  A    between atoms: C_30  and  C_31
REMARK                            x       y       z     vdW  Elec       q    Type
REMARK                         _______ _______ _______ _____ _____    ______ ____
ROOT
ATOM      1  C   UNL     1       1.099  -2.877   0.040  0.00  0.00    +0.236 C 
ATOM      2  O   UNL     1       0.335  -3.544   0.705  0.00  0.00    -0.274 OA
ATOM      3  N   UNL     1       2.354  -2.651   0.478  0.00  0.00    -0.297 N 
ATOM      4  C   UNL     1       3.314  -1.913  -0.353  0.00  0.00    +0.127 C 
ATOM      5  C   UNL     1       4.569  -2.776  -0.537  0.00  0.00    +0.128 C 
ATOM      6  N   UNL     1       5.000  -3.265   0.780  0.00  0.00    -0.280 N 
ATOM      7  C   UNL     1       4.039  -4.003   1.611  0.00  0.00    +0.092 C 
ATOM      8  C   UNL     1       2.783  -3.135   1.798  0.00  0.00    +0.130 C 
ATOM      9  C   UNL     1       3.666  -5.317   0.920  0.00  0.00    +0.030 C 
ATOM     10  C   UNL     1       6.255  -3.040   1.218  0.00  0.00    +0.303 C 
ATOM     11  O   UNL     1       6.631  -3.533   2.263  0.00  0.00    -0.253 OA
ATOM     12  N   UNL     1       7.092  -2.268   0.496  0.00  0.00    -0.296 N 
ATOM     13  H   UNL     1       6.769  -1.813  -0.297  0.00  0.00    +0.151 HD
ENDROOT
BRANCH  12  14
ATOM     14  C   UNL     1       8.489  -2.117   0.910  0.00  0.00    +0.074 C 
ATOM     15  C   UNL     1       8.595  -1.002   1.952  0.00  0.00    +0.022 C 
ATOM     16  C   UNL     1      10.054  -0.845   2.385  0.00  0.00    +0.002 C 
ATOM     17  C   UNL     1      10.911  -0.489   1.168  0.00  0.00    +0.000 C 
ATOM     18  C   UNL     1      10.805  -1.604   0.126  0.00  0.00    +0.002 C 
ATOM     19  C   UNL     1       9.346  -1.761  -0.306  0.00  0.00    +0.022 C 
ENDBRANCH  12  14
BRANCH   1  20
ATOM     20  C   UNL     1       0.645  -2.299  -1.276  0.00  0.00    +0.162 C 
BRANCH  20  21
ATOM     21  N   UNL     1      -0.437  -3.122  -1.823  0.00  0.00    -0.303 N 
ATOM     22  C   UNL     1      -0.665  -3.139  -3.151  0.00  0.00    +0.218 C 
ATOM     23  O   UNL     1       0.026  -2.473  -3.893  0.00  0.00    -0.275 OA
ATOM     24  H   UNL     1      -0.989  -3.654  -1.229  0.00  0.00    +0.149 HD
BRANCH  22  25
ATOM     25  C   UNL     1      -1.777  -3.985  -3.714  0.00  0.00    +0.138 C 
BRANCH  25  26
ATOM     26  C   UNL     1      -1.820  -3.827  -5.212  0.00  0.00    -0.001 A 
ATOM     27  C   UNL     1      -1.181  -4.549  -6.165  0.00  0.00    +0.011 A 
ATOM     28  C   UNL     1      -1.372  -4.221  -7.494  0.00  0.00    +0.008 A 
ATOM     29  C   UNL     1      -2.192  -3.188  -7.806  0.00  0.00    +0.045 A 
ATOM     30  S   UNL     1      -2.731  -2.645  -6.192  0.00  0.00    -0.101 S 
ENDBRANCH  25  26
ENDBRANCH  22  25
ENDBRANCH  20  21
BRANCH  20  31
ATOM     31  C   UNL     1       0.140  -0.871  -1.059  0.00  0.00    +0.015 C 
ATOM     32  C   UNL     1       1.304   0.021  -0.622  0.00  0.00    +0.010 C 
BRANCH  31  34
ATOM     33  C   UNL     1      -1.530   0.534   0.156  0.00  0.00    +0.004 C 
ATOM     34  C   UNL     1      -0.938  -0.871   0.027  0.00  0.00    +0.002 C 
ENDBRANCH  31  34
ENDBRANCH  20  31
ENDBRANCH   1  20
TORSDOF 7
