REMARK  Name = ZINC08687502
REMARK  9 active torsions:
REMARK  status: ('A' for Active; 'I' for Inactive)
REMARK    1  A    between atoms: C_4  and  O_7
REMARK    2  A    between atoms: O_7  and  C_8
REMARK    3  A    between atoms: C_8  and  C_9
REMARK    4  A    between atoms: N_11  and  C_12
REMARK    5  A    between atoms: C_12  and  C_14
REMARK    6  A    between atoms: C_12  and  N_18
REMARK    7  A    between atoms: C_19  and  S_29
REMARK    8  A    between atoms: N_20  and  C_21
REMARK    9  A    between atoms: C_26  and  C_27
REMARK                            x       y       z     vdW  Elec       q    Type
REMARK                         _______ _______ _______ _____ _____    ______ ____
ROOT
ATOM      1  C   UNL     1      -0.718   1.516   3.824  0.00  0.00    +0.211 C 
ENDROOT
BRANCH   1   4
ATOM      2  C   UNL     1      -0.709   1.422   1.389  0.00  0.00    +0.252 C 
ATOM      3  O   UNL     1      -1.798   1.955   1.394  0.00  0.00    -0.272 OA
ATOM      4  N   UNL     1      -0.083   1.159   2.553  0.00  0.00    -0.291 N 
ATOM      5  H   UNL     1       0.789   0.732   2.549  0.00  0.00    +0.151 HD
BRANCH   2   6
ATOM      6  C   UNL     1      -0.056   1.055   0.082  0.00  0.00    +0.324 C 
BRANCH   6   7
ATOM      7  O   UNL     1      -0.910   1.433  -1.000  0.00  0.00    -0.483 OA
BRANCH   7  11
ATOM      8  C   UNL     1       0.438   0.633  -4.816  0.00  0.00    +0.000 A 
ATOM      9  C   UNL     1      -0.790   1.241  -4.631  0.00  0.00    +0.004 A 
ATOM     10  C   UNL     1      -1.244   1.510  -3.354  0.00  0.00    +0.045 A 
ATOM     11  C   UNL     1      -0.466   1.169  -2.257  0.00  0.00    +0.121 A 
ATOM     12  C   UNL     1       0.769   0.565  -2.446  0.00  0.00    +0.045 A 
ATOM     13  C   UNL     1       1.215   0.293  -3.725  0.00  0.00    +0.004 A 
ENDBRANCH   7  11
ENDBRANCH   6   7
ENDBRANCH   2   6
ENDBRANCH   1   4
BRANCH   1  14
ATOM     14  C   UNL     1      -0.584   0.350   4.806  0.00  0.00    +0.225 C 
ATOM     15 CL   UNL     1       1.162  -0.004   5.085  0.00  0.00    -0.080 Cl
ATOM     16 CL   UNL     1      -1.365   0.790   6.370  0.00  0.00    -0.080 Cl
ATOM     17 CL   UNL     1      -1.391  -1.109   4.121  0.00  0.00    -0.080 Cl
ENDBRANCH   1  14
BRANCH   1  18
ATOM     18  N   UNL     1      -0.062   2.701   4.381  0.00  0.00    -0.302 N 
ATOM     19  C   UNL     1      -0.686   3.921   4.324  0.00  0.00    +0.153 C 
ATOM     20  N   UNL     1      -0.097   4.987   4.824  0.00  0.00    -0.226 NA
ATOM     21  H   UNL     1       0.814   2.624   4.790  0.00  0.00    +0.150 HD
BRANCH  20  22
ATOM     22  C   UNL     1      -0.775   6.165   4.906  0.00  0.00    +0.081 A 
ATOM     23  C   UNL     1      -2.011   6.222   5.556  0.00  0.00    +0.028 A 
ATOM     24  C   UNL     1      -2.692   7.416   5.635  0.00  0.00    +0.002 A 
ATOM     25  C   UNL     1      -2.162   8.569   5.074  0.00  0.00    +0.001 A 
ATOM     26  C   UNL     1      -0.946   8.538   4.429  0.00  0.00    +0.017 A 
ATOM     27  C   UNL     1      -0.233   7.338   4.340  0.00  0.00    +0.088 A 
BRANCH  27  28
ATOM     28  C   UNL     1       1.070   7.299   3.658  0.00  0.00    +0.389 C 
ATOM     29  O   UNL     1       1.683   6.253   3.580  0.00  0.00    -0.241 OA
ATOM     30  O   UNL     1       1.583   8.424   3.120  0.00  0.00    -0.241 OA
ENDBRANCH  27  28
ENDBRANCH  20  22
BRANCH  19  31
ATOM     31  S   UNL     1      -2.277   4.062   3.580  0.00  0.00    -0.108 S 
ATOM     32  H   UNL     1      -2.446   5.461   3.625  0.00  0.00    +0.110 HD
ENDBRANCH  19  31
ENDBRANCH   1  18
TORSDOF 9
