REMARK  Name = ZINC20331554
REMARK  11 active torsions:
REMARK  status: ('A' for Active; 'I' for Inactive)
REMARK    1  A    between atoms: C_1  and  C_2
REMARK    2  A    between atoms: C_2  and  C_3
REMARK    3  A    between atoms: C_2  and  C_4
REMARK    4  A    between atoms: C_7  and  N_10
REMARK    5  A    between atoms: C_11  and  C_13
REMARK    6  A    between atoms: C_13  and  C_14
REMARK    7  A    between atoms: C_14  and  C_15
REMARK    8  A    between atoms: C_15  and  C_16
REMARK    9  A    between atoms: C_16  and  N_17
REMARK   10  A    between atoms: C_24  and  O_30
REMARK   11  A    between atoms: O_30  and  C_31
REMARK                            x       y       z     vdW  Elec       q    Type
REMARK                         _______ _______ _______ _____ _____    ______ ____
ROOT
ATOM      1  N   UNL     1       2.811   5.557   0.021  0.00  0.00    -0.287 N 
ATOM      2  C   UNL     1       2.791   6.233  -1.145  0.00  0.00    +0.279 A 
ATOM      3  O   UNL     1       2.789   5.631  -2.204  0.00  0.00    -0.265 OA
ATOM      4  C   UNL     1       2.767   7.651  -1.128  0.00  0.00    +0.129 A 
ATOM      5  C   UNL     1       2.776   8.297   0.095  0.00  0.00    +0.079 A 
ATOM      6  C   UNL     1       2.753   9.733  -0.185  0.00  0.00    +0.027 A 
ATOM      7  C   UNL     1       2.750  10.873   0.625  0.00  0.00    +0.057 A 
ATOM      8  C   UNL     1       2.724  12.124   0.044  0.00  0.00    +0.121 A 
ATOM      9  C   UNL     1       2.703  12.253  -1.343  0.00  0.00    +0.047 A 
ATOM     10  C   UNL     1       2.706  11.139  -2.151  0.00  0.00    +0.030 A 
ATOM     11  C   UNL     1       2.731   9.867  -1.586  0.00  0.00    +0.049 A 
ATOM     12  N   UNL     1       2.740   8.602  -2.135  0.00  0.00    -0.349 N 
ATOM     13  H   UNL     1       2.729   8.288  -3.188  0.00  0.00    +0.166 HD
ATOM     14  N   UNL     1       2.802   7.550   1.258  0.00  0.00    -0.333 N 
ATOM     15  C   UNL     1       2.819   6.205   1.199  0.00  0.00    +0.161 A 
ATOM     16  S   UNL     1       2.852   5.302   2.652  0.00  0.00    -0.013 S 
ATOM     17  H   UNL     1       2.810   8.055   2.236  0.00  0.00    +0.168 HD
ENDROOT
BRANCH   8  18
ATOM     18  O   UNL     1       2.720  13.235   0.828  0.00  0.00    -0.495 OA
ATOM     19  C   UNL     1       2.694  14.499   0.162  0.00  0.00    +0.277 C 
ENDBRANCH   8  18
BRANCH   1  20
ATOM     20  C   UNL     1       2.831   4.092   0.004  0.00  0.00    +0.127 C 
BRANCH  20  21
ATOM     21  C   UNL     1       1.396   3.562   0.019  0.00  0.00    +0.022 C 
BRANCH  21  22
ATOM     22  C   UNL     1       1.417   2.033   0.002  0.00  0.00    +0.011 C 
BRANCH  22  23
ATOM     23  C   UNL     1      -0.018   1.503   0.017  0.00  0.00    +0.096 C 
BRANCH  23  25
ATOM     24  N   UNL     1      -1.156  -0.694   0.009  0.00  0.00    -0.285 N 
ATOM     25  C   UNL     1       0.002  -0.004   0.000  0.00  0.00    +0.217 C 
ATOM     26  O   UNL     1       1.060  -0.596  -0.021  0.00  0.00    -0.275 OA
ATOM     27  H   UNL     1      -2.113  -0.161   0.106  0.00  0.00    +0.155 HD
BRANCH  24  31
ATOM     28  C   UNL     1      -1.109  -4.846  -0.328  0.00  0.00    -0.045 A 
ATOM     29  C   UNL     1      -0.100  -4.198   0.360  0.00  0.00    +0.006 A 
ATOM     30  C   UNL     1      -0.112  -2.822   0.474  0.00  0.00    +0.023 A 
ATOM     31  C   UNL     1      -1.140  -2.088  -0.104  0.00  0.00    +0.033 A 
ATOM     32  C   UNL     1      -2.156  -2.742  -0.789  0.00  0.00    +0.023 A 
ATOM     33  C   UNL     1      -2.134  -4.118  -0.905  0.00  0.00    +0.006 A 
BRANCH  28  35
ATOM     34  C   UNL     1      -2.359  -6.925   0.185  0.00  0.00    +0.012 C 
ATOM     35  C   UNL     1      -1.093  -6.348  -0.450  0.00  0.00    +0.013 C 
ATOM     36  C   UNL     1      -1.039  -6.739  -1.928  0.00  0.00    +0.012 C 
ENDBRANCH  28  35
ENDBRANCH  24  31
ENDBRANCH  23  25
ENDBRANCH  22  23
ENDBRANCH  21  22
ENDBRANCH  20  21
ENDBRANCH   1  20
TORSDOF 8
