REMARK  Name = ZINC48253048
REMARK  5 active torsions:
REMARK  status: ('A' for Active; 'I' for Inactive)
REMARK    1  A    between atoms: N_7  and  C_12
REMARK    2  A    between atoms: C_12  and  C_13
REMARK    3  A    between atoms: C_13  and  C_14
REMARK    4  A    between atoms: N_16  and  C_17
REMARK    5  A    between atoms: C_17  and  C_18
REMARK                            x       y       z     vdW  Elec       q    Type
REMARK                         _______ _______ _______ _____ _____    ______ ____
ROOT
ATOM      1  C   UNL     1      -1.237  -3.473  -2.531  0.00  0.00    +0.215 C 
ATOM      2  O   UNL     1      -2.068  -3.859  -1.736  0.00  0.00    -0.276 OA
ATOM      3  N   UNL     1      -1.421  -3.677  -3.851  0.00  0.00    -0.311 N 
ATOM      4  H   UNL     1      -0.757  -3.368  -4.486  0.00  0.00    +0.149 HD
ENDROOT
BRANCH   1   5
ATOM      5  C   UNL     1       0.001  -2.766  -2.043  0.00  0.00    +0.115 C 
BRANCH   5   6
ATOM      6  C   UNL     1      -0.036  -2.666  -0.517  0.00  0.00    +0.123 C 
BRANCH   6  13
ATOM      7  C   UNL     1       3.363  -4.901   0.283  0.00  0.00    +0.002 A 
ATOM      8  C   UNL     1       4.339  -4.423   1.138  0.00  0.00    +0.001 A 
ATOM      9  C   UNL     1       4.271  -3.122   1.604  0.00  0.00    +0.016 A 
ATOM     10  C   UNL     1       3.225  -2.304   1.214  0.00  0.00    +0.030 A 
ATOM     11  C   UNL     1       2.234  -2.780   0.354  0.00  0.00    +0.050 A 
ATOM     12  C   UNL     1       2.316  -4.088  -0.109  0.00  0.00    +0.024 A 
ATOM     13  N   UNL     1       1.167  -1.978  -0.043  0.00  0.00    -0.269 N 
ATOM     14  C   UNL     1       1.136  -0.648  -0.035  0.00  0.00    +0.230 C 
ATOM     15  O   UNL     1       0.129  -0.096  -0.424  0.00  0.00    -0.274 OA
ATOM     16  C   UNL     1       2.281   0.208   0.432  0.00  0.00    +0.170 C 
ATOM     17  S   UNL     1       3.129  -0.641   1.798  0.00  0.00    -0.114 S 
ENDBRANCH   6  13
ENDBRANCH   5   6
ENDBRANCH   1   5
BRANCH   3  18
ATOM     18  C   UNL     1      -2.625  -4.364  -4.324  0.00  0.00    +0.141 C 
BRANCH  18  19
ATOM     19  C   UNL     1      -2.588  -4.463  -5.828  0.00  0.00    -0.014 A 
ATOM     20  C   UNL     1      -3.134  -3.454  -6.611  0.00  0.00    +0.010 A 
ATOM     21  C   UNL     1      -3.079  -3.584  -7.987  0.00  0.00    +0.042 A 
ATOM     22  C   UNL     1      -2.482  -4.714  -8.537  0.00  0.00    +0.099 A 
ATOM     23  N   UNL     1      -1.973  -5.654  -7.756  0.00  0.00    -0.349 N 
ATOM     24  C   UNL     1      -2.006  -5.554  -6.441  0.00  0.00    +0.089 A 
ATOM     25  N   UNL     1      -2.421  -4.857  -9.918  0.00  0.00    -0.317 N 
ATOM     26  C   UNL     1      -2.850  -3.755 -10.749  0.00  0.00    +0.106 C 
ATOM     27  C   UNL     1      -4.366  -3.880 -11.038  0.00  0.00    +0.019 C 
ATOM     28  C   UNL     1      -4.619  -4.997 -11.961  0.00  0.00    +0.002 C 
ATOM     29  C   UNL     1      -4.224  -6.366 -11.415  0.00  0.00    +0.002 C 
ATOM     30  C   UNL     1      -2.758  -6.605 -11.677  0.00  0.00    +0.019 C 
ATOM     31  C   UNL     1      -1.915  -6.127 -10.476  0.00  0.00    +0.106 C 
ATOM     32  H   UNL     1      -1.563  -6.434  -8.161  0.00  0.00    +0.167 HD
ENDBRANCH  18  19
ENDBRANCH   3  18
TORSDOF 5
