REMARK  Name = ZINC30618386
REMARK  1 active torsions:
REMARK  status: ('A' for Active; 'I' for Inactive)
REMARK    1  A    between atoms: C_4  and  C_7
REMARK                            x       y       z     vdW  Elec       q    Type
REMARK                         _______ _______ _______ _____ _____    ______ ____
ROOT
ATOM      1  C   UNL     1       0.002  -0.004   0.002  0.00  0.00    -0.041 C 
ATOM      2  C   UNL     1      -0.016   1.311   0.009  0.00  0.00    -0.004 C 
ATOM      3  C   UNL     1       1.232   2.147   0.002  0.00  0.00    +0.137 C 
ATOM      4  N   UNL     1       2.391   1.334   0.391  0.00  0.00    -0.281 N 
ATOM      5  C   UNL     1       2.445   0.104  -0.417  0.00  0.00    +0.114 C 
ATOM      6  C   UNL     1       1.278  -0.798  -0.007  0.00  0.00    +0.054 C 
ATOM      7  C   UNL     1       3.559   2.053   0.274  0.00  0.00    +0.291 A 
ATOM      8  N   UNL     1       4.589   1.697  -0.450  0.00  0.00    -0.195 NA
ATOM      9  C   UNL     1       5.557   2.647  -0.329  0.00  0.00    +0.111 A 
ATOM     10  C   UNL     1       6.837   2.792  -0.865  0.00  0.00    +0.031 A 
ATOM     11  C   UNL     1       7.595   3.894  -0.536  0.00  0.00    +0.002 A 
ATOM     12  C   UNL     1       7.092   4.859   0.324  0.00  0.00    +0.004 A 
ATOM     13  C   UNL     1       5.827   4.728   0.861  0.00  0.00    +0.048 A 
ATOM     14  C   UNL     1       5.052   3.625   0.540  0.00  0.00    +0.157 A 
ATOM     15  O   UNL     1       3.810   3.220   0.892  0.00  0.00    -0.424 OA
ENDROOT
BRANCH   1  19
ATOM     16  C   UNL     1      -3.697  -2.091   0.004  0.00  0.00    +0.000 A 
ATOM     17  C   UNL     1      -3.350  -1.305  -1.080  0.00  0.00    +0.001 A 
ATOM     18  C   UNL     1      -2.150  -0.625  -1.087  0.00  0.00    +0.008 A 
ATOM     19  C   UNL     1      -1.285  -0.731   0.003  0.00  0.00    -0.022 A 
ATOM     20  C   UNL     1      -1.638  -1.530   1.091  0.00  0.00    +0.008 A 
ATOM     21  C   UNL     1      -2.844  -2.200   1.088  0.00  0.00    +0.001 A 
ENDBRANCH   1  19
TORSDOF 1
