REMARK  Name = ZINC39711401
REMARK  11 active torsions:
REMARK  status: ('A' for Active; 'I' for Inactive)
REMARK    1  A    between atoms: C_1  and  C_2
REMARK    2  A    between atoms: C_2  and  O_3
REMARK    3  A    between atoms: O_3  and  C_4
REMARK    4  A    between atoms: C_11  and  C_16
REMARK    5  A    between atoms: C_16  and  C_18
REMARK    6  A    between atoms: C_16  and  N_28
REMARK    7  A    between atoms: N_23  and  C_24
REMARK    8  A    between atoms: C_24  and  C_25
REMARK    9  A    between atoms: C_24  and  C_26
REMARK   10  A    between atoms: C_24  and  C_27
REMARK   11  A    between atoms: C_34  and  C_36
REMARK                            x       y       z     vdW  Elec       q    Type
REMARK                         _______ _______ _______ _____ _____    ______ ____
ROOT
ATOM      1  C   UNL     1      -5.537  -6.146  -1.148  0.00  0.00    -0.009 C 
ENDROOT
BRANCH   1   9
ATOM      2  C   UNL     1      -1.058  -9.882  -1.414  0.00  0.00    +0.121 A 
ATOM      3  C   UNL     1      -1.373 -10.420  -0.160  0.00  0.00    +0.047 A 
ATOM      4  C   UNL     1      -2.260  -9.835   0.685  0.00  0.00    +0.027 A 
ATOM      5  C   UNL     1      -2.911  -8.640   0.325  0.00  0.00    +0.041 A 
ATOM      6  N   UNL     1      -3.780  -8.077   1.165  0.00  0.00    -0.285 N 
ATOM      7  C   UNL     1      -4.426  -6.957   0.891  0.00  0.00    +0.223 C 
ATOM      8  O   UNL     1      -5.208  -6.490   1.698  0.00  0.00    -0.275 OA
ATOM      9  C   UNL     1      -4.191  -6.258  -0.429  0.00  0.00    +0.088 C 
ATOM     10  C   UNL     1      -3.204  -6.894  -1.388  0.00  0.00    -0.006 C 
ATOM     11  C   UNL     1      -2.601  -8.050  -0.989  0.00  0.00    -0.004 A 
ATOM     12  C   UNL     1      -1.631  -8.726  -1.851  0.00  0.00    +0.055 A 
ATOM     13  H   UNL     1      -3.945  -8.510   2.017  0.00  0.00    +0.155 HD
BRANCH   2  14
ATOM     14  O   UNL     1      -0.160 -10.523  -2.208  0.00  0.00    -0.492 OA
BRANCH  14  16
ATOM     15  C   UNL     1       1.390 -12.303  -2.725  0.00  0.00    +0.048 C 
ATOM     16  C   UNL     1       0.410 -11.730  -1.699  0.00  0.00    +0.225 C 
ENDBRANCH  14  16
ENDBRANCH   2  14
ENDBRANCH   1   9
BRANCH   1  17
ATOM     17  N   UNL     1      -6.218  -7.447  -1.118  0.00  0.00    +0.387 N 
ATOM     18  C   UNL     1      -7.172  -7.524  -2.231  0.00  0.00    -0.059 C 
ATOM     19  C   UNL     1      -7.799  -8.922  -2.269  0.00  0.00    +0.089 C 
ATOM     20  N   UNL     1      -8.382  -9.208  -0.949  0.00  0.00    -0.299 N 
ATOM     21  C   UNL     1      -7.541  -8.999   0.240  0.00  0.00    +0.089 C 
ATOM     22  C   UNL     1      -6.926  -7.598   0.160  0.00  0.00    -0.059 C 
ATOM     23  C   UNL     1      -9.650  -9.648  -0.832  0.00  0.00    +0.282 C 
ATOM     24  O   UNL     1     -10.299  -9.906  -1.829  0.00  0.00    -0.267 OA
ATOM     25  H   UNL     1      -5.535  -8.185  -1.212  0.00  0.00    -0.081 HD
BRANCH  23  26
ATOM     26  C   UNL     1     -10.248  -9.817   0.496  0.00  0.00    +0.189 A 
ATOM     27  C   UNL     1     -11.476 -10.352   0.761  0.00  0.00    +0.054 A 
ATOM     28  C   UNL     1     -11.638 -10.320   2.155  0.00  0.00    +0.042 A 
ATOM     29  C   UNL     1     -10.515  -9.774   2.674  0.00  0.00    +0.196 A 
ATOM     30  O   UNL     1      -9.678  -9.477   1.671  0.00  0.00    -0.458 OA
ENDBRANCH  23  26
ENDBRANCH   1  17
BRANCH   1  31
ATOM     31  C   UNL     1      -5.306  -5.725  -2.601  0.00  0.00    +0.205 C 
ATOM     32  N   UNL     1      -4.378  -6.652  -3.262  0.00  0.00    -0.152 NA
ATOM     33  N   UNL     1      -3.378  -6.027  -3.622  0.00  0.00    -0.070 NA
ATOM     34  N   UNL     1      -3.439  -4.672  -3.298  0.00  0.00    -0.179 N 
ATOM     35  N   UNL     1      -4.625  -4.414  -2.655  0.00  0.00    -0.183 NA
ATOM     36  H   UNL     1      -2.753  -4.016  -3.496  0.00  0.00    +0.191 HD
BRANCH  35  37
ATOM     37  C   UNL     1      -4.389  -3.886  -1.305  0.00  0.00    +0.035 C 
ATOM     38  C   UNL     1      -3.054  -4.416  -0.777  0.00  0.00    +0.029 C 
ATOM     39  C   UNL     1      -4.348  -2.358  -1.355  0.00  0.00    +0.029 C 
ATOM     40  C   UNL     1      -5.519  -4.336  -0.377  0.00  0.00    +0.029 C 
ENDBRANCH  35  37
ENDBRANCH   1  31
TORSDOF 7
