REMARK  Name = ZINC35567113
REMARK  10 active torsions:
REMARK  status: ('A' for Active; 'I' for Inactive)
REMARK    1  A    between atoms: C_1  and  C_2
REMARK    2  A    between atoms: C_3  and  C_8
REMARK    3  A    between atoms: C_5  and  C_7
REMARK    4  A    between atoms: C_8  and  C_10
REMARK    5  A    between atoms: N_14  and  C_27
REMARK    6  A    between atoms: C_15  and  C_17
REMARK    7  A    between atoms: C_27  and  C_28
REMARK    8  A    between atoms: C_28  and  N_29
REMARK    9  A    between atoms: N_29  and  C_30
REMARK   10  A    between atoms: N_29  and  C_31
REMARK                            x       y       z     vdW  Elec       q    Type
REMARK                         _______ _______ _______ _____ _____    ______ ____
ROOT
ATOM      1  C   UNL     1       0.258  -1.225  -3.428  0.00  0.00    +0.077 C 
ATOM      2  C   UNL     1       0.316  -0.728  -4.685  0.00  0.00    +0.249 C 
ATOM      3  C   UNL     1       0.280  -1.845  -5.651  0.00  0.00    +0.288 C 
ATOM      4  O   UNL     1       0.317  -1.723  -6.859  0.00  0.00    -0.266 OA
ATOM      5  N   UNL     1       0.201  -3.017  -4.995  0.00  0.00    -0.285 N 
ATOM      6  C   UNL     1       0.186  -2.728  -3.556  0.00  0.00    +0.145 C 
ATOM      7  O   UNL     1       0.395   0.584  -5.007  0.00  0.00    -0.282 OA
ENDROOT
BRANCH   6   8
ATOM      8  C   UNL     1      -1.090  -3.240  -2.941  0.00  0.00    -0.015 A 
ATOM      9  C   UNL     1      -2.151  -2.405  -2.771  0.00  0.00    +0.006 A 
ATOM     10  C   UNL     1      -3.340  -2.860  -2.203  0.00  0.00    +0.001 A 
ATOM     11  C   UNL     1      -3.474  -4.154  -1.802  0.00  0.00    +0.008 A 
ATOM     12  C   UNL     1      -2.401  -5.046  -1.962  0.00  0.00    -0.018 A 
ATOM     13  C   UNL     1      -1.194  -4.585  -2.545  0.00  0.00    -0.013 A 
ATOM     14  C   UNL     1      -0.122  -5.479  -2.710  0.00  0.00    +0.009 A 
ATOM     15  C   UNL     1      -0.259  -6.774  -2.314  0.00  0.00    +0.001 A 
ATOM     16  C   UNL     1      -1.448  -7.229  -1.747  0.00  0.00    +0.001 A 
ATOM     17  C   UNL     1      -2.502  -6.389  -1.560  0.00  0.00    +0.008 A 
ENDBRANCH   6   8
BRANCH   1  18
ATOM     18  C   UNL     1       0.270  -0.452  -2.180  0.00  0.00    +0.203 C 
ATOM     19  O   UNL     1       0.220   0.765  -2.217  0.00  0.00    -0.286 OA
BRANCH  18  22
ATOM     20  C   UNL     1       0.042   0.836   0.661  0.00  0.00    +0.067 C 
ATOM     21  C   UNL     1       0.246  -0.634   0.400  0.00  0.00    +0.057 A 
ATOM     22  C   UNL     1       0.340  -1.145  -0.890  0.00  0.00    +0.082 A 
ATOM     23  S   UNL     1       0.570  -2.880  -0.536  0.00  0.00    -0.069 S 
ATOM     24  C   UNL     1       0.525  -2.783   1.144  0.00  0.00    +0.076 A 
ATOM     25  N   UNL     1       0.351  -1.501   1.375  0.00  0.00    -0.249 NA
ATOM     26  C   UNL     1       0.659  -3.900   2.146  0.00  0.00    +0.073 C 
ENDBRANCH  18  22
ENDBRANCH   1  18
BRANCH   5  27
ATOM     27  C   UNL     1       0.144  -4.346  -5.609  0.00  0.00    +0.090 C 
BRANCH  27  28
ATOM     28  C   UNL     1       1.564  -4.887  -5.787  0.00  0.00    -0.060 C 
BRANCH  28  29
ATOM     29  N   UNL     1       1.507  -6.220  -6.402  0.00  0.00    +0.377 N 
ATOM     30  C   UNL     1       2.871  -6.688  -6.682  0.00  0.00    -0.097 C 
ATOM     31  C   UNL     1       0.847  -7.156  -5.482  0.00  0.00    -0.097 C 
ATOM     32  H   UNL     1       0.985  -6.170  -7.264  0.00  0.00    -0.083 HD
ENDBRANCH  28  29
ENDBRANCH  27  28
ENDBRANCH   5  27
TORSDOF 6
