REMARK  Name = ZINC08162099
REMARK  3 active torsions:
REMARK  status: ('A' for Active; 'I' for Inactive)
REMARK    1  A    between atoms: C_9  and  C_11
REMARK    2  A    between atoms: C_12  and  C_13
REMARK    3  A    between atoms: C_23  and  C_25
REMARK                            x       y       z     vdW  Elec       q    Type
REMARK                         _______ _______ _______ _____ _____    ______ ____
ROOT
ATOM      1  C   UNL     1       6.291   2.405   1.084  0.00  0.00    +0.240 C 
ATOM      2  O   UNL     1       6.379   3.605   0.911  0.00  0.00    -0.271 OA
ATOM      3  N   UNL     1       7.294   1.593   0.696  0.00  0.00    -0.286 N 
ATOM      4  C   UNL     1       7.165   0.133   0.825  0.00  0.00    +0.114 C 
ATOM      5  C   UNL     1       7.173  -0.473  -0.592  0.00  0.00    +0.062 C 
ATOM      6  C   UNL     1       8.240   0.200  -1.394  0.00  0.00    -0.003 A 
ATOM      7  C   UNL     1       8.880   1.369  -1.120  0.00  0.00    -0.012 A 
ATOM      8  C   UNL     1       9.841   1.787  -2.040  0.00  0.00    +0.013 A 
ATOM      9  C   UNL     1      10.098   1.038  -3.137  0.00  0.00    +0.046 A 
ATOM     10  S   UNL     1       8.967  -0.328  -2.923  0.00  0.00    -0.101 S 
ATOM     11  C   UNL     1       8.535   2.153   0.145  0.00  0.00    +0.144 C 
ENDROOT
BRANCH  11  12
ATOM     12  C   UNL     1       8.331   3.607  -0.196  0.00  0.00    +0.015 A 
ATOM     13  C   UNL     1       8.936   4.700   0.330  0.00  0.00    +0.013 A 
ATOM     14  C   UNL     1       8.590   5.951  -0.145  0.00  0.00    +0.008 A 
ATOM     15  C   UNL     1       7.649   6.049  -1.115  0.00  0.00    +0.045 A 
ATOM     16  S   UNL     1       7.225   4.337  -1.392  0.00  0.00    -0.099 S 
ENDBRANCH  11  12
BRANCH   1  18
ATOM     17  C   UNL     1       4.118   2.655   2.161  0.00  0.00    +0.033 C 
ATOM     18  C   UNL     1       5.092   1.840   1.715  0.00  0.00    +0.069 C 
BRANCH  17  27
ATOM     19  C   UNL     1      -0.511  -0.908   4.669  0.00  0.00    +0.001 A 
ATOM     20  C   UNL     1       0.521  -1.716   4.194  0.00  0.00    +0.002 A 
ATOM     21  C   UNL     1       1.625  -1.176   3.612  0.00  0.00    +0.028 A 
ATOM     22  C   UNL     1       1.734   0.222   3.484  0.00  0.00    +0.072 A 
ATOM     23  C   UNL     1       0.682   1.042   3.968  0.00  0.00    +0.000 A 
ATOM     24  C   UNL     1      -0.442   0.448   4.564  0.00  0.00    +0.010 A 
ATOM     25  C   UNL     1       0.788   2.441   3.842  0.00  0.00    +0.012 A 
ATOM     26  C   UNL     1       1.907   2.954   3.254  0.00  0.00    +0.028 A 
ATOM     27  C   UNL     1       2.914   2.088   2.795  0.00  0.00    +0.065 A 
ATOM     28  N   UNL     1       2.806   0.777   2.918  0.00  0.00    -0.247 NA
ENDBRANCH  17  27
ENDBRANCH   1  18
TORSDOF 3
