REMARK  Name = ZINC39896074
REMARK  13 active torsions:
REMARK  status: ('A' for Active; 'I' for Inactive)
REMARK    1  A    between atoms: C_1  and  C_2
REMARK    2  A    between atoms: C_2  and  C_3
REMARK    3  A    between atoms: C_2  and  C_4
REMARK    4  A    between atoms: C_7  and  C_10
REMARK    5  A    between atoms: C_10  and  C_11
REMARK    6  A    between atoms: N_15  and  C_31
REMARK    7  A    between atoms: C_17  and  C_18
REMARK    8  A    between atoms: C_17  and  C_20
REMARK    9  A    between atoms: N_22  and  C_23
REMARK   10  A    between atoms: C_23  and  C_24
REMARK   11  A    between atoms: C_34  and  C_37
REMARK   12  A    between atoms: C_37  and  C_38
REMARK   13  A    between atoms: C_37  and  C_39
REMARK                            x       y       z     vdW  Elec       q    Type
REMARK                         _______ _______ _______ _____ _____    ______ ____
ROOT
ATOM      1  C   UNL     1      -6.142  -1.715  -0.864  0.00  0.00    +0.143 C 
ATOM      2  C   UNL     1      -7.631  -2.014  -0.787  0.00  0.00    +0.238 C 
ATOM      3  O   UNL     1      -8.117  -2.643   0.129  0.00  0.00    -0.274 OA
ATOM      4  N   UNL     1      -8.363  -1.546  -1.784  0.00  0.00    -0.232 N 
ATOM      5  C   UNL     1      -7.824  -0.834  -2.827  0.00  0.00    +0.098 C 
ATOM      6  C   UNL     1      -8.483  -0.290  -3.931  0.00  0.00    +0.141 C 
ATOM      7  S   UNL     1      -6.080  -0.765  -2.439  0.00  0.00    -0.095 S 
ENDROOT
BRANCH   4   8
ATOM      8  C   UNL     1      -9.743  -1.787  -1.776  0.00  0.00    +0.042 A 
ATOM      9  C   UNL     1     -10.605  -0.874  -1.183  0.00  0.00    +0.024 A 
ATOM     10  C   UNL     1     -11.966  -1.115  -1.177  0.00  0.00    +0.006 A 
ATOM     11  C   UNL     1     -12.469  -2.263  -1.760  0.00  0.00    -0.045 A 
ATOM     12  C   UNL     1     -11.613  -3.174  -2.351  0.00  0.00    +0.006 A 
ATOM     13  C   UNL     1     -10.252  -2.936  -2.366  0.00  0.00    +0.024 A 
BRANCH  11  14
ATOM     14  C   UNL     1     -13.953  -2.522  -1.750  0.00  0.00    +0.013 C 
ATOM     15  C   UNL     1     -14.462  -2.628  -3.190  0.00  0.00    +0.012 C 
ATOM     16  C   UNL     1     -14.238  -3.832  -1.012  0.00  0.00    +0.012 C 
ENDBRANCH  11  14
ENDBRANCH   4   8
BRANCH   6  17
ATOM     17  C   UNL     1      -7.746   0.533  -4.889  0.00  0.00    +0.257 C 
ATOM     18  O   UNL     1      -6.559   0.744  -4.725  0.00  0.00    -0.269 OA
ATOM     19  N   UNL     1      -8.383   1.058  -5.955  0.00  0.00    -0.307 N 
ATOM     20  H   UNL     1      -9.329   0.890  -6.086  0.00  0.00    +0.149 HD
BRANCH  19  21
ATOM     21  C   UNL     1      -7.645   1.883  -6.916  0.00  0.00    +0.139 C 
BRANCH  21  22
ATOM     22  C   UNL     1      -8.580   2.343  -8.004  0.00  0.00    -0.030 A 
ATOM     23  C   UNL     1      -8.751   1.573  -9.140  0.00  0.00    +0.005 A 
ATOM     24  C   UNL     1      -9.608   1.996 -10.139  0.00  0.00    +0.000 A 
ATOM     25  C   UNL     1     -10.295   3.187 -10.002  0.00  0.00    +0.000 A 
ATOM     26  C   UNL     1     -10.125   3.957  -8.866  0.00  0.00    +0.000 A 
ATOM     27  C   UNL     1      -9.271   3.533  -7.865  0.00  0.00    +0.005 A 
ENDBRANCH  21  22
ENDBRANCH  19  21
ENDBRANCH   6  17
BRANCH   6  28
ATOM     28  C   UNL     1      -9.880  -0.538  -4.124  0.00  0.00    +0.107 C 
ATOM     29  N   UNL     1     -10.988  -0.735  -4.278  0.00  0.00    -0.191 NA
ENDBRANCH   6  28
BRANCH   1  30
ATOM     30  C   UNL     1      -5.321  -3.002  -0.958  0.00  0.00    +0.059 C 
BRANCH  30  34
ATOM     31  C   UNL     1      -1.163  -2.034  -1.086  0.00  0.00    -0.045 A 
ATOM     32  C   UNL     1      -1.786  -2.246   0.129  0.00  0.00    +0.004 A 
ATOM     33  C   UNL     1      -3.132  -2.559   0.171  0.00  0.00    +0.004 A 
ATOM     34  C   UNL     1      -3.854  -2.660  -1.003  0.00  0.00    -0.046 A 
ATOM     35  C   UNL     1      -3.231  -2.447  -2.219  0.00  0.00    +0.004 A 
ATOM     36  C   UNL     1      -1.886  -2.130  -2.260  0.00  0.00    +0.004 A 
BRANCH  31  38
ATOM     37  C   UNL     1       0.552  -0.400  -0.353  0.00  0.00    +0.012 C 
ATOM     38  C   UNL     1       0.305  -1.693  -1.131  0.00  0.00    +0.013 C 
ATOM     39  C   UNL     1       1.112  -2.830  -0.501  0.00  0.00    +0.012 C 
ENDBRANCH  31  38
ENDBRANCH  30  34
ENDBRANCH   1  30
TORSDOF 9
