REMARK  Name = ZINC65182128
REMARK  8 active torsions:
REMARK  status: ('A' for Active; 'I' for Inactive)
REMARK    1  A    between atoms: C_1  and  C_2
REMARK    2  A    between atoms: C_7  and  C_12
REMARK    3  A    between atoms: C_15  and  C_18
REMARK    4  A    between atoms: C_18  and  C_19
REMARK    5  A    between atoms: C_19  and  N_20
REMARK    6  A    between atoms: N_20  and  C_21
REMARK    7  A    between atoms: C_22  and  C_24
REMARK    8  A    between atoms: C_27  and  C_29
REMARK                            x       y       z     vdW  Elec       q    Type
REMARK                         _______ _______ _______ _____ _____    ______ ____
ROOT
ATOM      1  C   UNL     1      -0.863  -6.107   2.159  0.00  0.00    +0.318 C 
ATOM      2  N   UNL     1      -0.878  -7.260   1.244  0.00  0.00    -0.291 N 
ATOM      3  C   UNL     1      -2.051  -7.185   0.530  0.00  0.00    +0.139 C 
ATOM      4  N   UNL     1      -2.747  -6.163   0.873  0.00  0.00    -0.072 NA
ATOM      5  O   UNL     1      -2.095  -5.420   1.889  0.00  0.00    -0.367 OA
ATOM      6  H   UNL     1      -0.193  -7.941   1.162  0.00  0.00    +0.151 HD
ENDROOT
BRANCH   1  13
ATOM      7  C   UNL     1       0.055   0.880   1.730  0.00  0.00    +0.044 C 
ATOM      8  C   UNL     1       0.093  -0.588   1.393  0.00  0.00    -0.050 A 
ATOM      9  C   UNL     1       0.002  -0.983   0.051  0.00  0.00    +0.005 A 
ATOM     10  C   UNL     1       0.028  -2.277  -0.332  0.00  0.00    +0.026 A 
ATOM     11  C   UNL     1       0.152  -3.311   0.637  0.00  0.00    +0.043 A 
ATOM     12  N   UNL     1       0.199  -4.616   0.520  0.00  0.00    -0.373 N 
ATOM     13  C   UNL     1       0.332  -5.201   1.859  0.00  0.00    +0.165 C 
ATOM     14  C   UNL     1       0.359  -4.034   2.821  0.00  0.00    +0.012 C 
ATOM     15  C   UNL     1       0.249  -2.920   2.062  0.00  0.00    -0.004 A 
ATOM     16  C   UNL     1       0.219  -1.491   2.393  0.00  0.00    +0.013 A 
ATOM     17  H   UNL     1       0.153  -5.112  -0.312  0.00  0.00    +0.160 HD
ENDBRANCH   1  13
BRANCH   3  18
ATOM     18  C   UNL     1      -2.466  -8.179  -0.525  0.00  0.00    +0.094 C 
BRANCH  18  19
ATOM     19  C   UNL     1      -3.824  -7.773  -1.102  0.00  0.00    +0.115 C 
BRANCH  19  20
ATOM     20  N   UNL     1      -4.227  -8.739  -2.127  0.00  0.00    -0.300 N 
ATOM     21  C   UNL     1      -5.012  -9.918  -1.754  0.00  0.00    +0.132 C 
ATOM     22  C   UNL     1      -3.875  -8.543  -3.413  0.00  0.00    +0.253 C 
ATOM     23  O   UNL     1      -3.136  -7.623  -3.708  0.00  0.00    -0.269 OA
BRANCH  22  24
ATOM     24  C   UNL     1      -4.382  -9.439  -4.456  0.00  0.00    +0.074 A 
ATOM     25  C   UNL     1      -4.054  -9.487  -5.803  0.00  0.00    +0.021 A 
ATOM     26  C   UNL     1      -4.703 -10.447  -6.541  0.00  0.00    +0.011 A 
ATOM     27  C   UNL     1      -5.595 -11.262  -5.925  0.00  0.00    -0.013 A 
ATOM     28  S   UNL     1      -5.576 -10.756  -4.323  0.00  0.00    -0.089 S 
ATOM     29  C   UNL     1      -6.411 -12.372  -6.536  0.00  0.00    +0.051 C 
ENDBRANCH  22  24
ENDBRANCH  19  20
ENDBRANCH  18  19
ENDBRANCH   3  18
TORSDOF 5
