REMARK  Name = ZINC59293288
REMARK  13 active torsions:
REMARK  status: ('A' for Active; 'I' for Inactive)
REMARK    1  A    between atoms: C_1  and  C_2
REMARK    2  A    between atoms: C_2  and  O_3
REMARK    3  A    between atoms: O_3  and  C_4
REMARK    4  A    between atoms: C_4  and  C_6
REMARK    5  A    between atoms: C_7  and  N_32
REMARK    6  A    between atoms: C_9  and  C_27
REMARK    7  A    between atoms: C_10  and  C_23
REMARK    8  A    between atoms: N_18  and  C_21
REMARK    9  A    between atoms: C_23  and  O_25
REMARK   10  A    between atoms: O_25  and  C_26
REMARK   11  A    between atoms: C_27  and  C_28
REMARK   12  A    between atoms: C_28  and  O_30
REMARK   13  A    between atoms: O_30  and  C_31
REMARK                            x       y       z     vdW  Elec       q    Type
REMARK                         _______ _______ _______ _____ _____    ______ ____
ROOT
ATOM      1  C   UNL     1      -2.877  -2.232   0.189  0.00  0.00    +0.117 C 
ATOM      2  C   UNL     1      -2.841  -3.580   0.011  0.00  0.00    +0.195 C 
ATOM      3  O   UNL     1      -3.967  -4.296  -0.151  0.00  0.00    -0.445 OA
ATOM      4  C   UNL     1      -5.153  -3.780   0.206  0.00  0.00    +0.129 C 
ATOM      5  C   UNL     1      -5.326  -2.464   0.395  0.00  0.00    +0.099 C 
ATOM      6  C   UNL     1      -4.189  -1.503   0.220  0.00  0.00    +0.145 C 
ATOM      7  C   UNL     1      -4.373  -0.695  -1.041  0.00  0.00    -0.001 A 
ATOM      8  C   UNL     1      -4.457  -1.036  -2.372  0.00  0.00    +0.022 A 
ATOM      9  C   UNL     1      -4.631  -0.050  -3.328  0.00  0.00    +0.018 A 
ATOM     10  C   UNL     1      -4.721   1.276  -2.942  0.00  0.00    +0.017 A 
ATOM     11  C   UNL     1      -4.639   1.619  -1.608  0.00  0.00    +0.025 A 
ATOM     12  C   UNL     1      -4.464   0.633  -0.640  0.00  0.00    +0.041 A 
ATOM     13  N   UNL     1      -4.353   0.727   0.748  0.00  0.00    -0.273 N 
ATOM     14  C   UNL     1      -4.191  -0.476   1.328  0.00  0.00    +0.240 C 
ATOM     15  O   UNL     1      -4.069  -0.695   2.515  0.00  0.00    -0.274 OA
ATOM     16  C   UNL     1      -4.409   1.990   1.489  0.00  0.00    +0.138 C 
ATOM     17 BR   UNL     1      -4.745  -0.513  -5.158  0.00  0.00    -0.050 Br
ENDROOT
BRANCH   2  18
ATOM     18  N   UNL     1      -1.631  -4.221  -0.006  0.00  0.00    -0.329 N 
ATOM     19  H   UNL     1      -0.818  -3.728   0.186  0.00  0.00    +0.145 HD
ATOM     20  H   UNL     1      -1.587  -5.169  -0.209  0.00  0.00    +0.145 HD
ENDBRANCH   2  18
BRANCH   1  21
ATOM     21  C   UNL     1      -1.679  -1.519   0.352  0.00  0.00    +0.342 C 
ATOM     22  O   UNL     1      -1.211  -0.893  -0.582  0.00  0.00    -0.245 OA
BRANCH  21  23
ATOM     23  O   UNL     1      -1.046  -1.527   1.545  0.00  0.00    -0.462 OA
BRANCH  23  25
ATOM     24  C   UNL     1       0.737  -0.907   3.054  0.00  0.00    +0.048 C 
ATOM     25  C   UNL     1       0.169  -0.780   1.640  0.00  0.00    +0.229 C 
ENDBRANCH  23  25
ENDBRANCH  21  23
ENDBRANCH   1  21
BRANCH   5  26
ATOM     26  C   UNL     1      -6.602  -1.974   0.770  0.00  0.00    +0.340 C 
ATOM     27  O   UNL     1      -7.338  -1.488  -0.069  0.00  0.00    -0.245 OA
BRANCH  26  28
ATOM     28  O   UNL     1      -7.000  -2.046   2.057  0.00  0.00    -0.465 OA
ATOM     29  C   UNL     1      -8.299  -1.533   2.363  0.00  0.00    +0.280 C 
ENDBRANCH  26  28
ENDBRANCH   5  26
BRANCH   4  30
ATOM     30  C   UNL     1      -6.325  -4.706   0.401  0.00  0.00    +0.195 C 
BRANCH  30  31
ATOM     31  C   UNL     1      -6.999  -4.950  -0.924  0.00  0.00    +0.314 C 
ATOM     32  O   UNL     1      -6.572  -4.424  -1.925  0.00  0.00    -0.250 OA
BRANCH  31  33
ATOM     33  O   UNL     1      -8.075  -5.750  -0.994  0.00  0.00    -0.468 OA
ATOM     34  C   UNL     1      -8.663  -5.936  -2.283  0.00  0.00    +0.280 C 
ENDBRANCH  31  33
ENDBRANCH  30  31
ENDBRANCH   4  30
TORSDOF 9
