REMARK  Name = ZINC31046990
REMARK  9 active torsions:
REMARK  status: ('A' for Active; 'I' for Inactive)
REMARK    1  A    between atoms: C_1  and  C_2
REMARK    2  A    between atoms: C_2  and  C_4
REMARK    3  A    between atoms: C_2  and  C_15
REMARK    4  A    between atoms: C_4  and  C_5
REMARK    5  A    between atoms: C_15  and  N_16
REMARK    6  A    between atoms: C_17  and  C_19
REMARK    7  A    between atoms: N_24  and  C_26
REMARK    8  A    between atoms: C_26  and  C_27
REMARK    9  A    between atoms: C_29  and  C_32
REMARK                            x       y       z     vdW  Elec       q    Type
REMARK                         _______ _______ _______ _____ _____    ______ ____
ROOT
ATOM      1  C   UNL     1      -1.293  -0.775   0.010  0.00  0.00    +0.058 C 
ATOM      2  C   UNL     1      -2.089  -0.424   1.270  0.00  0.00    +0.009 C 
ATOM      3  C   UNL     1      -3.374  -1.256   1.300  0.00  0.00    -0.018 C 
ATOM      4  C   UNL     1      -3.015  -2.742   1.257  0.00  0.00    -0.078 C 
ATOM      5  N   UNL     1      -2.254  -3.028   0.034  0.00  0.00    +0.386 N 
ATOM      6  C   UNL     1      -0.993  -2.276   0.004  0.00  0.00    -0.065 C 
ATOM      7  H   UNL     1      -2.861  -2.699  -0.823  0.00  0.00    -0.081 HD
ENDROOT
BRANCH   1   9
ATOM      8  N   UNL     1      -0.016   1.344   0.009  0.00  0.00    -0.315 N 
ATOM      9  C   UNL     1       0.002  -0.004   0.002  0.00  0.00    +0.214 C 
ATOM     10  O   UNL     1       1.060  -0.596  -0.011  0.00  0.00    -0.276 OA
ATOM     11  H   UNL     1      -0.976   1.881   0.021  0.00  0.00    +0.149 HD
BRANCH   8  12
ATOM     12  C   UNL     1       1.242   2.093   0.001  0.00  0.00    +0.107 C 
BRANCH  12  14
ATOM     13  C   UNL     1       0.257   3.967   1.328  0.00  0.00    +0.009 C 
ATOM     14  C   UNL     1       0.943   3.594   0.012  0.00  0.00    +0.007 C 
BRANCH  14  15
ATOM     15  C   UNL     1       2.250   4.376  -0.122  0.00  0.00    +0.040 C 
BRANCH  15  16
ATOM     16  C   UNL     1       1.946   5.848  -0.234  0.00  0.00    -0.039 A 
ATOM     17  C   UNL     1       1.849   6.435  -1.459  0.00  0.00    +0.004 A 
ATOM     18  C   UNL     1       1.568   7.793  -1.583  0.00  0.00    +0.001 A 
ATOM     19  C   UNL     1       1.381   8.574  -0.483  0.00  0.00    +0.008 A 
ATOM     20  C   UNL     1       1.474   8.004   0.798  0.00  0.00    -0.018 A 
ATOM     21  C   UNL     1       1.755   6.620   0.924  0.00  0.00    -0.015 A 
ATOM     22  C   UNL     1       1.853   6.051   2.205  0.00  0.00    +0.009 A 
ATOM     23  C   UNL     1       1.667   6.831   3.304  0.00  0.00    +0.001 A 
ATOM     24  C   UNL     1       1.386   8.191   3.180  0.00  0.00    +0.001 A 
ATOM     25  C   UNL     1       1.288   8.777   1.956  0.00  0.00    +0.008 A 
ENDBRANCH  15  16
ENDBRANCH  14  15
ENDBRANCH  12  14
ENDBRANCH   8  12
ENDBRANCH   1   9
BRANCH   5  26
ATOM     26  C   UNL     1      -2.011  -4.470  -0.111  0.00  0.00    +0.022 C 
BRANCH  26  27
ATOM     27  C   UNL     1      -3.322  -5.181  -0.329  0.00  0.00    +0.211 A 
ATOM     28  N   UNL     1      -3.894  -5.421  -1.482  0.00  0.00    -0.193 NA
ATOM     29  C   UNL     1      -5.040  -6.077  -1.190  0.00  0.00    +0.202 A 
ATOM     30  N   UNL     1      -5.099  -6.189   0.112  0.00  0.00    -0.056 NA
ATOM     31  O   UNL     1      -4.122  -5.680   0.619  0.00  0.00    -0.340 OA
BRANCH  29  32
ATOM     32  C   UNL     1      -6.044  -6.573  -2.163  0.00  0.00    +0.023 A 
ATOM     33  C   UNL     1      -5.850  -6.377  -3.529  0.00  0.00    +0.013 A 
ATOM     34  C   UNL     1      -6.783  -6.846  -4.431  0.00  0.00    +0.021 A 
ATOM     35  C   UNL     1      -7.918  -7.499  -3.979  0.00  0.00    +0.041 A 
ATOM     36  C   UNL     1      -8.118  -7.691  -2.623  0.00  0.00    +0.021 A 
ATOM     37  C   UNL     1      -7.187  -7.231  -1.714  0.00  0.00    +0.013 A 
ATOM     38 CL   UNL     1      -9.092  -8.080  -5.118  0.00  0.00    -0.084 Cl
ENDBRANCH  29  32
ENDBRANCH  26  27
ENDBRANCH   5  26
TORSDOF 8
