REMARK  Name = ZINC16678423
REMARK  10 active torsions:
REMARK  status: ('A' for Active; 'I' for Inactive)
REMARK    1  A    between atoms: C_1  and  C_2
REMARK    2  A    between atoms: C_2  and  N_3
REMARK    3  A    between atoms: N_3  and  C_4
REMARK    4  A    between atoms: N_3  and  C_6
REMARK    5  A    between atoms: C_4  and  C_5
REMARK    6  A    between atoms: C_9  and  C_13
REMARK    7  A    between atoms: C_10  and  O_12
REMARK    8  A    between atoms: N_20  and  C_23
REMARK    9  A    between atoms: C_23  and  C_25
REMARK   10  A    between atoms: C_23  and  C_26
REMARK                            x       y       z     vdW  Elec       q    Type
REMARK                         _______ _______ _______ _____ _____    ______ ____
ROOT
ATOM      1  C   UNL     1      -0.357   0.128  -0.373  0.00  0.00    +0.029 C 
ATOM      2  C   UNL     1      -1.451  -0.646  -0.022  0.00  0.00    +0.100 C 
ATOM      3  C   UNL     1      -2.747  -0.034   0.325  0.00  0.00    +0.257 C 
ATOM      4  O   UNL     1      -2.891   1.174   0.312  0.00  0.00    -0.270 OA
ATOM      5  N   UNL     1      -3.770  -0.851   0.650  0.00  0.00    -0.236 N 
ATOM      6  C   UNL     1      -3.624  -2.183   0.674  0.00  0.00    +0.316 C 
ATOM      7  O   UNL     1      -4.584  -2.862   0.981  0.00  0.00    -0.252 OA
ATOM      8  N   UNL     1      -2.475  -2.806   0.376  0.00  0.00    -0.218 N 
ATOM      9  C   UNL     1      -1.369  -2.117   0.026  0.00  0.00    +0.259 C 
ATOM     10  O   UNL     1      -0.332  -2.695  -0.242  0.00  0.00    -0.269 OA
ATOM     11  H   UNL     1      -4.631  -0.465   0.877  0.00  0.00    +0.159 HD
ENDROOT
BRANCH   1  15
ATOM     12  C   UNL     1      -0.842   4.221  -1.112  0.00  0.00    +0.033 A 
ATOM     13  C   UNL     1      -1.677   3.291  -1.734  0.00  0.00    +0.024 A 
ATOM     14  C   UNL     1      -1.519   1.958  -1.501  0.00  0.00    +0.013 A 
ATOM     15  C   UNL     1      -0.519   1.511  -0.621  0.00  0.00    +0.017 A 
ATOM     16  C   UNL     1       0.326   2.449   0.010  0.00  0.00    +0.126 A 
ATOM     17  C   UNL     1       0.157   3.797  -0.242  0.00  0.00    +0.069 A 
BRANCH  16  18
ATOM     18  O   UNL     1       1.297   2.029   0.857  0.00  0.00    -0.506 OA
ATOM     19  H   UNL     1       2.145   1.852   0.427  0.00  0.00    +0.292 HD
ENDBRANCH  16  18
BRANCH  12  20
ATOM     20  N   UNL     1      -1.009   5.576  -1.363  0.00  0.00    -0.330 N 
BRANCH  20  22
ATOM     21  C   UNL     1      -3.349   6.275  -1.493  0.00  0.00    +0.024 C 
ATOM     22  C   UNL     1      -2.060   6.027  -2.279  0.00  0.00    +0.102 C 
ENDBRANCH  20  22
BRANCH  20  23
ATOM     23  C   UNL     1      -0.135   6.555  -0.712  0.00  0.00    +0.102 C 
ATOM     24  C   UNL     1       1.093   6.805  -1.590  0.00  0.00    +0.024 C 
ENDBRANCH  20  23
ENDBRANCH  12  20
ENDBRANCH   1  15
BRANCH   8  25
ATOM     25  C   UNL     1      -2.420  -4.269   0.431  0.00  0.00    +0.089 C 
ATOM     26  C   UNL     1      -3.133  -4.759   1.692  0.00  0.00    +0.029 C 
BRANCH  25  27
ATOM     27  C   UNL     1      -3.108  -4.853  -0.804  0.00  0.00    -0.010 C 
ATOM     28  C   UNL     1      -4.574  -4.412  -0.827  0.00  0.00    +0.012 C 
ATOM     29  C   UNL     1      -5.263  -4.996  -2.062  0.00  0.00    -0.010 C 
ATOM     30  C   UNL     1      -4.559  -4.492  -3.324  0.00  0.00    +0.007 C 
ATOM     31  C   UNL     1      -3.094  -4.933  -3.301  0.00  0.00    -0.010 C 
ATOM     32  C   UNL     1      -2.405  -4.349  -2.066  0.00  0.00    +0.012 C 
ATOM     33  C   UNL     1      -3.022  -6.460  -3.252  0.00  0.00    +0.007 C 
ATOM     34  C   UNL     1      -3.725  -6.964  -1.990  0.00  0.00    -0.010 C 
ATOM     35  C   UNL     1      -5.190  -6.523  -2.012  0.00  0.00    +0.007 C 
ATOM     36  C   UNL     1      -3.036  -6.380  -0.755  0.00  0.00    +0.012 C 
ENDBRANCH  25  27
ENDBRANCH   8  25
TORSDOF 7
