REMARK  Name = ZINC10886124
REMARK  7 active torsions:
REMARK  status: ('A' for Active; 'I' for Inactive)
REMARK    1  A    between atoms: C_1  and  C_2
REMARK    2  A    between atoms: C_2  and  O_3
REMARK    3  A    between atoms: O_3  and  C_4
REMARK    4  A    between atoms: C_11  and  C_13
REMARK    5  A    between atoms: C_19  and  C_21
REMARK    6  A    between atoms: N_27  and  S_28
REMARK    7  A    between atoms: S_28  and  C_31
REMARK                            x       y       z     vdW  Elec       q    Type
REMARK                         _______ _______ _______ _____ _____    ______ ____
ROOT
ATOM      1  C   UNL     1       0.372   3.639  -0.488  0.00  0.00    +0.115 A 
ATOM      2  C   UNL     1      -0.909   4.054  -0.234  0.00  0.00    +0.080 A 
ATOM      3  S   UNL     1      -1.736   2.481  -0.036  0.00  0.00    -0.060 S 
ATOM      4  C   UNL     1      -0.307   1.440  -0.299  0.00  0.00    +0.165 A 
ATOM      5  N   UNL     1       0.638   2.335  -0.514  0.00  0.00    -0.221 NA
ATOM      6  N   UNL     1      -0.217   0.054  -0.286  0.00  0.00    -0.263 N 
ATOM      7  C   UNL     1      -1.314  -0.691  -0.044  0.00  0.00    +0.238 C 
ATOM      8  O   UNL     1      -2.380  -0.150   0.164  0.00  0.00    -0.274 OA
ATOM      9  H   UNL     1       0.635  -0.378  -0.452  0.00  0.00    +0.157 HD
ENDROOT
BRANCH   1  17
ATOM     10  C   UNL     1       5.081   7.302  -1.541  0.00  0.00    +0.121 A 
ATOM     11  C   UNL     1       4.107   8.280  -1.361  0.00  0.00    +0.049 A 
ATOM     12  C   UNL     1       2.803   7.930  -1.083  0.00  0.00    +0.050 A 
ATOM     13  C   UNL     1       2.448   6.592  -0.980  0.00  0.00    +0.136 A 
ATOM     14  C   UNL     1       3.430   5.602  -1.161  0.00  0.00    +0.024 A 
ATOM     15  C   UNL     1       4.748   5.965  -1.442  0.00  0.00    +0.057 A 
ATOM     16  C   UNL     1       2.740   4.322  -0.985  0.00  0.00    +0.060 A 
ATOM     17  C   UNL     1       1.444   4.626  -0.730  0.00  0.00    +0.155 A 
ATOM     18  O   UNL     1       1.280   5.964  -0.726  0.00  0.00    -0.453 OA
BRANCH  10  19
ATOM     19  O   UNL     1       6.363   7.663  -1.814  0.00  0.00    -0.492 OA
BRANCH  19  21
ATOM     20  C   UNL     1       8.120   9.273  -2.215  0.00  0.00    +0.048 C 
ATOM     21  C   UNL     1       6.637   9.063  -1.903  0.00  0.00    +0.225 C 
ENDBRANCH  19  21
ENDBRANCH  10  19
ENDBRANCH   1  17
BRANCH   7  22
ATOM     22  C   UNL     1      -1.217  -2.194  -0.030  0.00  0.00    +0.166 C 
ATOM     23  C   UNL     1      -2.082  -2.775  -1.153  0.00  0.00    +0.030 C 
ATOM     24  C   UNL     1      -2.092  -4.302  -1.045  0.00  0.00    +0.003 C 
ATOM     25  C   UNL     1      -2.695  -4.720   0.298  0.00  0.00    +0.017 C 
ATOM     26  C   UNL     1      -1.834  -4.160   1.435  0.00  0.00    +0.110 C 
ATOM     27  N   UNL     1      -1.702  -2.708   1.258  0.00  0.00    -0.164 NA
BRANCH  27  28
ATOM     28  S   UNL     1      -2.092  -1.669   2.488  0.00  0.00    +0.068 S 
ATOM     29  O   UNL     1      -1.949  -2.400   3.698  0.00  0.00    -0.152 OA
ATOM     30  O   UNL     1      -1.384  -0.462   2.239  0.00  0.00    -0.152 OA
BRANCH  28  31
ATOM     31  C   UNL     1      -3.805  -1.291   2.326  0.00  0.00    +0.143 A 
ATOM     32  C   UNL     1      -4.874  -1.930   2.860  0.00  0.00    +0.036 A 
ATOM     33  C   UNL     1      -6.143  -1.448   2.599  0.00  0.00    +0.010 A 
ATOM     34  C   UNL     1      -6.281  -0.356   1.808  0.00  0.00    +0.047 A 
ATOM     35  S   UNL     1      -4.583   0.029   1.411  0.00  0.00    -0.077 S 
ENDBRANCH  28  31
ENDBRANCH  27  28
ENDBRANCH   7  22
TORSDOF 6
