REMARK  Name = ZINC64069796
REMARK  11 active torsions:
REMARK  status: ('A' for Active; 'I' for Inactive)
REMARK    1  A    between atoms: C_1  and  C_2
REMARK    2  A    between atoms: C_4  and  C_13
REMARK    3  A    between atoms: C_13  and  C_14
REMARK    4  A    between atoms: N_16  and  C_17
REMARK    5  A    between atoms: C_17  and  C_18
REMARK    6  A    between atoms: C_18  and  C_20
REMARK    7  A    between atoms: C_18  and  N_28
REMARK    8  A    between atoms: C_24  and  O_26
REMARK    9  A    between atoms: O_26  and  C_27
REMARK   10  A    between atoms: N_28  and  C_29
REMARK   11  A    between atoms: N_28  and  C_30
REMARK                            x       y       z     vdW  Elec       q    Type
REMARK                         _______ _______ _______ _____ _____    ______ ____
ROOT
ATOM      1  C   UNL     1       0.864  -1.064  -3.796  0.00  0.00    +0.217 C 
ATOM      2  O   UNL     1       1.752  -1.660  -3.224  0.00  0.00    -0.275 OA
ATOM      3  N   UNL     1       0.958  -0.823  -5.119  0.00  0.00    -0.316 N 
ATOM      4  H   UNL     1       0.247  -0.347  -5.577  0.00  0.00    +0.149 HD
ENDROOT
BRANCH   1   5
ATOM      5  C   UNL     1      -0.345  -0.595  -3.028  0.00  0.00    +0.129 C 
BRANCH   5   8
ATOM      6  C   UNL     1      -1.945  -2.479  -0.931  0.00  0.00    +0.035 C 
ATOM      7  C   UNL     1      -0.453  -2.156  -0.826  0.00  0.00    +0.104 C 
ATOM      8  C   UNL     1      -0.145  -0.870  -1.560  0.00  0.00    -0.030 C 
ATOM      9  C   UNL     1       0.346  -0.018  -0.633  0.00  0.00    +0.002 A 
ATOM     10  C   UNL     1       0.823   1.368  -0.710  0.00  0.00    +0.048 A 
ATOM     11  C   UNL     1       1.267   1.974   0.416  0.00  0.00    +0.124 A 
ATOM     12  C   UNL     1       1.283   1.310   1.653  0.00  0.00    +0.040 A 
ATOM     13  C   UNL     1       0.860   0.037   1.802  0.00  0.00    +0.029 A 
ATOM     14  C   UNL     1       0.373  -0.695   0.684  0.00  0.00    +0.043 A 
ATOM     15  N   UNL     1      -0.084  -1.920   0.574  0.00  0.00    -0.378 N 
ATOM     16  F   UNL     1       1.708   3.250   0.348  0.00  0.00    -0.205 F 
ATOM     17  H   UNL     1      -0.165  -2.562   1.297  0.00  0.00    +0.160 HD
ENDBRANCH   5   8
ENDBRANCH   1   5
BRANCH   3  18
ATOM     18  C   UNL     1       2.133  -1.279  -5.865  0.00  0.00    +0.093 C 
BRANCH  18  19
ATOM     19  C   UNL     1       2.056  -0.762  -7.303  0.00  0.00    -0.021 C 
BRANCH  19  20
ATOM     20  C   UNL     1       2.165   0.741  -7.303  0.00  0.00    -0.056 A 
ATOM     21  C   UNL     1       3.405   1.343  -7.195  0.00  0.00    +0.002 A 
ATOM     22  C   UNL     1       3.509   2.722  -7.195  0.00  0.00    +0.004 A 
ATOM     23  C   UNL     1       2.373   3.501  -7.302  0.00  0.00    +0.045 A 
ATOM     24  C   UNL     1       1.128   2.900  -7.411  0.00  0.00    +0.120 A 
ATOM     25  C   UNL     1       1.027   1.516  -7.417  0.00  0.00    +0.047 A 
BRANCH  24  26
ATOM     26  O   UNL     1       0.010   3.664  -7.516  0.00  0.00    -0.495 OA
ATOM     27  C   UNL     1       0.190   5.082  -7.509  0.00  0.00    +0.277 C 
ENDBRANCH  24  26
ENDBRANCH  19  20
BRANCH  19  28
ATOM     28  N   UNL     1       3.158  -1.333  -8.089  0.00  0.00    +0.382 N 
ATOM     29  C   UNL     1       3.032  -2.796  -8.117  0.00  0.00    -0.096 C 
ATOM     30  C   UNL     1       3.104  -0.811  -9.461  0.00  0.00    -0.096 C 
ATOM     31  H   UNL     1       4.039  -1.079  -7.667  0.00  0.00    -0.082 HD
ENDBRANCH  19  28
ENDBRANCH  18  19
ENDBRANCH   3  18
TORSDOF 7
