REMARK  Name = ZINC67509614
REMARK  9 active torsions:
REMARK  status: ('A' for Active; 'I' for Inactive)
REMARK    1  A    between atoms: C_1  and  C_2
REMARK    2  A    between atoms: C_2  and  C_3
REMARK    3  A    between atoms: C_2  and  C_4
REMARK    4  A    between atoms: C_2  and  C_5
REMARK    5  A    between atoms: N_7  and  C_8
REMARK    6  A    between atoms: C_8  and  C_9
REMARK    7  A    between atoms: C_9  and  C_10
REMARK    8  A    between atoms: C_10  and  C_11
REMARK    9  A    between atoms: N_13  and  C_14
REMARK                            x       y       z     vdW  Elec       q    Type
REMARK                         _______ _______ _______ _____ _____    ______ ____
ROOT
ATOM      1  C   UNL     1       2.284  -5.815  -3.943  0.00  0.00    +0.217 C 
ATOM      2  O   UNL     1       1.779  -6.434  -3.030  0.00  0.00    -0.275 OA
ATOM      3  N   UNL     1       2.873  -6.475  -4.960  0.00  0.00    -0.284 N 
ATOM      4  H   UNL     1       3.219  -5.984  -5.722  0.00  0.00    +0.155 HD
ENDROOT
BRANCH   3   5
ATOM      5  C   UNL     1       2.985  -7.870  -4.918  0.00  0.00    +0.053 A 
ATOM      6  C   UNL     1       1.982  -8.631  -4.332  0.00  0.00    +0.046 A 
ATOM      7  C   UNL     1       2.095 -10.008  -4.291  0.00  0.00    +0.061 A 
ATOM      8  C   UNL     1       3.208 -10.629  -4.835  0.00  0.00    +0.061 A 
ATOM      9  C   UNL     1       4.208  -9.873  -5.420  0.00  0.00    +0.043 A 
ATOM     10  C   UNL     1       4.097  -8.496  -5.468  0.00  0.00    +0.064 A 
ATOM     11 CL   UNL     1       5.348  -7.549  -6.210  0.00  0.00    -0.082 Cl
ATOM     12 CL   UNL     1       3.347 -12.358  -4.782  0.00  0.00    -0.082 Cl
ATOM     13 CL   UNL     1       0.843 -10.960  -3.557  0.00  0.00    -0.082 Cl
ENDBRANCH   3   5
BRANCH   1  14
ATOM     14  C   UNL     1       2.253  -4.309  -3.940  0.00  0.00    +0.097 C 
BRANCH  14  15
ATOM     15  C   UNL     1       1.532  -3.816  -2.684  0.00  0.00    +0.028 C 
BRANCH  15  16
ATOM     16  C   UNL     1       1.501  -2.286  -2.681  0.00  0.00    +0.104 C 
BRANCH  16  19
ATOM     17  C   UNL     1       0.662  -0.492  -1.261  0.00  0.00    +0.218 C 
ATOM     18  O   UNL     1       1.100   0.306  -2.062  0.00  0.00    -0.275 OA
ATOM     19  N   UNL     1       0.810  -1.814  -1.478  0.00  0.00    -0.315 N 
ATOM     20  H   UNL     1       0.460  -2.453  -0.838  0.00  0.00    +0.149 HD
BRANCH  17  22
ATOM     21  C   UNL     1      -0.080   1.523  -0.021  0.00  0.00    +0.020 C 
ATOM     22  C   UNL     1      -0.048  -0.007  -0.024  0.00  0.00    +0.039 C 
ATOM     23  C   UNL     1       0.694  -0.504   1.218  0.00  0.00    +0.020 C 
ATOM     24  C   UNL     1      -1.480  -0.547  -0.012  0.00  0.00    +0.020 C 
ENDBRANCH  17  22
ENDBRANCH  16  19
ENDBRANCH  15  16
ENDBRANCH  14  15
ENDBRANCH   1  14
TORSDOF 6
