REMARK  Name = ZINC27498056
REMARK  10 active torsions:
REMARK  status: ('A' for Active; 'I' for Inactive)
REMARK    1  A    between atoms: C_1  and  C_2
REMARK    2  A    between atoms: C_2  and  C_3
REMARK    3  A    between atoms: C_2  and  C_4
REMARK    4  A    between atoms: C_4  and  C_6
REMARK    5  A    between atoms: C_4  and  N_23
REMARK    6  A    between atoms: N_8  and  C_9
REMARK    7  A    between atoms: C_9  and  C_10
REMARK    8  A    between atoms: C_10  and  C_12
REMARK    9  A    between atoms: C_10  and  N_17
REMARK   10  A    between atoms: C_24  and  C_26
REMARK                            x       y       z     vdW  Elec       q    Type
REMARK                         _______ _______ _______ _____ _____    ______ ____
ROOT
ATOM      1  C   UNL     1      -2.907   0.557   0.217  0.00  0.00    +0.234 C 
ATOM      2  O   UNL     1      -2.838  -0.508   0.795  0.00  0.00    -0.274 OA
ATOM      3  N   UNL     1      -4.096   1.002  -0.234  0.00  0.00    -0.315 N 
ATOM      4  H   UNL     1      -4.169   1.995  -0.703  0.00  0.00    +0.149 HD
ENDROOT
BRANCH   1   5
ATOM      5  C   UNL     1      -1.663   1.381   0.005  0.00  0.00    +0.162 C 
BRANCH   5   6
ATOM      6  N   UNL     1      -0.545   0.772   0.731  0.00  0.00    -0.300 N 
ATOM      7  C   UNL     1       0.501   1.530   1.114  0.00  0.00    +0.250 C 
ATOM      8  O   UNL     1       0.515   2.720   0.862  0.00  0.00    -0.270 OA
ATOM      9  H   UNL     1      -0.560  -0.303   0.963  0.00  0.00    +0.150 HD
BRANCH   7  10
ATOM     10  C   UNL     1       1.630   0.917   1.839  0.00  0.00    +0.107 A 
ATOM     11  C   UNL     1       2.717   0.390   1.133  0.00  0.00    +0.138 A 
ATOM     12  C   UNL     1       3.773  -0.178   1.821  0.00  0.00    +0.039 A 
ATOM     13  C   UNL     1       3.752  -0.237   3.202  0.00  0.00    +0.006 A 
ATOM     14  C   UNL     1       2.679   0.277   3.908  0.00  0.00    +0.039 A 
ATOM     15  C   UNL     1       1.617   0.854   3.236  0.00  0.00    +0.138 A 
ATOM     16  F   UNL     1       0.570   1.354   3.928  0.00  0.00    -0.205 F 
ATOM     17  F   UNL     1       2.737   0.441  -0.217  0.00  0.00    -0.205 F 
ENDBRANCH   7  10
ENDBRANCH   5   6
BRANCH   5  19
ATOM     18  C   UNL     1      -1.266   0.009  -2.045  0.00  0.00    +0.009 C 
ATOM     19  C   UNL     1      -1.335   1.432  -1.488  0.00  0.00    +0.012 C 
ATOM     20  C   UNL     1      -2.424   2.215  -2.223  0.00  0.00    +0.009 C 
ENDBRANCH   5  19
ENDBRANCH   1   5
BRANCH   3  21
ATOM     21  C   UNL     1      -5.291   0.165  -0.102  0.00  0.00    +0.096 C 
BRANCH  21  22
ATOM     22  C   UNL     1      -6.473   0.851  -0.790  0.00  0.00    +0.016 C 
BRANCH  22  23
ATOM     23  N   UNL     1      -7.642  -0.039  -0.757  0.00  0.00    +0.387 N 
ATOM     24  C   UNL     1      -7.321  -1.351  -1.332  0.00  0.00    -0.078 C 
ATOM     25  C   UNL     1      -8.512  -2.295  -1.150  0.00  0.00    -0.019 C 
ATOM     26  C   UNL     1      -9.739  -1.699  -1.844  0.00  0.00    -0.004 C 
ATOM     27  C   UNL     1     -10.023  -0.312  -1.261  0.00  0.00    -0.019 C 
ATOM     28  C   UNL     1      -8.789   0.574  -1.440  0.00  0.00    -0.078 C 
ATOM     29  H   UNL     1      -7.921  -0.193   0.295  0.00  0.00    -0.081 HD
ENDBRANCH  22  23
BRANCH  22  30
ATOM     30  C   UNL     1      -6.798   2.134  -0.071  0.00  0.00    +0.093 A 
ATOM     31  C   UNL     1      -6.428   3.368  -0.457  0.00  0.00    +0.043 A 
ATOM     32  C   UNL     1      -6.944   4.270   0.502  0.00  0.00    +0.041 A 
ATOM     33  C   UNL     1      -7.598   3.533   1.418  0.00  0.00    +0.195 A 
ATOM     34  O   UNL     1      -7.511   2.240   1.062  0.00  0.00    -0.469 OA
ENDBRANCH  22  30
ENDBRANCH  21  22
ENDBRANCH   3  21
TORSDOF 8
