REMARK  Name = ZINC67130784
REMARK  8 active torsions:
REMARK  status: ('A' for Active; 'I' for Inactive)
REMARK    1  A    between atoms: C_3  and  C_6
REMARK    2  A    between atoms: C_6  and  C_7
REMARK    3  A    between atoms: C_7  and  N_8
REMARK    4  A    between atoms: C_9  and  C_11
REMARK    5  A    between atoms: C_11  and  C_12
REMARK    6  A    between atoms: C_12  and  C_13
REMARK    7  A    between atoms: C_13  and  C_14
REMARK    8  A    between atoms: C_14  and  C_15
REMARK                            x       y       z     vdW  Elec       q    Type
REMARK                         _______ _______ _______ _____ _____    ______ ____
ROOT
ATOM      1  C   UNL     1       8.191   3.403   3.993  0.00  0.00    +0.009 C 
ENDROOT
BRANCH   1   2
ATOM      2  C   UNL     1       7.697   3.238   2.554  0.00  0.00    +0.096 C 
BRANCH   2   4
ATOM      3  N   UNL     1       5.633   2.506   1.403  0.00  0.00    -0.315 N 
ATOM      4  C   UNL     1       6.279   2.728   2.565  0.00  0.00    +0.213 C 
ATOM      5  O   UNL     1       5.718   2.518   3.620  0.00  0.00    -0.276 OA
ATOM      6  H   UNL     1       6.082   2.674   0.560  0.00  0.00    +0.149 HD
BRANCH   3   7
ATOM      7  C   UNL     1       4.255   2.011   1.414  0.00  0.00    +0.109 C 
BRANCH   7   8
ATOM      8  C   UNL     1       3.761   1.845  -0.024  0.00  0.00    +0.061 C 
BRANCH   8  11
ATOM      9  C   UNL     1      -0.016   1.351   0.009  0.00  0.00    +0.008 A 
ATOM     10  C   UNL     1       1.183   2.038   0.002  0.00  0.00    +0.011 A 
ATOM     11  C   UNL     1       2.343   1.336  -0.013  0.00  0.00    -0.009 A 
ATOM     12  S   UNL     1       1.754  -0.349  -0.017  0.00  0.00    -0.102 S 
ATOM     13  C   UNL     1       0.002  -0.004   0.002  0.00  0.00    +0.045 A 
ENDBRANCH   8  11
ENDBRANCH   7   8
ENDBRANCH   3   7
ENDBRANCH   2   4
ENDBRANCH   1   2
BRANCH   1  14
ATOM     14  C   UNL     1       9.631   3.920   3.981  0.00  0.00    +0.002 C 
BRANCH  14  15
ATOM     15  C   UNL     1      10.125   4.085   5.420  0.00  0.00    +0.016 C 
BRANCH  15  16
ATOM     16  C   UNL     1      11.565   4.603   5.409  0.00  0.00    +0.069 C 
ATOM     17  C   UNL     1      12.086   4.824   6.845  0.00  0.00    +0.108 C 
ATOM     18  C   UNL     1      13.548   4.412   7.039  0.00  0.00    +0.105 C 
ATOM     19  C   UNL     1      14.214   3.866   5.758  0.00  0.00    +0.093 C 
ATOM     20  S   UNL     1      12.729   3.310   4.793  0.00  0.00    -0.154 S 
ATOM     21  N   UNL     1      14.222   5.661   7.428  0.00  0.00    -0.294 N 
ATOM     22  C   UNL     1      13.321   6.652   7.461  0.00  0.00    +0.300 C 
ATOM     23  O   UNL     1      13.605   7.797   7.753  0.00  0.00    -0.253 OA
ATOM     24  N   UNL     1      12.087   6.266   7.139  0.00  0.00    -0.294 N 
ATOM     25  H   UNL     1      15.167   5.752   7.628  0.00  0.00    +0.151 HD
ATOM     26  H   UNL     1      11.312   6.848   7.108  0.00  0.00    +0.151 HD
ENDBRANCH  15  16
ENDBRANCH  14  15
ENDBRANCH   1  14
TORSDOF 8
