REMARK  Name = ZINC25148304
REMARK  11 active torsions:
REMARK  status: ('A' for Active; 'I' for Inactive)
REMARK    1  A    between atoms: C_1  and  O_2
REMARK    2  A    between atoms: O_2  and  C_3
REMARK    3  A    between atoms: C_7  and  O_38
REMARK    4  A    between atoms: C_8  and  C_9
REMARK    5  A    between atoms: C_12  and  N_15
REMARK    6  A    between atoms: C_19  and  C_20
REMARK    7  A    between atoms: N_22  and  C_23
REMARK    8  A    between atoms: C_28  and  O_30
REMARK    9  A    between atoms: O_30  and  C_31
REMARK   10  A    between atoms: C_31  and  C_32
REMARK   11  A    between atoms: O_38  and  C_39
REMARK                            x       y       z     vdW  Elec       q    Type
REMARK                         _______ _______ _______ _____ _____    ______ ____
ROOT
ATOM      1  N   UNL     1      -1.517   2.155  -4.896  0.00  0.00    -0.295 N 
ATOM      2  C   UNL     1      -1.464   3.445  -5.279  0.00  0.00    +0.204 A 
ATOM      3  N   UNL     1      -2.614   3.785  -5.803  0.00  0.00    -0.243 NA
ATOM      4  C   UNL     1      -3.442   2.741  -5.787  0.00  0.00    +0.143 A 
ATOM      5  C   UNL     1      -2.781   1.691  -5.212  0.00  0.00    +0.128 A 
ENDROOT
BRANCH   1   9
ATOM      6  C   UNL     1       1.549  -0.029  -3.098  0.00  0.00    -0.011 A 
ATOM      7  C   UNL     1       1.766   0.603  -4.322  0.00  0.00    +0.011 A 
ATOM      8  C   UNL     1       0.751   1.324  -4.914  0.00  0.00    +0.027 A 
ATOM      9  C   UNL     1      -0.488   1.421  -4.292  0.00  0.00    +0.048 A 
ATOM     10  C   UNL     1      -0.705   0.797  -3.070  0.00  0.00    +0.027 A 
ATOM     11  C   UNL     1       0.304   0.070  -2.476  0.00  0.00    +0.011 A 
BRANCH   6  17
ATOM     12  C   UNL     1       3.101  -1.984  -3.049  0.00  0.00    +0.131 A 
ATOM     13  C   UNL     1       4.123  -2.701  -2.448  0.00  0.00    +0.046 A 
ATOM     14  C   UNL     1       4.678  -2.258  -1.261  0.00  0.00    +0.007 A 
ATOM     15  C   UNL     1       4.222  -1.095  -0.667  0.00  0.00    +0.046 A 
ATOM     16  C   UNL     1       3.204  -0.364  -1.259  0.00  0.00    +0.131 A 
ATOM     17  C   UNL     1       2.638  -0.805  -2.458  0.00  0.00    +0.065 A 
BRANCH  12  19
ATOM     18  C   UNL     1       3.078  -3.636  -4.758  0.00  0.00    +0.277 C 
ATOM     19  O   UNL     1       2.554  -2.424  -4.212  0.00  0.00    -0.494 OA
ENDBRANCH  12  19
BRANCH  16  20
ATOM     20  O   UNL     1       2.757   0.778  -0.674  0.00  0.00    -0.494 OA
ATOM     21  C   UNL     1       3.454   1.226   0.490  0.00  0.00    +0.277 C 
ENDBRANCH  16  20
ENDBRANCH   6  17
ENDBRANCH   1   9
BRANCH   5  22
ATOM     22  C   UNL     1      -3.306   0.341  -4.983  0.00  0.00    +0.263 C 
ATOM     23  O   UNL     1      -2.621  -0.490  -4.416  0.00  0.00    -0.269 OA
ATOM     24  N   UNL     1      -4.547   0.020  -5.399  0.00  0.00    -0.305 N 
ATOM     25  H   UNL     1      -5.138   0.746  -5.977  0.00  0.00    +0.149 HD
BRANCH  24  26
ATOM     26  C   UNL     1      -5.109  -1.295  -5.083  0.00  0.00    +0.102 C 
ATOM     27  C   UNL     1      -5.766  -1.268  -3.688  0.00  0.00    +0.025 C 
ATOM     28  C   UNL     1      -7.018  -2.167  -3.839  0.00  0.00    +0.004 C 
ATOM     29  C   UNL     1      -7.516  -1.823  -5.265  0.00  0.00    +0.033 C 
ATOM     30  C   UNL     1      -6.222  -1.648  -6.086  0.00  0.00    +0.139 C 
BRANCH  30  31
ATOM     31  O   UNL     1      -6.381  -0.589  -7.032  0.00  0.00    -0.370 OA
BRANCH  31  32
ATOM     32  C   UNL     1      -6.929  -1.007  -8.285  0.00  0.00    +0.195 C 
BRANCH  32  33
ATOM     33  C   UNL     1      -6.941   0.158  -9.241  0.00  0.00    -0.022 A 
ATOM     34  C   UNL     1      -5.813   0.453  -9.984  0.00  0.00    +0.006 A 
ATOM     35  C   UNL     1      -5.824   1.521 -10.862  0.00  0.00    +0.000 A 
ATOM     36  C   UNL     1      -6.962   2.295 -10.995  0.00  0.00    +0.000 A 
ATOM     37  C   UNL     1      -8.090   1.999 -10.252  0.00  0.00    +0.000 A 
ATOM     38  C   UNL     1      -8.079   0.930  -9.375  0.00  0.00    +0.006 A 
ENDBRANCH  32  33
ENDBRANCH  31  32
ENDBRANCH  30  31
ENDBRANCH  24  26
ENDBRANCH   5  22
TORSDOF 9
