REMARK  Name = ZINC59008228
REMARK  6 active torsions:
REMARK  status: ('A' for Active; 'I' for Inactive)
REMARK    1  A    between atoms: C_1  and  C_2
REMARK    2  A    between atoms: C_2  and  C_24
REMARK    3  A    between atoms: N_5  and  C_9
REMARK    4  A    between atoms: C_9  and  C_10
REMARK    5  A    between atoms: N_15  and  C_18
REMARK    6  A    between atoms: C_18  and  C_19
REMARK                            x       y       z     vdW  Elec       q    Type
REMARK                         _______ _______ _______ _____ _____    ______ ____
ROOT
ATOM      1  C   UNL     1      -0.019   1.526   0.010  0.00  0.00    +0.047 C 
ATOM      2  C   UNL     1       0.002  -0.004   0.002  0.00  0.00    +0.135 C 
ATOM      3  C   UNL     1      -1.403  -0.557   0.139  0.00  0.00    +0.251 C 
ATOM      4  O   UNL     1      -2.332  -0.392  -0.621  0.00  0.00    -0.272 OA
ATOM      5  N   UNL     1      -1.403  -1.272   1.282  0.00  0.00    -0.215 N 
ATOM      6  C   UNL     1      -0.206  -1.247   1.879  0.00  0.00    +0.310 C 
ATOM      7  O   UNL     1       0.040  -1.819   2.924  0.00  0.00    -0.252 OA
ATOM      8  N   UNL     1       0.695  -0.520   1.195  0.00  0.00    -0.281 N 
ATOM      9  H   UNL     1       1.621  -0.365   1.440  0.00  0.00    +0.152 HD
ENDROOT
BRANCH   2  10
ATOM     10  C   UNL     1       0.657  -0.517  -1.255  0.00  0.00    -0.015 A 
ATOM     11  C   UNL     1      -0.108  -0.772  -2.378  0.00  0.00    +0.007 A 
ATOM     12  C   UNL     1       0.492  -1.242  -3.530  0.00  0.00    +0.020 A 
ATOM     13  C   UNL     1       1.859  -1.458  -3.560  0.00  0.00    +0.041 A 
ATOM     14  C   UNL     1       2.623  -1.203  -2.436  0.00  0.00    +0.020 A 
ATOM     15  C   UNL     1       2.023  -0.727  -1.286  0.00  0.00    +0.007 A 
ATOM     16 CL   UNL     1       2.613  -2.049  -5.008  0.00  0.00    -0.084 Cl
ENDBRANCH   2  10
BRANCH   5  17
ATOM     17  C   UNL     1      -2.569  -1.986   1.805  0.00  0.00    +0.213 C 
BRANCH  17  18
ATOM     18  C   UNL     1      -2.585  -3.391   1.260  0.00  0.00    +0.234 C 
ATOM     19  O   UNL     1      -1.707  -3.759   0.508  0.00  0.00    -0.274 OA
ATOM     20  N   UNL     1      -3.573  -4.239   1.608  0.00  0.00    -0.298 N 
ATOM     21  C   UNL     1      -4.650  -3.811   2.514  0.00  0.00    +0.123 C 
ATOM     22  C   UNL     1      -5.996  -4.149   1.863  0.00  0.00    +0.104 C 
ATOM     23  N   UNL     1      -6.018  -5.572   1.501  0.00  0.00    -0.295 NA
ATOM     24  C   UNL     1      -4.991  -5.882   0.497  0.00  0.00    +0.104 C 
ATOM     25  C   UNL     1      -3.607  -5.614   1.087  0.00  0.00    +0.123 C 
BRANCH  23  26
ATOM     26  C   UNL     1      -7.350  -5.976   1.032  0.00  0.00    +0.127 C 
BRANCH  26  27
ATOM     27  C   UNL     1      -7.405  -7.476   0.905  0.00  0.00    +0.004 A 
ATOM     28  C   UNL     1      -7.769  -8.399   1.828  0.00  0.00    +0.012 A 
ATOM     29  C   UNL     1      -7.743  -9.737   1.485  0.00  0.00    +0.008 A 
ATOM     30  C   UNL     1      -7.353 -10.088   0.235  0.00  0.00    +0.045 A 
ATOM     31  S   UNL     1      -7.013  -8.499  -0.505  0.00  0.00    -0.100 S 
ENDBRANCH  26  27
ENDBRANCH  23  26
ENDBRANCH  17  18
ENDBRANCH   5  17
TORSDOF 5
