REMARK  Name = ZINC05003882
REMARK  10 active torsions:
REMARK  status: ('A' for Active; 'I' for Inactive)
REMARK    1  A    between atoms: C_1  and  C_2
REMARK    2  A    between atoms: C_2  and  C_3
REMARK    3  A    between atoms: C_3  and  C_4
REMARK    4  A    between atoms: C_4  and  N_5
REMARK    5  A    between atoms: N_8  and  C_25
REMARK    6  A    between atoms: C_9  and  N_14
REMARK    7  A    between atoms: C_11  and  C_12
REMARK    8  A    between atoms: C_11  and  C_13
REMARK    9  A    between atoms: N_14  and  O_24
REMARK   10  A    between atoms: N_17  and  C_18
REMARK                            x       y       z     vdW  Elec       q    Type
REMARK                         _______ _______ _______ _____ _____    ______ ____
ROOT
ATOM      1  N   UNL     1       1.112  -4.337   0.492  0.00  0.00    -0.277 N 
ATOM      2  C   UNL     1       1.162  -3.041   0.159  0.00  0.00    +0.307 C 
ATOM      3  O   UNL     1       1.561  -2.649  -0.921  0.00  0.00    -0.252 OA
ATOM      4  N   UNL     1       0.737  -2.215   1.124  0.00  0.00    -0.260 N 
ATOM      5  C   UNL     1       0.321  -3.009   2.290  0.00  0.00    +0.220 C 
ATOM      6  C   UNL     1       0.579  -4.465   1.857  0.00  0.00    +0.070 C 
ATOM      7  C   UNL     1       1.608  -5.125   2.776  0.00  0.00    +0.035 C 
ATOM      8  C   UNL     1      -0.727  -5.263   1.850  0.00  0.00    +0.035 C 
ENDROOT
BRANCH   4   9
ATOM      9  C   UNL     1       0.688  -0.754   1.031  0.00  0.00    +0.080 C 
ATOM     10  C   UNL     1      -0.221  -0.347  -0.130  0.00  0.00    +0.022 C 
ATOM     11  C   UNL     1      -0.272   1.179  -0.228  0.00  0.00    +0.002 C 
ATOM     12  C   UNL     1       1.138   1.722  -0.469  0.00  0.00    +0.000 C 
ATOM     13  C   UNL     1       2.047   1.315   0.692  0.00  0.00    +0.002 C 
ATOM     14  C   UNL     1       2.098  -0.211   0.790  0.00  0.00    +0.022 C 
ENDBRANCH   4   9
BRANCH   5  15
ATOM     15  N   UNL     1      -1.101  -2.798   2.575  0.00  0.00    -0.144 N 
ATOM     16  C   UNL     1      -1.474  -2.149   3.696  0.00  0.00    +0.327 C 
ATOM     17  O   UNL     1      -0.632  -1.658   4.423  0.00  0.00    -0.250 OA
ATOM     18  N   UNL     1      -2.780  -2.043   4.010  0.00  0.00    -0.295 N 
ATOM     19  H   UNL     1      -3.455  -2.370   3.394  0.00  0.00    +0.151 HD
BRANCH  18  20
ATOM     20  C   UNL     1      -3.181  -1.435   5.281  0.00  0.00    +0.074 C 
ATOM     21  C   UNL     1      -3.152  -2.493   6.385  0.00  0.00    +0.022 C 
ATOM     22  C   UNL     1      -3.571  -1.858   7.712  0.00  0.00    +0.002 C 
ATOM     23  C   UNL     1      -4.988  -1.294   7.583  0.00  0.00    +0.000 C 
ATOM     24  C   UNL     1      -5.017  -0.236   6.479  0.00  0.00    +0.002 C 
ATOM     25  C   UNL     1      -4.598  -0.871   5.152  0.00  0.00    +0.022 C 
ENDBRANCH  18  20
BRANCH  15  26
ATOM     26  O   UNL     1      -2.082  -3.276   1.674  0.00  0.00    -0.289 OA
ATOM     27  H   UNL     1      -2.986  -3.022   1.905  0.00  0.00    +0.242 HD
ENDBRANCH  15  26
ENDBRANCH   5  15
BRANCH   1  28
ATOM     28  C   UNL     1       1.519  -5.451  -0.368  0.00  0.00    +0.110 C 
BRANCH  28  29
ATOM     29  C   UNL     1       0.322  -5.918  -1.199  0.00  0.00    +0.019 C 
BRANCH  29  31
ATOM     30  C   UNL     1      -0.451  -7.547  -2.928  0.00  0.00    +0.004 C 
ATOM     31  C   UNL     1       0.746  -7.081  -2.097  0.00  0.00    -0.002 C 
ENDBRANCH  29  31
ENDBRANCH  28  29
ENDBRANCH   1  28
TORSDOF 7
