REMARK  Name = ZINC63835768
REMARK  8 active torsions:
REMARK  status: ('A' for Active; 'I' for Inactive)
REMARK    1  A    between atoms: C_7  and  C_10
REMARK    2  A    between atoms: C_10  and  C_11
REMARK    3  A    between atoms: C_11  and  N_12
REMARK    4  A    between atoms: C_13  and  C_15
REMARK    5  A    between atoms: C_15  and  C_16
REMARK    6  A    between atoms: C_19  and  N_22
REMARK    7  A    between atoms: N_22  and  S_23
REMARK    8  A    between atoms: S_23  and  C_26
REMARK                            x       y       z     vdW  Elec       q    Type
REMARK                         _______ _______ _______ _____ _____    ______ ____
ROOT
ATOM      1  C   UNL     1      -1.974  -7.114  -4.013  0.00  0.00    -0.039 A 
ATOM      2  C   UNL     1      -3.045  -6.598  -4.720  0.00  0.00    +0.006 A 
ATOM      3  C   UNL     1      -3.262  -6.986  -6.027  0.00  0.00    +0.025 A 
ATOM      4  C   UNL     1      -2.405  -7.896  -6.632  0.00  0.00    +0.048 A 
ATOM      5  C   UNL     1      -1.330  -8.413  -5.919  0.00  0.00    +0.025 A 
ATOM      6  C   UNL     1      -1.115  -8.016  -4.613  0.00  0.00    +0.006 A 
ENDROOT
BRANCH   4   7
ATOM      7  N   UNL     1      -2.622  -8.291  -7.954  0.00  0.00    -0.216 N 
ATOM      8  H   UNL     1      -3.513  -8.540  -8.245  0.00  0.00    +0.174 HD
BRANCH   7   9
ATOM      9  S   UNL     1      -1.359  -8.334  -9.024  0.00  0.00    +0.072 S 
ATOM     10  O   UNL     1      -0.334  -9.106  -8.412  0.00  0.00    -0.150 OA
ATOM     11  O   UNL     1      -1.910  -8.667 -10.290  0.00  0.00    -0.150 OA
BRANCH   9  12
ATOM     12  C   UNL     1      -0.737  -6.691  -9.161  0.00  0.00    +0.109 A 
ATOM     13  C   UNL     1      -1.325  -5.801 -10.041  0.00  0.00    +0.031 A 
ATOM     14  C   UNL     1      -0.839  -4.512 -10.149  0.00  0.00    +0.040 A 
ATOM     15  C   UNL     1       0.239  -4.112  -9.377  0.00  0.00    +0.124 A 
ATOM     16  C   UNL     1       0.827  -5.004  -8.497  0.00  0.00    +0.040 A 
ATOM     17  C   UNL     1       0.336  -6.291  -8.386  0.00  0.00    +0.031 A 
ATOM     18  F   UNL     1       0.715  -2.853  -9.483  0.00  0.00    -0.205 F 
ENDBRANCH   9  12
ENDBRANCH   7   9
ENDBRANCH   4   7
BRANCH   1  19
ATOM     19  C   UNL     1      -1.740  -6.689  -2.586  0.00  0.00    +0.130 C 
BRANCH  19  21
ATOM     20  N   UNL     1      -0.504  -4.911  -1.389  0.00  0.00    -0.315 N 
ATOM     21  C   UNL     1      -0.851  -5.472  -2.564  0.00  0.00    +0.217 C 
ATOM     22  O   UNL     1      -0.448  -4.997  -3.605  0.00  0.00    -0.275 OA
ATOM     23  H   UNL     1      -0.827  -5.291  -0.557  0.00  0.00    +0.149 HD
BRANCH  20  24
ATOM     24  C   UNL     1       0.360  -3.728  -1.368  0.00  0.00    +0.108 C 
BRANCH  24  25
ATOM     25  C   UNL     1       0.598  -3.296   0.080  0.00  0.00    +0.052 C 
BRANCH  25  32
ATOM     26  C   UNL     1      -0.305   1.199   0.270  0.00  0.00    +0.001 A 
ATOM     27  C   UNL     1       0.843   2.003   0.269  0.00  0.00    +0.002 A 
ATOM     28  C   UNL     1       2.092   1.492   0.217  0.00  0.00    +0.026 A 
ATOM     29  C   UNL     1       2.291   0.085   0.160  0.00  0.00    +0.043 A 
ATOM     30  N   UNL     1       3.381  -0.641   0.103  0.00  0.00    -0.380 N 
ATOM     31  C   UNL     1       2.998  -2.057   0.061  0.00  0.00    +0.144 C 
ATOM     32  C   UNL     1       1.486  -2.079   0.102  0.00  0.00    -0.040 C 
ATOM     33  C   UNL     1       1.094  -0.786   0.160  0.00  0.00    -0.001 A 
ATOM     34  C   UNL     1      -0.228  -0.150   0.219  0.00  0.00    +0.010 A 
ATOM     35  H   UNL     1       4.288  -0.299   0.091  0.00  0.00    +0.160 HD
ENDBRANCH  25  32
ENDBRANCH  24  25
ENDBRANCH  20  24
ENDBRANCH  19  21
ENDBRANCH   1  19
TORSDOF 8
