REMARK  Name = ZINC06392447
REMARK  9 active torsions:
REMARK  status: ('A' for Active; 'I' for Inactive)
REMARK    1  A    between atoms: C_1  and  C_2
REMARK    2  A    between atoms: C_2  and  O_3
REMARK    3  A    between atoms: O_3  and  C_4
REMARK    4  A    between atoms: C_4  and  C_6
REMARK    5  A    between atoms: C_7  and  N_25
REMARK    6  A    between atoms: C_15  and  C_22
REMARK    7  A    between atoms: C_19  and  C_21
REMARK    8  A    between atoms: C_22  and  C_23
REMARK    9  A    between atoms: C_22  and  C_24
REMARK                            x       y       z     vdW  Elec       q    Type
REMARK                         _______ _______ _______ _____ _____    ______ ____
ROOT
ATOM      1  C   UNL     1       2.638  -2.593   0.225  0.00  0.00    +0.119 A 
ATOM      2  C   UNL     1       1.343  -2.124   0.176  0.00  0.00    +0.055 A 
ATOM      3  C   UNL     1       1.131  -0.685   0.126  0.00  0.00    +0.029 A 
ATOM      4  C   UNL     1      -0.087   0.032   0.073  0.00  0.00    +0.018 A 
ATOM      5  C   UNL     1      -0.065   1.413   0.032  0.00  0.00    -0.022 A 
ATOM      6  C   UNL     1       1.142   2.086   0.036  0.00  0.00    +0.049 A 
ATOM      7  N   UNL     1       2.280   1.407   0.088  0.00  0.00    -0.244 NA
ATOM      8  C   UNL     1       2.309   0.096   0.132  0.00  0.00    +0.111 A 
ATOM      9  S   UNL     1       3.617  -1.104   0.205  0.00  0.00    -0.060 S 
ATOM     10  C   UNL     1       1.232   3.589  -0.024  0.00  0.00    +0.041 C 
ATOM     11  C   UNL     1      -0.104   4.222   0.359  0.00  0.00    +0.010 C 
ATOM     12  C   UNL     1      -1.207   3.570  -0.483  0.00  0.00    +0.008 C 
ATOM     13  C   UNL     1      -1.390   2.130  -0.008  0.00  0.00    +0.018 C 
ATOM     14  C   UNL     1      -2.331   1.399  -0.968  0.00  0.00    +0.012 C 
ENDROOT
BRANCH  10  15
ATOM     15  C   UNL     1       2.314   4.069   0.946  0.00  0.00    -0.008 C 
ATOM     16  C   UNL     1       2.448   5.590   0.847  0.00  0.00    +0.008 C 
ATOM     17  C   UNL     1       1.926   3.683   2.375  0.00  0.00    +0.008 C 
ENDBRANCH  10  15
BRANCH   2  18
ATOM     18  N   UNL     1       0.268  -3.001   0.174  0.00  0.00    -0.356 N 
ATOM     19  H   UNL     1      -0.638  -2.657   0.139  0.00  0.00    +0.142 HD
ATOM     20  H   UNL     1       0.423  -3.958   0.208  0.00  0.00    +0.142 HD
ENDBRANCH   2  18
BRANCH   1  21
ATOM     21  C   UNL     1       3.083  -3.934   0.280  0.00  0.00    +0.348 C 
ATOM     22  O   UNL     1       2.275  -4.844   0.287  0.00  0.00    -0.244 OA
BRANCH  21  23
ATOM     23  O   UNL     1       4.405  -4.206   0.324  0.00  0.00    -0.461 OA
BRANCH  23  25
ATOM     24  C   UNL     1       6.309  -5.691   0.422  0.00  0.00    +0.048 C 
ATOM     25  C   UNL     1       4.783  -5.583   0.378  0.00  0.00    +0.229 C 
ENDBRANCH  23  25
ENDBRANCH  21  23
ENDBRANCH   1  21
TORSDOF 5
