REMARK  Name = ZINC15779294
REMARK  2 active torsions:
REMARK  status: ('A' for Active; 'I' for Inactive)
REMARK    1  A    between atoms: C_6  and  C_7
REMARK    2  A    between atoms: C_7  and  N_8
REMARK                            x       y       z     vdW  Elec       q    Type
REMARK                         _______ _______ _______ _____ _____    ______ ____
ROOT
ATOM      1  N   UNL     1       3.572   1.946  -0.425  0.00  0.00    -0.294 NA
ATOM      2  C   UNL     1       3.568   3.170   0.392  0.00  0.00    +0.091 C 
ATOM      3  C   UNL     1       2.360   4.019  -0.005  0.00  0.00    +0.071 C 
ATOM      4  C   UNL     1       1.115   3.173   0.008  0.00  0.00    +0.052 A 
ATOM      5  C   UNL     1       1.175   1.794   0.001  0.00  0.00    +0.006 A 
ATOM      6  C   UNL     1      -0.013   1.076   0.008  0.00  0.00    +0.121 A 
ATOM      7  N   UNL     1      -1.162   1.729   0.017  0.00  0.00    -0.222 NA
ATOM      8  C   UNL     1      -1.187   3.054   0.031  0.00  0.00    +0.218 A 
ATOM      9  N   UNL     1      -0.071   3.767   0.024  0.00  0.00    -0.219 NA
ATOM     10  N   UNL     1      -2.406   3.707   0.048  0.00  0.00    -0.300 N 
ATOM     11  C   UNL     1      -2.587   4.529  -1.176  0.00  0.00    +0.108 C 
ATOM     12  C   UNL     1      -4.122   4.732  -1.243  0.00  0.00    +0.020 C 
ATOM     13  C   UNL     1      -4.672   3.372  -0.758  0.00  0.00    +0.020 C 
ATOM     14  C   UNL     1      -3.526   2.740   0.053  0.00  0.00    +0.108 C 
ATOM     15  C   UNL     1       2.484   1.053  -0.012  0.00  0.00    +0.123 C 
ENDROOT
BRANCH   1  16
ATOM     16  C   UNL     1       4.871   1.264  -0.346  0.00  0.00    +0.120 C 
BRANCH  16  22
ATOM     17  C   UNL     1       4.495  -1.119  -1.012  0.00  0.00    +0.006 A 
ATOM     18  C   UNL     1       4.532  -2.140  -1.943  0.00  0.00    +0.015 A 
ATOM     19  C   UNL     1       5.000  -1.893  -3.221  0.00  0.00    +0.018 A 
ATOM     20  C   UNL     1       5.426  -0.624  -3.568  0.00  0.00    +0.015 A 
ATOM     21  C   UNL     1       5.384   0.398  -2.637  0.00  0.00    +0.006 A 
ATOM     22  C   UNL     1       4.916   0.150  -1.360  0.00  0.00    -0.033 A 
ATOM     23 BR   UNL     1       5.057  -3.290  -4.494  0.00  0.00    -0.050 Br
ENDBRANCH  16  22
ENDBRANCH   1  16
TORSDOF 2
