REMARK  Name = ZINC02163686
REMARK  8 active torsions:
REMARK  status: ('A' for Active; 'I' for Inactive)
REMARK    1  A    between atoms: C_1  and  O_2
REMARK    2  A    between atoms: O_2  and  C_3
REMARK    3  A    between atoms: C_5  and  C_13
REMARK    4  A    between atoms: C_8  and  O_9
REMARK    5  A    between atoms: O_9  and  C_10
REMARK    6  A    between atoms: C_10  and  C_11
REMARK    7  A    between atoms: C_15  and  C_26
REMARK    8  A    between atoms: C_16  and  N_25
REMARK                            x       y       z     vdW  Elec       q    Type
REMARK                         _______ _______ _______ _____ _____    ______ ____
ROOT
ATOM      1  C   UNL     1       0.206   6.050  -0.474  0.00  0.00    +0.101 C 
ATOM      2  C   UNL     1       1.246   6.927   0.166  0.00  0.00    +0.098 C 
ATOM      3  C   UNL     1       0.954   8.209   0.495  0.00  0.00    +0.198 C 
ATOM      4  O   UNL     1      -0.263   8.729   0.269  0.00  0.00    -0.445 OA
ATOM      5  C   UNL     1      -1.070   8.171  -0.653  0.00  0.00    +0.115 C 
ATOM      6  C   UNL     1      -0.900   6.898  -1.054  0.00  0.00    +0.046 C 
ATOM      7  C   UNL     1      -1.741   6.317  -2.023  0.00  0.00    +0.163 C 
ATOM      8  O   UNL     1      -1.566   5.160  -2.349  0.00  0.00    -0.292 OA
ATOM      9  C   UNL     1      -2.851   7.105  -2.664  0.00  0.00    +0.080 C 
ATOM     10  C   UNL     1      -2.469   8.589  -2.664  0.00  0.00    +0.016 C 
ATOM     11  C   UNL     1      -2.184   9.016  -1.223  0.00  0.00    +0.075 C 
ENDROOT
BRANCH   1  14
ATOM     12  C   UNL     1      -0.787   2.893   1.346  0.00  0.00    +0.162 A 
ATOM     13  C   UNL     1      -0.254   3.751   0.398  0.00  0.00    +0.054 A 
ATOM     14  C   UNL     1      -0.368   5.119   0.562  0.00  0.00    -0.031 A 
ATOM     15  C   UNL     1      -1.003   5.634   1.677  0.00  0.00    +0.008 A 
ATOM     16  C   UNL     1      -1.532   4.784   2.629  0.00  0.00    +0.050 A 
ATOM     17  C   UNL     1      -1.427   3.411   2.468  0.00  0.00    +0.163 A 
BRANCH  12  19
ATOM     18  C   UNL     1      -0.013   1.086   0.008  0.00  0.00    +0.277 C 
ATOM     19  O   UNL     1      -0.682   1.547   1.184  0.00  0.00    -0.491 OA
ENDBRANCH  12  19
BRANCH  17  20
ATOM     20  O   UNL     1      -1.946   2.574   3.405  0.00  0.00    -0.476 OA
BRANCH  20  21
ATOM     21  C   UNL     1      -2.588   3.176   4.530  0.00  0.00    +0.317 C 
BRANCH  21  22
ATOM     22  C   UNL     1      -3.086   2.125   5.432  0.00  0.00    -0.065 C 
ATOM     23  C   UNL     1      -3.483   1.287   6.152  0.00  0.00    +0.007 C 
ENDBRANCH  21  22
ENDBRANCH  20  21
ENDBRANCH  17  20
ENDBRANCH   1  14
BRANCH   3  24
ATOM     24  N   UNL     1       1.922   8.992   1.072  0.00  0.00    -0.328 N 
ATOM     25  H   UNL     1       2.805   8.627   1.240  0.00  0.00    +0.145 HD
ATOM     26  H   UNL     1       1.724   9.911   1.312  0.00  0.00    +0.145 HD
ENDBRANCH   3  24
BRANCH   2  27
ATOM     27  C   UNL     1       2.554   6.405   0.429  0.00  0.00    +0.101 C 
ATOM     28  N   UNL     1       3.591   5.991   0.637  0.00  0.00    -0.191 NA
ENDBRANCH   2  27
TORSDOF 7
