REMARK  Name = ZINC01083327
REMARK  8 active torsions:
REMARK  status: ('A' for Active; 'I' for Inactive)
REMARK    1  A    between atoms: C_4  and  C_7
REMARK    2  A    between atoms: C_7  and  C_8
REMARK    3  A    between atoms: C_7  and  C_14
REMARK    4  A    between atoms: C_7  and  O_33
REMARK    5  A    between atoms: N_16  and  N_17
REMARK    6  A    between atoms: C_18  and  C_19
REMARK    7  A    between atoms: C_22  and  C_24
REMARK    8  A    between atoms: C_29  and  N_30
REMARK                            x       y       z     vdW  Elec       q    Type
REMARK                         _______ _______ _______ _____ _____    ______ ____
ROOT
ATOM      1  C   UNL     1       6.567  -6.663  -4.241  0.00  0.00    +0.273 C 
ATOM      2  O   UNL     1       7.499  -7.175  -4.815  0.00  0.00    -0.270 OA
ATOM      3  N   UNL     1       6.791  -5.778  -3.249  0.00  0.00    -0.204 N 
ATOM      4  H   UNL     1       6.043  -5.367  -2.788  0.00  0.00    +0.177 HD
ENDROOT
BRANCH   3   5
ATOM      5  N   UNL     1       7.999  -5.478  -2.913  0.00  0.00    -0.185 NA
ATOM      6  C   UNL     1       8.219  -4.606  -1.937  0.00  0.00    +0.176 C 
BRANCH   6   7
ATOM      7  C   UNL     1       9.520  -4.282  -1.575  0.00  0.00    +0.148 A 
ATOM      8  C   UNL     1       9.923  -3.340  -0.519  0.00  0.00    +0.051 A 
ATOM      9  C   UNL     1      11.280  -3.337  -0.508  0.00  0.00    +0.050 A 
ATOM     10  C   UNL     1      11.718  -4.231  -1.517  0.00  0.00    +0.138 A 
ATOM     11  O   UNL     1      10.651  -4.775  -2.127  0.00  0.00    -0.454 OA
BRANCH  10  12
ATOM     12  C   UNL     1      13.071  -4.511  -1.831  0.00  0.00    +0.047 A 
ATOM     13  C   UNL     1      13.981  -3.459  -2.051  0.00  0.00    +0.014 A 
ATOM     14  C   UNL     1      15.283  -3.742  -2.353  0.00  0.00    +0.001 A 
ATOM     15  C   UNL     1      15.710  -5.059  -2.443  0.00  0.00    +0.002 A 
ATOM     16  C   UNL     1      14.822  -6.103  -2.228  0.00  0.00    +0.033 A 
ATOM     17  C   UNL     1      13.515  -5.844  -1.925  0.00  0.00    +0.137 A 
BRANCH  17  18
ATOM     18  N   UNL     1      12.570  -6.960  -1.695  0.00  0.00    +0.057 N 
ATOM     19  O   UNL     1      12.989  -8.206  -1.783  0.00  0.00    -0.126 OA
ATOM     20  O   UNL     1      11.312  -6.708  -1.402  0.00  0.00    -0.126 OA
ENDBRANCH  17  18
ENDBRANCH  10  12
ENDBRANCH   6   7
ENDBRANCH   3   5
BRANCH   1  21
ATOM     21  C   UNL     1       5.155  -7.015  -4.634  0.00  0.00    +0.194 C 
BRANCH  21  25
ATOM     22  C   UNL     1       5.096  -8.353  -8.690  0.00  0.00    +0.000 A 
ATOM     23  C   UNL     1       5.769  -9.086  -7.730  0.00  0.00    +0.000 A 
ATOM     24  C   UNL     1       5.789  -8.652  -6.417  0.00  0.00    +0.007 A 
ATOM     25  C   UNL     1       5.135  -7.487  -6.065  0.00  0.00    -0.003 A 
ATOM     26  C   UNL     1       4.457  -6.757  -7.024  0.00  0.00    +0.007 A 
ATOM     27  C   UNL     1       4.442  -7.188  -8.337  0.00  0.00    +0.000 A 
ENDBRANCH  21  25
BRANCH  21  28
ATOM     28  C   UNL     1       4.642  -8.111  -3.736  0.00  0.00    -0.003 A 
ATOM     29  C   UNL     1       5.473  -9.154  -3.374  0.00  0.00    +0.007 A 
ATOM     30  C   UNL     1       5.004 -10.157  -2.546  0.00  0.00    +0.000 A 
ATOM     31  C   UNL     1       3.700 -10.121  -2.088  0.00  0.00    +0.000 A 
ATOM     32  C   UNL     1       2.867  -9.081  -2.454  0.00  0.00    +0.000 A 
ATOM     33  C   UNL     1       3.338  -8.075  -3.278  0.00  0.00    +0.007 A 
ENDBRANCH  21  28
BRANCH  21  34
ATOM     34  O   UNL     1       4.323  -5.861  -4.501  0.00  0.00    -0.371 OA
ATOM     35  H   UNL     1       4.595  -5.114  -5.052  0.00  0.00    +0.212 HD
ENDBRANCH  21  34
ENDBRANCH   1  21
TORSDOF 8
