REMARK  Name = ZINC02328562
REMARK  7 active torsions:
REMARK  status: ('A' for Active; 'I' for Inactive)
REMARK    1  A    between atoms: C_1  and  C_2
REMARK    2  A    between atoms: C_2  and  C_3
REMARK    3  A    between atoms: C_2  and  C_4
REMARK    4  A    between atoms: C_2  and  C_5
REMARK    5  A    between atoms: C_8  and  C_11
REMARK    6  A    between atoms: N_12  and  N_13
REMARK    7  A    between atoms: C_14  and  C_19
REMARK                            x       y       z     vdW  Elec       q    Type
REMARK                         _______ _______ _______ _____ _____    ______ ____
ROOT
ATOM      1  N   UNL     1      -0.180   1.157   0.002  0.00  0.00    -0.192 N 
ATOM      2  C   UNL     1       1.152   1.351  -0.251  0.00  0.00    +0.156 A 
ATOM      3  N   UNL     1       1.735   0.188  -0.171  0.00  0.00    -0.156 NA
ATOM      4  N   UNL     1       0.873  -0.721   0.113  0.00  0.00    -0.253 N 
ATOM      5  C   UNL     1      -0.320  -0.185   0.232  0.00  0.00    +0.196 A 
ATOM      6  S   UNL     1      -1.817  -1.034   0.613  0.00  0.00    -0.010 S 
ATOM      7  H   UNL     1       1.193  -1.768   0.220  0.00  0.00    +0.191 HD
ENDROOT
BRANCH   2   8
ATOM      8  C   UNL     1       1.819   2.666  -0.565  0.00  0.00    +0.059 C 
ATOM      9  C   UNL     1       2.477   2.587  -1.944  0.00  0.00    +0.011 C 
ATOM     10  C   UNL     1       3.154   3.921  -2.263  0.00  0.00    +0.001 C 
ATOM     11  C   UNL     1       4.220   4.217  -1.206  0.00  0.00    +0.000 C 
ATOM     12  C   UNL     1       3.563   4.296   0.173  0.00  0.00    +0.001 C 
ATOM     13  C   UNL     1       2.885   2.962   0.492  0.00  0.00    +0.011 C 
ENDBRANCH   2   8
BRANCH   1  15
ATOM     14  C   UNL     1      -1.718   2.497   1.143  0.00  0.00    +0.141 C 
ATOM     15  N   UNL     1      -1.190   2.128   0.018  0.00  0.00    -0.171 NA
BRANCH  14  19
ATOM     16  C   UNL     1      -0.002   1.224   4.811  0.00  0.00    -0.042 A 
ATOM     17  C   UNL     1      -1.226   1.869   4.811  0.00  0.00    +0.005 A 
ATOM     18  C   UNL     1      -1.790   2.286   3.623  0.00  0.00    +0.010 A 
ATOM     19  C   UNL     1      -1.122   2.055   2.418  0.00  0.00    -0.005 A 
ATOM     20  C   UNL     1       0.111   1.399   2.425  0.00  0.00    +0.010 A 
ATOM     21  C   UNL     1       0.665   0.992   3.621  0.00  0.00    +0.005 A 
BRANCH  16  23
ATOM     22  C   UNL     1      -0.334  -0.218   6.800  0.00  0.00    +0.015 C 
ATOM     23  C   UNL     1       0.608   0.772   6.113  0.00  0.00    -0.013 C 
ATOM     24  C   UNL     1       1.951   0.093   5.839  0.00  0.00    +0.015 C 
ATOM     25  C   UNL     1       0.825   1.984   7.022  0.00  0.00    +0.015 C 
ENDBRANCH  16  23
ENDBRANCH  14  19
ENDBRANCH   1  15
TORSDOF 4
