REMARK  Name = ZINC39528295
REMARK  7 active torsions:
REMARK  status: ('A' for Active; 'I' for Inactive)
REMARK    1  A    between atoms: C_1  and  C_2
REMARK    2  A    between atoms: C_2  and  C_3
REMARK    3  A    between atoms: C_2  and  S_4
REMARK    4  A    between atoms: S_4  and  C_7
REMARK    5  A    between atoms: N_10  and  C_14
REMARK    6  A    between atoms: C_19  and  C_20
REMARK    7  A    between atoms: C_20  and  C_21
REMARK                            x       y       z     vdW  Elec       q    Type
REMARK                         _______ _______ _______ _____ _____    ______ ____
ROOT
ATOM      1  C   UNL     1      -3.187  -5.534  -0.159  0.00  0.00    +0.033 A 
ATOM      2  C   UNL     1      -2.388  -6.058  -1.167  0.00  0.00    +0.024 A 
ATOM      3  C   UNL     1      -2.849  -7.109  -1.935  0.00  0.00    +0.016 A 
ATOM      4  C   UNL     1      -4.105  -7.640  -1.702  0.00  0.00    +0.014 A 
ATOM      5  C   UNL     1      -4.903  -7.120  -0.699  0.00  0.00    +0.020 A 
ATOM      6  C   UNL     1      -4.445  -6.073   0.077  0.00  0.00    -0.021 A 
ATOM      7  I   UNL     1      -4.800  -9.233  -2.870  0.00  0.00    -0.044 I 
ENDROOT
BRANCH   1  10
ATOM      8  C   UNL     1      -1.540  -2.371   0.255  0.00  0.00    +0.215 C 
ATOM      9  C   UNL     1      -2.897  -3.079   0.178  0.00  0.00    +0.147 C 
ATOM     10  N   UNL     1      -2.724  -4.471   0.620  0.00  0.00    -0.325 N 
ATOM     11  C   UNL     1      -2.050  -4.714   1.905  0.00  0.00    +0.120 C 
ATOM     12  C   UNL     1      -0.726  -3.942   1.914  0.00  0.00    +0.101 C 
ATOM     13  N   UNL     1      -0.985  -2.529   1.606  0.00  0.00    -0.293 NA
ATOM     14  H   UNL     1      -0.149  -1.975   1.720  0.00  0.00    +0.124 HD
BRANCH   8  15
ATOM     15  S   UNL     1      -1.756  -0.607  -0.108  0.00  0.00    -0.012 S 
ATOM     16  O   UNL     1      -2.466  -0.010   0.968  0.00  0.00    -0.173 OA
ATOM     17  O   UNL     1      -2.268  -0.479  -1.428  0.00  0.00    -0.173 OA
BRANCH  15  19
ATOM     18  C   UNL     1       0.767  -0.708  -1.158  0.00  0.00    +0.031 C 
ATOM     19  C   UNL     1      -0.053   0.017  -0.090  0.00  0.00    +0.126 C 
ATOM     20  C   UNL     1      -0.058   1.519  -0.383  0.00  0.00    +0.031 C 
ENDBRANCH  15  19
ENDBRANCH   8  15
ENDBRANCH   1  10
BRANCH   6  21
ATOM     21  C   UNL     1      -5.313  -5.511   1.174  0.00  0.00    +0.072 C 
BRANCH  21  22
ATOM     22  C   UNL     1      -6.569  -6.335   1.292  0.00  0.00    -0.043 A 
ATOM     23  C   UNL     1      -7.668  -6.036   0.508  0.00  0.00    +0.004 A 
ATOM     24  C   UNL     1      -8.820  -6.791   0.616  0.00  0.00    +0.000 A 
ATOM     25  C   UNL     1      -8.874  -7.846   1.508  0.00  0.00    +0.000 A 
ATOM     26  C   UNL     1      -7.776  -8.146   2.291  0.00  0.00    +0.000 A 
ATOM     27  C   UNL     1      -6.622  -7.393   2.180  0.00  0.00    +0.004 A 
ENDBRANCH  21  22
ENDBRANCH   6  21
TORSDOF 5
