REMARK  Name = ZINC02667763
REMARK  10 active torsions:
REMARK  status: ('A' for Active; 'I' for Inactive)
REMARK    1  A    between atoms: C_1  and  C_2
REMARK    2  A    between atoms: C_2  and  O_3
REMARK    3  A    between atoms: O_3  and  C_4
REMARK    4  A    between atoms: C_4  and  C_6
REMARK    5  A    between atoms: C_7  and  C_33
REMARK    6  A    between atoms: C_11  and  C_20
REMARK    7  A    between atoms: C_12  and  O_19
REMARK    8  A    between atoms: C_20  and  C_22
REMARK    9  A    between atoms: C_20  and  N_62
REMARK   10  A    between atoms: C_25  and  C_28
REMARK                            x       y       z     vdW  Elec       q    Type
REMARK                         _______ _______ _______ _____ _____    ______ ____
ROOT
ATOM      1  C   UNL     1       2.563  -0.501   1.844  0.00  0.00    +0.108 A 
ATOM      2  C   UNL     1       3.210  -1.043   2.914  0.00  0.00    +0.117 A 
ATOM      3  O   UNL     1       2.315  -1.460   3.815  0.00  0.00    -0.459 OA
ATOM      4  C   UNL     1       1.054  -1.222   3.401  0.00  0.00    +0.144 A 
ATOM      5  C   UNL     1       1.123  -0.611   2.150  0.00  0.00    +0.040 A 
ATOM      6  C   UNL     1      -0.043  -0.243   1.464  0.00  0.00    -0.003 A 
ATOM      7  C   UNL     1      -1.271  -0.470   2.008  0.00  0.00    +0.127 A 
ATOM      8  C   UNL     1      -1.381  -1.091   3.272  0.00  0.00    +0.027 A 
ATOM      9  C   UNL     1      -0.211  -1.469   3.975  0.00  0.00    +0.029 A 
ATOM     10  C   UNL     1      -0.330  -2.082   5.232  0.00  0.00    +0.012 A 
ATOM     11  C   UNL     1      -1.566  -2.307   5.760  0.00  0.00    +0.001 A 
ATOM     12  C   UNL     1      -2.716  -1.936   5.068  0.00  0.00    +0.001 A 
ATOM     13  C   UNL     1      -2.637  -1.338   3.847  0.00  0.00    +0.012 A 
ATOM     14  C   UNL     1       4.706  -1.155   3.059  0.00  0.00    +0.087 C 
ENDROOT
BRANCH   1  15
ATOM     15  C   UNL     1       3.172   0.074   0.637  0.00  0.00    +0.343 C 
ATOM     16  O   UNL     1       3.450   1.257   0.601  0.00  0.00    -0.245 OA
BRANCH  15  17
ATOM     17  O   UNL     1       3.422  -0.709  -0.431  0.00  0.00    -0.461 OA
BRANCH  17  19
ATOM     18  C   UNL     1       4.232  -1.113  -2.692  0.00  0.00    +0.048 C 
ATOM     19  C   UNL     1       4.025  -0.073  -1.589  0.00  0.00    +0.229 C 
ENDBRANCH  17  19
ENDBRANCH  15  17
ENDBRANCH   1  15
BRANCH   7  20
ATOM     20  O   UNL     1      -2.391  -0.102   1.332  0.00  0.00    -0.506 OA
ATOM     21  H   UNL     1      -2.786  -0.812   0.808  0.00  0.00    +0.292 HD
ENDBRANCH   7  20
BRANCH   6  22
ATOM     22  C   UNL     1       0.063   0.416   0.113  0.00  0.00    -0.002 C 
BRANCH  22  23
ATOM     23  C   UNL     1      -0.281   1.878   0.238  0.00  0.00    -0.057 A 
ATOM     24  C   UNL     1      -1.597   2.289   0.136  0.00  0.00    +0.002 A 
ATOM     25  C   UNL     1      -1.914   3.629   0.256  0.00  0.00    +0.003 A 
ATOM     26  C   UNL     1      -0.914   4.559   0.468  0.00  0.00    -0.050 A 
ATOM     27  C   UNL     1       0.403   4.149   0.565  0.00  0.00    +0.003 A 
ATOM     28  C   UNL     1       0.719   2.808   0.451  0.00  0.00    +0.002 A 
ATOM     29  C   UNL     1      -1.258   6.021   0.594  0.00  0.00    +0.044 C 
ENDBRANCH  22  23
BRANCH  22  34
ATOM     30  C   UNL     1      -0.768   0.375  -2.175  0.00  0.00    -0.078 C 
ATOM     31  C   UNL     1      -1.375  -0.715  -3.095  0.00  0.00    -0.020 C 
ATOM     32  C   UNL     1      -0.874  -2.028  -2.451  0.00  0.00    -0.020 C 
ATOM     33  C   UNL     1      -0.543  -1.661  -0.993  0.00  0.00    -0.078 C 
ATOM     34  N   UNL     1      -0.875  -0.243  -0.844  0.00  0.00    +0.387 N 
ATOM     35  H   UNL     1      -1.836  -0.147  -0.494  0.00  0.00    -0.080 HD
ENDBRANCH  22  34
ENDBRANCH   6  22
TORSDOF 7
