REMARK  Name = ZINC08201375
REMARK  7 active torsions:
REMARK  status: ('A' for Active; 'I' for Inactive)
REMARK    1  A    between atoms: C_1  and  C_2
REMARK    2  A    between atoms: C_2  and  C_4
REMARK    3  A    between atoms: C_2  and  N_47
REMARK    4  A    between atoms: C_11  and  C_12
REMARK    5  A    between atoms: C_11  and  N_47
REMARK    6  A    between atoms: N_14  and  C_15
REMARK    7  A    between atoms: C_16  and  C_24
REMARK                            x       y       z     vdW  Elec       q    Type
REMARK                         _______ _______ _______ _____ _____    ______ ____
ROOT
ATOM      1  C   UNL     1       1.286   3.516   0.009  0.00  0.00    +0.201 C 
ATOM      2  O   UNL     1       0.212   4.079   0.022  0.00  0.00    -0.278 OA
ATOM      3  N   UNL     1       2.425   4.236   0.002  0.00  0.00    -0.281 N 
ATOM      4  H   UNL     1       3.284   3.785  -0.009  0.00  0.00    +0.155 HD
ENDROOT
BRANCH   3   5
ATOM      5  C   UNL     1       2.369   5.621   0.010  0.00  0.00    +0.084 A 
ATOM      6  C   UNL     1       3.421   6.527   0.010  0.00  0.00    +0.068 A 
ATOM      7  C   UNL     1       3.089   7.941   0.015  0.00  0.00    -0.023 A 
ATOM      8  C   UNL     1       1.768   8.222   0.030  0.00  0.00    -0.004 A 
ATOM      9  S   UNL     1       0.969   6.642   0.029  0.00  0.00    -0.077 S 
ATOM     10  C   UNL     1       1.133   9.579   0.044  0.00  0.00    +0.043 C 
ATOM     11  C   UNL     1       2.207  10.611   0.417  0.00  0.00    +0.005 C 
ATOM     12  C   UNL     1       3.454  10.355  -0.434  0.00  0.00    +0.005 C 
ATOM     13  C   UNL     1       4.128   9.056   0.009  0.00  0.00    +0.037 C 
BRANCH   6  14
ATOM     14  C   UNL     1       4.815   6.073   0.002  0.00  0.00    +0.244 C 
ATOM     15  O   UNL     1       5.389   5.890  -1.056  0.00  0.00    -0.270 OA
ATOM     16  N   UNL     1       5.460   5.857   1.165  0.00  0.00    -0.325 N 
ATOM     17  H   UNL     1       5.003   6.002   2.008  0.00  0.00    +0.145 HD
ATOM     18  H   UNL     1       6.383   5.557   1.159  0.00  0.00    +0.145 HD
ENDBRANCH   6  14
ENDBRANCH   3   5
BRANCH   1  19
ATOM     19  C   UNL     1       1.346   2.010   0.000  0.00  0.00    +0.016 C 
BRANCH  19  20
ATOM     20  N   UNL     1      -0.027   1.471   0.010  0.00  0.00    +0.389 N 
ATOM     21  H   UNL     1      -0.512   1.795   0.855  0.00  0.00    -0.084 HD
ATOM     22  H   UNL     1      -0.528   1.804  -0.822  0.00  0.00    -0.084 HD
BRANCH  20  24
ATOM     23  C   UNL     1       0.121  -0.505  -1.439  0.00  0.00    -0.009 C 
ATOM     24  C   UNL     1       0.002  -0.004   0.002  0.00  0.00    -0.043 C 
BRANCH  24  25
ATOM     25  C   UNL     1      -1.273  -0.527   0.612  0.00  0.00    -0.062 A 
ATOM     26  C   UNL     1      -2.476   0.096   0.338  0.00  0.00    +0.003 A 
ATOM     27  C   UNL     1      -3.647  -0.387   0.893  0.00  0.00    +0.020 A 
ATOM     28  C   UNL     1      -3.612  -1.487   1.731  0.00  0.00    +0.041 A 
ATOM     29  C   UNL     1      -2.407  -2.107   2.009  0.00  0.00    +0.020 A 
ATOM     30  C   UNL     1      -1.238  -1.626   1.449  0.00  0.00    +0.003 A 
ATOM     31 CL   UNL     1      -5.081  -2.089   2.434  0.00  0.00    -0.084 Cl
ENDBRANCH  24  25
ENDBRANCH  20  24
ENDBRANCH  19  20
ENDBRANCH   1  19
TORSDOF 6
