REMARK  Name = ZINC39883826
REMARK  9 active torsions:
REMARK  status: ('A' for Active; 'I' for Inactive)
REMARK    1  A    between atoms: C_1  and  C_2
REMARK    2  A    between atoms: N_8  and  S_9
REMARK    3  A    between atoms: S_9  and  C_12
REMARK    4  A    between atoms: C_15  and  N_18
REMARK    5  A    between atoms: C_19  and  C_21
REMARK    6  A    between atoms: C_21  and  C_22
REMARK    7  A    between atoms: C_28  and  C_31
REMARK    8  A    between atoms: C_31  and  C_32
REMARK    9  A    between atoms: C_31  and  C_33
REMARK                            x       y       z     vdW  Elec       q    Type
REMARK                         _______ _______ _______ _____ _____    ______ ____
ROOT
ATOM      1  N   UNL     1      -2.639   1.343   6.727  0.00  0.00    -0.285 N 
ATOM      2  C   UNL     1      -3.861   1.844   6.454  0.00  0.00    +0.222 C 
ATOM      3  O   UNL     1      -4.189   2.049   5.304  0.00  0.00    -0.275 OA
ATOM      4  H   UNL     1      -2.405   1.106   7.638  0.00  0.00    +0.155 HD
ENDROOT
BRANCH   1   8
ATOM      5  C   UNL     1       0.129   0.813   3.659  0.00  0.00    +0.106 A 
ATOM      6  C   UNL     1      -0.768   1.864   3.604  0.00  0.00    +0.030 A 
ATOM      7  C   UNL     1      -1.687   2.042   4.620  0.00  0.00    +0.025 A 
ATOM      8  C   UNL     1      -1.710   1.165   5.696  0.00  0.00    +0.034 A 
ATOM      9  C   UNL     1      -0.808   0.110   5.747  0.00  0.00    +0.025 A 
ATOM     10  C   UNL     1       0.105  -0.066   4.726  0.00  0.00    +0.030 A 
BRANCH   5  11
ATOM     11  S   UNL     1       1.300   0.589   2.361  0.00  0.00    +0.061 S 
ATOM     12  O   UNL     1       2.297  -0.290   2.862  0.00  0.00    -0.153 OA
ATOM     13  O   UNL     1       1.606   1.884   1.862  0.00  0.00    -0.153 OA
BRANCH  11  20
ATOM     14  C   UNL     1       1.140  -2.237   2.386  0.00  0.00    +0.026 C 
ATOM     15  C   UNL     1       0.368  -1.678   1.190  0.00  0.00    +0.077 C 
ATOM     16  C   UNL     1       0.919  -2.283  -0.105  0.00  0.00    +0.020 C 
ATOM     17  C   UNL     1       0.238  -1.618  -1.304  0.00  0.00    +0.003 C 
ATOM     18  C   UNL     1       0.547  -0.119  -1.301  0.00  0.00    +0.017 C 
ATOM     19  C   UNL     1      -0.008   0.510  -0.019  0.00  0.00    +0.110 C 
ATOM     20  N   UNL     1       0.527  -0.219   1.139  0.00  0.00    -0.174 NA
ENDBRANCH  11  20
ENDBRANCH   5  11
ENDBRANCH   1   8
BRANCH   2  21
ATOM     21  C   UNL     1      -4.819   2.148   7.576  0.00  0.00    +0.135 C 
BRANCH  21  22
ATOM     22  C   UNL     1      -6.103   2.693   7.007  0.00  0.00    +0.007 A 
ATOM     23  C   UNL     1      -6.430   3.983   6.850  0.00  0.00    +0.200 A 
ATOM     24  O   UNL     1      -7.657   4.087   6.310  0.00  0.00    -0.463 OA
ATOM     25  C   UNL     1      -8.190   2.869   6.089  0.00  0.00    +0.135 A 
ATOM     26  C   UNL     1      -7.245   1.918   6.508  0.00  0.00    +0.024 A 
ATOM     27  C   UNL     1      -7.523   0.557   6.393  0.00  0.00    +0.015 A 
ATOM     28  C   UNL     1      -8.729   0.151   5.864  0.00  0.00    -0.044 A 
ATOM     29  C   UNL     1      -9.661   1.089   5.447  0.00  0.00    +0.007 A 
ATOM     30  C   UNL     1      -9.401   2.438   5.562  0.00  0.00    +0.047 A 
BRANCH  28  31
ATOM     31  C   UNL     1      -9.036  -1.319   5.737  0.00  0.00    +0.013 C 
ATOM     32  C   UNL     1     -10.287  -1.651   6.553  0.00  0.00    +0.012 C 
ATOM     33  C   UNL     1      -9.279  -1.665   4.267  0.00  0.00    +0.012 C 
ENDBRANCH  28  31
ENDBRANCH  21  22
ENDBRANCH   2  21
TORSDOF 6
