REMARK  Name = ZINC38642949
REMARK  10 active torsions:
REMARK  status: ('A' for Active; 'I' for Inactive)
REMARK    1  A    between atoms: C_1  and  C_2
REMARK    2  A    between atoms: C_5  and  C_8
REMARK    3  A    between atoms: N_14  and  C_15
REMARK    4  A    between atoms: C_15  and  C_16
REMARK    5  A    between atoms: C_16  and  C_17
REMARK    6  A    between atoms: N_19  and  N_20
REMARK    7  A    between atoms: C_21  and  C_23
REMARK    8  A    between atoms: C_24  and  C_37
REMARK    9  A    between atoms: N_25  and  C_30
REMARK   10  A    between atoms: C_26  and  C_29
REMARK                            x       y       z     vdW  Elec       q    Type
REMARK                         _______ _______ _______ _____ _____    ______ ____
ROOT
ATOM      1  C   UNL     1      -1.090  -4.425   4.641  0.00  0.00    +0.231 C 
ATOM      2  O   UNL     1      -0.040  -3.900   4.942  0.00  0.00    -0.274 OA
ATOM      3  N   UNL     1      -2.151  -4.330   5.467  0.00  0.00    -0.234 N 
ATOM      4  H   UNL     1      -2.992  -4.751   5.227  0.00  0.00    +0.173 HD
ENDROOT
BRANCH   3   5
ATOM      5  N   UNL     1      -2.040  -3.624   6.672  0.00  0.00    -0.231 N 
ATOM      6  C   UNL     1      -3.102  -3.530   7.498  0.00  0.00    +0.258 C 
ATOM      7  O   UNL     1      -4.157  -4.057   7.196  0.00  0.00    -0.269 OA
ATOM      8  H   UNL     1      -1.200  -3.204   6.912  0.00  0.00    +0.173 HD
BRANCH   6   9
ATOM      9  C   UNL     1      -2.989  -2.817   8.714  0.00  0.00    +0.034 C 
ATOM     10  C   UNL     1      -3.992  -2.561   9.569  0.00  0.00    +0.016 C 
ATOM     11  N   UNL     1      -3.610  -1.856  10.665  0.00  0.00    -0.300 N 
ATOM     12  C   UNL     1      -2.171  -1.569  10.597  0.00  0.00    +0.080 C 
ATOM     13  C   UNL     1      -1.717  -2.220   9.275  0.00  0.00    +0.064 C 
ATOM     14  C   UNL     1      -1.926  -0.059  10.570  0.00  0.00    +0.029 C 
ATOM     15  C   UNL     1      -5.410  -3.014   9.334  0.00  0.00    +0.061 C 
BRANCH  11  16
ATOM     16  C   UNL     1      -4.460  -1.461  11.703  0.00  0.00    +0.034 A 
ATOM     17  C   UNL     1      -5.503  -0.579  11.451  0.00  0.00    +0.026 A 
ATOM     18  C   UNL     1      -6.342  -0.191  12.477  0.00  0.00    +0.040 A 
ATOM     19  C   UNL     1      -6.143  -0.680  13.758  0.00  0.00    +0.124 A 
ATOM     20  C   UNL     1      -5.103  -1.559  14.011  0.00  0.00    +0.040 A 
ATOM     21  C   UNL     1      -4.266  -1.954  12.987  0.00  0.00    +0.026 A 
ATOM     22  F   UNL     1      -6.963  -0.298  14.760  0.00  0.00    -0.205 F 
ENDBRANCH  11  16
ENDBRANCH   6   9
ENDBRANCH   3   5
BRANCH   1  23
ATOM     23  C   UNL     1      -1.210  -5.185   3.345  0.00  0.00    +0.119 C 
BRANCH  23  24
ATOM     24  C   UNL     1       0.127  -5.139   2.603  0.00  0.00    +0.135 C 
BRANCH  24  31
ATOM     25  C   UNL     1      -0.280  -5.099   0.101  0.00  0.00    +0.163 A 
ATOM     26  H   UNL     1      -0.125  -8.088  -0.784  0.00  0.00    +0.191 HD
ATOM     27  N   UNL     1      -0.344  -5.977  -0.860  0.00  0.00    -0.153 NA
ATOM     28  N   UNL     1      -0.132  -7.246  -0.304  0.00  0.00    -0.254 N 
ATOM     29  C   UNL     1       0.058  -7.081   1.021  0.00  0.00    +0.176 A 
ATOM     30  S   UNL     1       0.357  -8.323   2.161  0.00  0.00    -0.011 S 
ATOM     31  N   UNL     1      -0.025  -5.762   1.285  0.00  0.00    -0.303 N 
BRANCH  25  36
ATOM     32  C   UNL     1      -0.931   0.589  -0.492  0.00  0.00    +0.044 C 
ATOM     33  C   UNL     1      -0.760  -0.900  -0.337  0.00  0.00    -0.050 A 
ATOM     34  C   UNL     1      -0.444  -1.676  -1.438  0.00  0.00    +0.004 A 
ATOM     35  C   UNL     1      -0.286  -3.040  -1.302  0.00  0.00    +0.012 A 
ATOM     36  C   UNL     1      -0.447  -3.636  -0.051  0.00  0.00    +0.019 A 
ATOM     37  C   UNL     1      -0.766  -2.849   1.055  0.00  0.00    +0.012 A 
ATOM     38  C   UNL     1      -0.915  -1.485   0.907  0.00  0.00    +0.004 A 
ENDBRANCH  25  36
ENDBRANCH  24  31
ENDBRANCH  23  24
ENDBRANCH   1  23
TORSDOF 7
