REMARK  Name = ZINC63405995
REMARK  6 active torsions:
REMARK  status: ('A' for Active; 'I' for Inactive)
REMARK    1  A    between atoms: C_1  and  C_2
REMARK    2  A    between atoms: C_5  and  C_8
REMARK    3  A    between atoms: C_10  and  S_14
REMARK    4  A    between atoms: S_14  and  C_15
REMARK    5  A    between atoms: C_15  and  C_16
REMARK    6  A    between atoms: C_24  and  C_27
REMARK                            x       y       z     vdW  Elec       q    Type
REMARK                         _______ _______ _______ _____ _____    ______ ____
ROOT
ATOM      1  S   UNL     1       0.105  -7.696   1.778  0.00  0.00    -0.080 S 
ENDROOT
BRANCH   1   4
ATOM      2  C   UNL     1       0.059  -4.256  -0.021  0.00  0.00    +0.182 A 
ATOM      3  N   UNL     1       0.070  -5.042   1.065  0.00  0.00    -0.201 NA
ATOM      4  C   UNL     1       0.086  -6.304   0.698  0.00  0.00    +0.185 A 
ATOM      5  N   UNL     1       0.086  -6.347  -0.653  0.00  0.00    -0.253 N 
ATOM      6  H   UNL     1       0.096  -7.142  -1.209  0.00  0.00    +0.191 HD
ATOM      7  N   UNL     1       0.064  -5.014  -1.094  0.00  0.00    -0.152 NA
BRANCH   2  12
ATOM      8  C   UNL     1      -0.018   1.503   0.010  0.00  0.00    +0.044 C 
ATOM      9  C   UNL     1       0.002  -0.004   0.002  0.00  0.00    -0.050 A 
ATOM     10  C   UNL     1       0.006  -0.686  -1.201  0.00  0.00    +0.004 A 
ATOM     11  C   UNL     1       0.024  -2.067  -1.215  0.00  0.00    +0.012 A 
ATOM     12  C   UNL     1       0.040  -2.772  -0.013  0.00  0.00    +0.021 A 
ATOM     13  C   UNL     1       0.036  -2.080   1.196  0.00  0.00    +0.012 A 
ATOM     14  C   UNL     1       0.023  -0.700   1.198  0.00  0.00    +0.004 A 
ENDBRANCH   2  12
ENDBRANCH   1   4
BRANCH   1  15
ATOM     15  C   UNL     1       0.095  -6.965   3.437  0.00  0.00    +0.133 C 
BRANCH  15  16
ATOM     16  C   UNL     1       0.110  -8.062   4.470  0.00  0.00    +0.060 A 
ATOM     17  C   UNL     1       1.248  -8.340   5.171  0.00  0.00    +0.096 A 
ATOM     18  C   UNL     1       1.248  -9.373   6.113  0.00  0.00    +0.272 A 
ATOM     19  O   UNL     1       2.260  -9.618   6.750  0.00  0.00    -0.266 OA
ATOM     20  N   UNL     1       0.114 -10.110   6.322  0.00  0.00    -0.206 N 
ATOM     21  C   UNL     1      -0.992  -9.736   5.604  0.00  0.00    +0.191 A 
ATOM     22  N   UNL     1      -0.989  -8.773   4.718  0.00  0.00    -0.226 NA
ATOM     23  S   UNL     1      -2.289 -10.810   6.195  0.00  0.00    -0.063 S 
ATOM     24  C   UNL     1      -1.359 -11.487   7.637  0.00  0.00    +0.149 C 
ATOM     25  N   UNL     1       0.018 -11.178   7.170  0.00  0.00    -0.267 N 
ATOM     26  C   UNL     1      -1.577 -12.993   7.792  0.00  0.00    +0.041 C 
ATOM     27  H   UNL     1       0.458 -11.995   6.774  0.00  0.00    +0.168 HD
ENDBRANCH  15  16
ENDBRANCH   1  15
TORSDOF 4
