REMARK  Name = ZINC39024714
REMARK  10 active torsions:
REMARK  status: ('A' for Active; 'I' for Inactive)
REMARK    1  A    between atoms: C_1  and  C_2
REMARK    2  A    between atoms: C_2  and  C_3
REMARK    3  A    between atoms: C_2  and  C_4
REMARK    4  A    between atoms: C_4  and  C_5
REMARK    5  A    between atoms: C_5  and  C_6
REMARK    6  A    between atoms: C_6  and  N_7
REMARK    7  A    between atoms: C_8  and  O_32
REMARK    8  A    between atoms: C_10  and  C_16
REMARK    9  A    between atoms: C_11  and  O_15
REMARK   10  A    between atoms: N_30  and  C_31
REMARK                            x       y       z     vdW  Elec       q    Type
REMARK                         _______ _______ _______ _____ _____    ______ ____
ROOT
ATOM      1  N   UNL     1      -0.041  -0.297   5.010  0.00  0.00    -0.256 N 
ATOM      2  C   UNL     1       0.235   0.976   5.695  0.00  0.00    +0.240 C 
ATOM      3  C   UNL     1      -0.657   1.339   6.864  0.00  0.00    +0.057 C 
ATOM      4  C   UNL     1      -1.626   0.492   7.196  0.00  0.00    +0.190 C 
ATOM      5  N   UNL     1      -1.817  -0.689   6.496  0.00  0.00    -0.240 N 
ATOM      6  C   UNL     1      -1.062  -1.057   5.452  0.00  0.00    +0.311 C 
ATOM      7  O   UNL     1      -1.302  -2.109   4.892  0.00  0.00    -0.252 OA
ATOM      8  H   UNL     1      -2.537  -1.277   6.774  0.00  0.00    +0.159 HD
ENDROOT
BRANCH   3   9
ATOM      9  C   UNL     1      -0.452   2.622   7.627  0.00  0.00    +0.139 C 
ATOM     10  C   UNL     1      -1.768   3.082   8.210  0.00  0.00    +0.042 A 
ATOM     11  H   UNL     1      -3.154   2.814   6.678  0.00  0.00    +0.166 HD
ATOM     12  C   UNL     1      -1.891   3.549   9.474  0.00  0.00    -0.016 A 
ATOM     13  C   UNL     1      -3.283   3.886   9.671  0.00  0.00    +0.003 A 
ATOM     14  C   UNL     1      -3.990   4.404  10.760  0.00  0.00    +0.010 A 
ATOM     15  C   UNL     1      -5.337   4.604  10.588  0.00  0.00    +0.001 A 
ATOM     16  C   UNL     1      -5.978   4.309   9.396  0.00  0.00    +0.002 A 
ATOM     17  C   UNL     1      -5.303   3.795   8.302  0.00  0.00    +0.026 A 
ATOM     18  C   UNL     1      -3.934   3.583   8.447  0.00  0.00    +0.047 A 
ATOM     19  N   UNL     1      -2.987   3.100   7.590  0.00  0.00    -0.356 N 
ATOM     20  C   UNL     1      -0.734   3.665  10.434  0.00  0.00    +0.053 C 
ATOM     21  C   UNL     1       0.567   3.560   9.625  0.00  0.00    +0.090 C 
ATOM     22  N   UNL     1       0.497   2.396   8.729  0.00  0.00    -0.293 NA
ATOM     23  C   UNL     1       0.155   1.179   9.477  0.00  0.00    +0.105 C 
ENDBRANCH   3   9
BRANCH   4  24
ATOM     24  O   UNL     1      -2.442   0.789   8.239  0.00  0.00    -0.495 OA
ATOM     25  H   UNL     1      -3.118   0.120   8.412  0.00  0.00    +0.293 HD
ENDBRANCH   4  24
BRANCH   2  26
ATOM     26  O   UNL     1       1.583   0.938   6.167  0.00  0.00    -0.370 OA
ATOM     27  H   UNL     1       2.241   0.826   5.468  0.00  0.00    +0.212 HD
ENDBRANCH   2  26
BRANCH   1  28
ATOM     28  C   UNL     1       0.773  -0.726   3.869  0.00  0.00    +0.112 C 
BRANCH  28  29
ATOM     29  C   UNL     1       0.158  -0.191   2.574  0.00  0.00    +0.019 C 
BRANCH  29  30
ATOM     30  C   UNL     1       1.008  -0.639   1.383  0.00  0.00    +0.004 C 
BRANCH  30  32
ATOM     31  C   UNL     1       0.464   1.425   0.084  0.00  0.00    +0.007 C 
ATOM     32  C   UNL     1       0.393  -0.104   0.088  0.00  0.00    -0.017 C 
ATOM     33  C   UNL     1       1.170  -0.654  -1.110  0.00  0.00    +0.007 C 
ENDBRANCH  30  32
ENDBRANCH  29  30
ENDBRANCH  28  29
ENDBRANCH   1  28
TORSDOF 7
