REMARK  Name = ZINC08914924
REMARK  8 active torsions:
REMARK  status: ('A' for Active; 'I' for Inactive)
REMARK    1  A    between atoms: C_1  and  C_2
REMARK    2  A    between atoms: C_8  and  C_9
REMARK    3  A    between atoms: C_8  and  N_56
REMARK    4  A    between atoms: C_10  and  O_32
REMARK    5  A    between atoms: C_16  and  C_28
REMARK    6  A    between atoms: C_17  and  C_20
REMARK    7  A    between atoms: C_23  and  O_26
REMARK    8  A    between atoms: O_26  and  C_27
REMARK                            x       y       z     vdW  Elec       q    Type
REMARK                         _______ _______ _______ _____ _____    ______ ____
ROOT
ATOM      1  C   UNL     1      -4.256   4.942   0.547  0.00  0.00    +0.020 A 
ATOM      2  C   UNL     1      -5.189   4.844   1.566  0.00  0.00    +0.122 A 
ATOM      3  C   UNL     1      -5.276   3.689   2.340  0.00  0.00    +0.046 A 
ATOM      4  C   UNL     1      -4.440   2.636   2.102  0.00  0.00    +0.019 A 
ATOM      5  C   UNL     1      -3.495   2.719   1.080  0.00  0.00    +0.065 A 
ATOM      6  C   UNL     1      -3.399   3.880   0.293  0.00  0.00    +0.144 A 
ATOM      7  O   UNL     1      -2.485   3.958  -0.695  0.00  0.00    -0.450 OA
ATOM      8  C   UNL     1      -1.631   2.973  -0.983  0.00  0.00    +0.219 A 
ATOM      9  C   UNL     1      -1.618   1.796  -0.307  0.00  0.00    +0.076 A 
ATOM     10  C   UNL     1      -2.576   1.602   0.795  0.00  0.00    +0.201 A 
ATOM     11  O   UNL     1      -2.608   0.568   1.440  0.00  0.00    -0.286 OA
ENDROOT
BRANCH   9  12
ATOM     12  C   UNL     1      -0.654   0.727  -0.667  0.00  0.00    -0.010 A 
ATOM     13  C   UNL     1      -0.806   0.023  -1.861  0.00  0.00    +0.012 A 
ATOM     14  C   UNL     1       0.089  -0.974  -2.191  0.00  0.00    +0.046 A 
ATOM     15  C   UNL     1       1.139  -1.276  -1.335  0.00  0.00    +0.120 A 
ATOM     16  C   UNL     1       1.292  -0.577  -0.146  0.00  0.00    +0.046 A 
ATOM     17  C   UNL     1       0.401   0.421   0.190  0.00  0.00    +0.012 A 
BRANCH  15  18
ATOM     18  O   UNL     1       2.018  -2.259  -1.662  0.00  0.00    -0.495 OA
ATOM     19  C   UNL     1       1.801  -2.938  -2.901  0.00  0.00    +0.277 C 
ENDBRANCH  15  18
ENDBRANCH   9  12
BRANCH   8  20
ATOM     20  C   UNL     1      -0.646   3.174  -2.106  0.00  0.00    +0.451 C 
ATOM     21  F   UNL     1      -0.972   2.324  -3.169  0.00  0.00    -0.163 F 
ATOM     22  F   UNL     1      -0.697   4.503  -2.540  0.00  0.00    -0.163 F 
ATOM     23  F   UNL     1       0.644   2.880  -1.653  0.00  0.00    -0.163 F 
ENDBRANCH   8  20
BRANCH   2  24
ATOM     24  O   UNL     1      -6.027   5.884   1.813  0.00  0.00    -0.506 OA
ATOM     25  H   UNL     1      -6.855   5.848   1.316  0.00  0.00    +0.292 HD
ENDBRANCH   2  24
BRANCH   1  26
ATOM     26  C   UNL     1      -4.173   6.197  -0.283  0.00  0.00    -0.036 C 
BRANCH  26  33
ATOM     27  C   UNL     1      -6.159   8.507  -4.144  0.00  0.00    +0.005 C 
ATOM     28  C   UNL     1      -6.007   7.165  -3.426  0.00  0.00    -0.031 C 
ATOM     29  C   UNL     1      -7.391   6.618  -3.066  0.00  0.00    -0.001 C 
ATOM     30  C   UNL     1      -7.229   5.306  -2.294  0.00  0.00    -0.018 C 
ATOM     31  C   UNL     1      -6.378   5.555  -1.046  0.00  0.00    -0.078 C 
ATOM     32  C   UNL     1      -5.192   7.360  -2.145  0.00  0.00    -0.075 C 
ATOM     33  N   UNL     1      -5.051   6.056  -1.462  0.00  0.00    +0.383 N 
ATOM     34  H   UNL     1      -4.630   5.383  -2.113  0.00  0.00    -0.081 HD
ENDBRANCH  26  33
ENDBRANCH   1  26
TORSDOF 6
