REMARK  Name = ZINC14832170
REMARK  12 active torsions:
REMARK  status: ('A' for Active; 'I' for Inactive)
REMARK    1  A    between atoms: C_1  and  C_2
REMARK    2  A    between atoms: C_2  and  C_3
REMARK    3  A    between atoms: C_3  and  C_5
REMARK    4  A    between atoms: C_3  and  C_6
REMARK    5  A    between atoms: C_9  and  O_13
REMARK    6  A    between atoms: O_13  and  C_14
REMARK    7  A    between atoms: C_14  and  C_15
REMARK    8  A    between atoms: N_17  and  C_18
REMARK    9  A    between atoms: C_21  and  N_24
REMARK   10  A    between atoms: C_25  and  C_27
REMARK   11  A    between atoms: C_27  and  C_28
REMARK   12  A    between atoms: C_27  and  C_29
REMARK                            x       y       z     vdW  Elec       q    Type
REMARK                         _______ _______ _______ _____ _____    ______ ____
ROOT
ATOM      1  C   UNL     1      -4.483   5.103   0.756  0.00  0.00    +0.255 C 
ATOM      2  O   UNL     1      -3.456   5.747   0.718  0.00  0.00    -0.272 OA
ATOM      3  N   UNL     1      -4.437   3.757   0.714  0.00  0.00    -0.283 N 
ATOM      4  H   UNL     1      -5.252   3.240   0.812  0.00  0.00    +0.155 HD
ENDROOT
BRANCH   3   5
ATOM      5  C   UNL     1      -3.212   3.104   0.530  0.00  0.00    +0.034 A 
ATOM      6  C   UNL     1      -3.156   1.928  -0.207  0.00  0.00    +0.025 A 
ATOM      7  C   UNL     1      -1.948   1.284  -0.390  0.00  0.00    +0.025 A 
ATOM      8  C   UNL     1      -0.789   1.813   0.163  0.00  0.00    +0.034 A 
ATOM      9  C   UNL     1      -0.846   2.985   0.905  0.00  0.00    +0.025 A 
ATOM     10  C   UNL     1      -2.053   3.632   1.083  0.00  0.00    +0.025 A 
BRANCH   8  11
ATOM     11  N   UNL     1       0.436   1.160  -0.022  0.00  0.00    -0.285 N 
ATOM     12  C   UNL     1       0.692   0.525  -1.183  0.00  0.00    +0.220 C 
ATOM     13  O   UNL     1      -0.167   0.451  -2.036  0.00  0.00    -0.275 OA
ATOM     14  H   UNL     1       1.099   1.161   0.686  0.00  0.00    +0.155 HD
BRANCH  12  15
ATOM     15  C   UNL     1       2.046  -0.094  -1.421  0.00  0.00    +0.069 C 
ATOM     16  C   UNL     1       2.317  -1.154  -0.351  0.00  0.00    +0.017 C 
ATOM     17  C   UNL     1       2.072  -0.746  -2.804  0.00  0.00    +0.017 C 
ENDBRANCH  12  15
ENDBRANCH   8  11
ENDBRANCH   3   5
BRANCH   1  18
ATOM     18  C   UNL     1      -5.811   5.809   0.850  0.00  0.00    +0.324 C 
BRANCH  18  19
ATOM     19  O   UNL     1      -5.599   7.222   0.879  0.00  0.00    -0.482 OA
BRANCH  19  23
ATOM     20  C   UNL     1      -8.950   9.615   1.135  0.00  0.00    -0.043 A 
ATOM     21  C   UNL     1      -9.085   8.239   1.102  0.00  0.00    +0.007 A 
ATOM     22  C   UNL     1      -7.965   7.436   1.011  0.00  0.00    +0.047 A 
ATOM     23  C   UNL     1      -6.703   8.010   0.963  0.00  0.00    +0.135 A 
ATOM     24  C   UNL     1      -6.570   9.392   0.996  0.00  0.00    +0.060 A 
ATOM     25  C   UNL     1      -7.694  10.191   1.082  0.00  0.00    +0.022 A 
ATOM     26 BR   UNL     1      -4.852  10.179   0.923  0.00  0.00    -0.047 Br
BRANCH  20  27
ATOM     27  C   UNL     1     -10.175  10.489   1.228  0.00  0.00    +0.016 C 
ATOM     28  C   UNL     1     -10.939  10.161   2.512  0.00  0.00    +0.012 C 
BRANCH  27  30
ATOM     29  C   UNL     1     -12.257  11.207   0.048  0.00  0.00    +0.004 C 
ATOM     30  C   UNL     1     -11.077  10.233   0.018  0.00  0.00    +0.004 C 
ENDBRANCH  27  30
ENDBRANCH  20  27
ENDBRANCH  19  23
ENDBRANCH  18  19
ENDBRANCH   1  18
TORSDOF 8
