REMARK  Name = ZINC11667840
REMARK  8 active torsions:
REMARK  status: ('A' for Active; 'I' for Inactive)
REMARK    1  A    between atoms: N_9  and  C_10
REMARK    2  A    between atoms: C_10  and  C_11
REMARK    3  A    between atoms: C_11  and  C_12
REMARK    4  A    between atoms: C_12  and  N_13
REMARK    5  A    between atoms: C_14  and  C_16
REMARK    6  A    between atoms: C_16  and  C_17
REMARK    7  A    between atoms: C_24  and  C_25
REMARK    8  A    between atoms: C_24  and  N_58
REMARK                            x       y       z     vdW  Elec       q    Type
REMARK                         _______ _______ _______ _____ _____    ______ ____
ROOT
ATOM      1  C   UNL     1      -0.288   1.459   5.776  0.00  0.00    +0.028 C 
ATOM      2  C   UNL     1      -1.671   0.887   5.636  0.00  0.00    +0.200 C 
ATOM      3  O   UNL     1      -1.789  -0.271   5.295  0.00  0.00    -0.278 OA
ATOM      4  N   UNL     1      -2.776   1.601   5.873  0.00  0.00    -0.318 N 
ATOM      5  C   UNL     1      -2.745   3.011   6.253  0.00  0.00    +0.085 C 
ATOM      6  C   UNL     1      -1.352   3.385   6.764  0.00  0.00    -0.058 C 
ATOM      7  H   UNL     1      -3.638   1.163   5.788  0.00  0.00    +0.149 HD
ATOM      8  N   UNL     1      -0.362   2.932   5.766  0.00  0.00    +0.391 N 
ATOM      9  H   UNL     1      -0.656   3.248   4.835  0.00  0.00    -0.080 HD
ENDROOT
BRANCH   1  10
ATOM     10  C   UNL     1       0.574   0.996   4.599  0.00  0.00    +0.089 C 
BRANCH  10  12
ATOM     11  N   UNL     1       0.659   1.347   2.152  0.00  0.00    -0.315 N 
ATOM     12  C   UNL     1       0.007   1.546   3.315  0.00  0.00    +0.212 C 
ATOM     13  O   UNL     1      -1.034   2.167   3.329  0.00  0.00    -0.276 OA
ATOM     14  H   UNL     1       1.492   0.850   2.142  0.00  0.00    +0.149 HD
BRANCH  11  15
ATOM     15  C   UNL     1       0.109   1.881   0.904  0.00  0.00    +0.106 C 
BRANCH  15  16
ATOM     16  C   UNL     1       1.035   1.517  -0.258  0.00  0.00    +0.040 C 
BRANCH  16  17
ATOM     17  C   UNL     1       0.460   2.075  -1.562  0.00  0.00    +0.123 C 
BRANCH  17  26
ATOM     18  C   UNL     1       1.750  -1.594  -5.094  0.00  0.00    +0.001 A 
ATOM     19  C   UNL     1       0.757  -1.665  -4.127  0.00  0.00    +0.002 A 
ATOM     20  C   UNL     1       0.538  -0.611  -3.267  0.00  0.00    +0.026 A 
ATOM     21  C   UNL     1       1.319   0.536  -3.366  0.00  0.00    +0.049 A 
ATOM     22  C   UNL     1       2.321   0.604  -4.351  0.00  0.00    -0.000 A 
ATOM     23  C   UNL     1       2.522  -0.474  -5.216  0.00  0.00    +0.010 A 
ATOM     24  C   UNL     1       2.956   1.915  -4.192  0.00  0.00    +0.027 A 
ATOM     25  C   UNL     1       2.331   2.533  -3.178  0.00  0.00    +0.087 A 
ATOM     26  N   UNL     1       1.347   1.726  -2.675  0.00  0.00    -0.347 N 
ENDBRANCH  17  26
ENDBRANCH  16  17
ENDBRANCH  15  16
ENDBRANCH  11  15
ENDBRANCH  10  12
ENDBRANCH   1  10
BRANCH   8  27
ATOM     27  C   UNL     1       0.968   3.508   6.072  0.00  0.00    -0.039 C 
BRANCH  27  28
ATOM     28  C   UNL     1       0.922   4.996   5.839  0.00  0.00    -0.026 A 
ATOM     29  C   UNL     1       1.300   5.516   4.615  0.00  0.00    +0.005 A 
ATOM     30  C   UNL     1       1.253   6.880   4.397  0.00  0.00    +0.003 A 
ATOM     31  C   UNL     1       0.839   7.729   5.407  0.00  0.00    +0.041 A 
ATOM     32  C   UNL     1       0.465   7.212   6.636  0.00  0.00    +0.159 A 
ATOM     33  C   UNL     1       0.507   5.843   6.852  0.00  0.00    +0.160 A 
ATOM     34  F   UNL     1       0.143   5.336   8.050  0.00  0.00    -0.202 F 
ATOM     35  F   UNL     1       0.060   8.040   7.623  0.00  0.00    -0.202 F 
ENDBRANCH  27  28
ENDBRANCH   8  27
TORSDOF 8
