REMARK  Name = ZINC54512746
REMARK  5 active torsions:
REMARK  status: ('A' for Active; 'I' for Inactive)
REMARK    1  A    between atoms: C_4  and  N_13
REMARK    2  A    between atoms: C_6  and  N_7
REMARK    3  A    between atoms: N_16  and  C_17
REMARK    4  A    between atoms: N_16  and  C_24
REMARK    5  A    between atoms: C_17  and  C_18
REMARK                            x       y       z     vdW  Elec       q    Type
REMARK                         _______ _______ _______ _____ _____    ______ ____
ROOT
ATOM      1  N   UNL     1       4.396  -0.436   0.162  0.00  0.00    -0.267 N 
ATOM      2  C   UNL     1       4.140  -1.759   0.207  0.00  0.00    +0.307 C 
ATOM      3  O   UNL     1       3.015  -2.153   0.448  0.00  0.00    -0.252 OA
ATOM      4  N   UNL     1       5.131  -2.645  -0.016  0.00  0.00    -0.282 N 
ATOM      5  H   UNL     1       5.276  -0.121  -0.097  0.00  0.00    +0.156 HD
ENDROOT
BRANCH   1   9
ATOM      6  C   UNL     1       1.407   2.308   1.136  0.00  0.00    +0.026 A 
ATOM      7  C   UNL     1       2.737   2.651   1.290  0.00  0.00    +0.042 A 
ATOM      8  C   UNL     1       3.729   1.744   0.968  0.00  0.00    +0.145 A 
ATOM      9  C   UNL     1       3.391   0.483   0.488  0.00  0.00    +0.072 A 
ATOM     10  C   UNL     1       2.057   0.137   0.334  0.00  0.00    +0.049 A 
ATOM     11  C   UNL     1       1.064   1.051   0.657  0.00  0.00    +0.041 A 
ATOM     12  F   UNL     1       5.029   2.082   1.119  0.00  0.00    -0.204 F 
BRANCH  11  13
ATOM     13  N   UNL     1      -0.285   0.705   0.502  0.00  0.00    -0.234 N 
ATOM     14  C   UNL     1      -1.445   1.568   0.798  0.00  0.00    +0.158 C 
ATOM     15  C   UNL     1      -2.599   0.820   0.089  0.00  0.00    +0.253 C 
ATOM     16  O   UNL     1      -2.097  -0.530   0.043  0.00  0.00    -0.448 OA
ATOM     17  C   UNL     1      -0.755  -0.474   0.051  0.00  0.00    +0.407 C 
ATOM     18  O   UNL     1      -0.041  -1.389  -0.309  0.00  0.00    -0.226 OA
ENDBRANCH  11  13
ENDBRANCH   1   9
BRANCH   4  19
ATOM     19  C   UNL     1       6.507  -2.175  -0.198  0.00  0.00    +0.078 C 
ATOM     20  C   UNL     1       7.575  -3.223  -0.516  0.00  0.00    +0.024 C 
ATOM     21  C   UNL     1       7.534  -2.568   0.866  0.00  0.00    +0.024 C 
ENDBRANCH   4  19
BRANCH   4  22
ATOM     22  C   UNL     1       4.832  -4.078  -0.076  0.00  0.00    +0.113 C 
BRANCH  22  23
ATOM     23  C   UNL     1       4.463  -4.462  -1.511  0.00  0.00    +0.006 C 
ATOM     24  C   UNL     1       5.607  -4.080  -2.452  0.00  0.00    +0.005 C 
ATOM     25  C   UNL     1       5.238  -4.464  -3.886  0.00  0.00    +0.000 C 
ATOM     26  C   UNL     1       4.995  -5.973  -3.963  0.00  0.00    +0.000 C 
ATOM     27  C   UNL     1       3.851  -6.354  -3.022  0.00  0.00    +0.000 C 
ATOM     28  C   UNL     1       4.220  -5.970  -1.588  0.00  0.00    +0.005 C 
ENDBRANCH  22  23
ENDBRANCH   4  22
TORSDOF 5
