REMARK  Name = ZINC39520660
REMARK  4 active torsions:
REMARK  status: ('A' for Active; 'I' for Inactive)
REMARK    1  A    between atoms: C_4  and  C_7
REMARK    2  A    between atoms: C_7  and  C_8
REMARK    3  A    between atoms: N_14  and  C_15
REMARK    4  A    between atoms: C_15  and  C_16
REMARK                            x       y       z     vdW  Elec       q    Type
REMARK                         _______ _______ _______ _____ _____    ______ ____
ROOT
ATOM      1  C   UNL     1       3.257  -0.932   0.694  0.00  0.00    -0.063 C 
ATOM      2  C   UNL     1       4.152  -1.883  -0.103  0.00  0.00    -0.015 C 
ATOM      3  C   UNL     1       5.032  -2.678   0.866  0.00  0.00    -0.003 C 
ATOM      4  C   UNL     1       5.841  -1.702   1.724  0.00  0.00    -0.012 C 
ATOM      5  C   UNL     1       4.883  -0.757   2.454  0.00  0.00    -0.064 C 
ATOM      6  N   UNL     1       4.089  -0.008   1.472  0.00  0.00    +0.388 N 
ATOM      7  C   UNL     1       3.950  -1.572   3.352  0.00  0.00    -0.012 C 
ATOM      8  C   UNL     1       4.779  -2.353   4.374  0.00  0.00    -0.000 C 
ATOM      9  C   UNL     1       5.586  -1.375   5.231  0.00  0.00    +0.014 C 
ATOM     10  C   UNL     1       6.519  -0.560   4.333  0.00  0.00    +0.051 C 
ATOM     11  C   UNL     1       5.689   0.221   3.311  0.00  0.00    +0.002 C 
ATOM     12  I   UNL     1       7.659   0.822   5.543  0.00  0.00    -0.082 I 
ATOM     13  H   UNL     1       4.708   0.491   0.851  0.00  0.00    -0.080 HD
ENDROOT
BRANCH   1  14
ATOM     14  C   UNL     1       2.375  -0.135  -0.269  0.00  0.00    +0.020 C 
BRANCH  14  18
ATOM     15  C   UNL     1       4.830   1.801  -3.180  0.00  0.00    +0.000 A 
ATOM     16  C   UNL     1       4.420   0.496  -3.379  0.00  0.00    +0.000 A 
ATOM     17  C   UNL     1       3.626  -0.131  -2.437  0.00  0.00    +0.003 A 
ATOM     18  C   UNL     1       3.241   0.548  -1.296  0.00  0.00    -0.049 A 
ATOM     19  C   UNL     1       3.652   1.852  -1.096  0.00  0.00    +0.003 A 
ATOM     20  C   UNL     1       4.445   2.479  -2.039  0.00  0.00    +0.000 A 
ENDBRANCH  14  18
ENDBRANCH   1  14
BRANCH   6  21
ATOM     21  C   UNL     1       3.228   0.953   2.174  0.00  0.00    -0.042 C 
BRANCH  21  22
ATOM     22  C   UNL     1       2.163   0.208   2.938  0.00  0.00    -0.064 A 
ATOM     23  C   UNL     1       1.242  -0.569   2.260  0.00  0.00    +0.002 A 
ATOM     24  C   UNL     1       0.266  -1.252   2.960  0.00  0.00    +0.000 A 
ATOM     25  C   UNL     1       0.210  -1.159   4.338  0.00  0.00    +0.000 A 
ATOM     26  C   UNL     1       1.131  -0.383   5.016  0.00  0.00    +0.000 A 
ATOM     27  C   UNL     1       2.111   0.297   4.316  0.00  0.00    +0.002 A 
ENDBRANCH  21  22
ENDBRANCH   6  21
TORSDOF 4
