REMARK  Name = ZINC66961244
REMARK  8 active torsions:
REMARK  status: ('A' for Active; 'I' for Inactive)
REMARK    1  A    between atoms: C_1  and  O_2
REMARK    2  A    between atoms: O_2  and  C_3
REMARK    3  A    between atoms: C_5  and  C_11
REMARK    4  A    between atoms: C_7  and  O_9
REMARK    5  A    between atoms: O_9  and  C_10
REMARK    6  A    between atoms: C_12  and  C_13
REMARK    7  A    between atoms: C_18  and  C_21
REMARK    8  A    between atoms: C_23  and  C_27
REMARK                            x       y       z     vdW  Elec       q    Type
REMARK                         _______ _______ _______ _____ _____    ______ ____
ROOT
ATOM      1  C   UNL     1       1.986  -6.131  -3.431  0.00  0.00    +0.243 C 
ATOM      2  O   UNL     1       1.490  -6.809  -2.550  0.00  0.00    -0.270 OA
ATOM      3  N   UNL     1       2.585  -6.726  -4.482  0.00  0.00    -0.261 N 
ATOM      4  C   UNL     1       2.638  -8.111  -4.559  0.00  0.00    +0.165 A 
ATOM      5  N   UNL     1       3.180  -8.854  -5.497  0.00  0.00    -0.225 NA
ATOM      6  C   UNL     1       3.148 -10.178  -5.426  0.00  0.00    +0.082 A 
ATOM      7  C   UNL     1       2.526 -10.718  -4.336  0.00  0.00    +0.077 A 
ATOM      8  S   UNL     1       2.027  -9.239  -3.470  0.00  0.00    -0.060 S 
ATOM      9  H   UNL     1       2.981  -6.186  -5.184  0.00  0.00    +0.157 HD
ENDROOT
BRANCH   6  10
ATOM     10  C   UNL     1       3.757 -11.031  -6.479  0.00  0.00    +0.019 A 
ATOM     11  C   UNL     1       4.508 -10.583  -7.582  0.00  0.00    +0.042 A 
ATOM     12  C   UNL     1       4.877 -11.689  -8.296  0.00  0.00    +0.102 A 
ATOM     13  N   UNL     1       4.370 -12.797  -7.655  0.00  0.00    -0.356 N 
ATOM     14  H   UNL     1       4.480 -13.716  -7.945  0.00  0.00    +0.165 HD
ATOM     15  C   UNL     1       3.696 -12.393  -6.551  0.00  0.00    +0.093 A 
BRANCH  12  16
ATOM     16  C   UNL     1       5.672 -11.694  -9.528  0.00  0.00    +0.258 C 
ATOM     17  O   UNL     1       6.066 -10.645 -10.003  0.00  0.00    -0.269 OA
ATOM     18  N   UNL     1       5.967 -12.861 -10.135  0.00  0.00    -0.324 N 
ATOM     19  H   UNL     1       5.653 -13.697  -9.757  0.00  0.00    +0.145 HD
ATOM     20  H   UNL     1       6.493 -12.864 -10.950  0.00  0.00    +0.145 HD
ENDBRANCH  12  16
ENDBRANCH   6  10
BRANCH   1  22
ATOM     21  C   UNL     1       1.331  -4.077  -2.298  0.00  0.00    +0.013 C 
ATOM     22  C   UNL     1       1.931  -4.671  -3.349  0.00  0.00    +0.068 C 
BRANCH  21  25
ATOM     23  C   UNL     1       0.606  -0.607  -1.056  0.00  0.00    +0.124 A 
ATOM     24  C   UNL     1       0.654  -1.989  -1.128  0.00  0.00    +0.053 A 
ATOM     25  C   UNL     1       1.276  -2.608  -2.216  0.00  0.00    -0.018 A 
ATOM     26  C   UNL     1       1.845  -1.827  -3.227  0.00  0.00    +0.053 A 
ATOM     27  C   UNL     1       1.790  -0.446  -3.144  0.00  0.00    +0.124 A 
ATOM     28  C   UNL     1       1.167   0.163  -2.064  0.00  0.00    +0.091 A 
BRANCH  23  30
ATOM     29  C   UNL     1      -0.017   1.425   0.010  0.00  0.00    +0.277 C 
ATOM     30  O   UNL     1       0.002  -0.004   0.002  0.00  0.00    -0.495 OA
ENDBRANCH  23  30
BRANCH  27  31
ATOM     31  O   UNL     1       2.344   0.314  -4.126  0.00  0.00    -0.495 OA
ATOM     32  C   UNL     1       2.252   1.732  -3.977  0.00  0.00    +0.277 C 
ENDBRANCH  27  31
ENDBRANCH  21  25
ENDBRANCH   1  22
TORSDOF 6
