REMARK  Name = ZINC39922915
REMARK  4 active torsions:
REMARK  status: ('A' for Active; 'I' for Inactive)
REMARK    1  A    between atoms: C_7  and  C_10
REMARK    2  A    between atoms: N_11  and  N_12
REMARK    3  A    between atoms: C_13  and  C_15
REMARK    4  A    between atoms: C_18  and  C_21
REMARK                            x       y       z     vdW  Elec       q    Type
REMARK                         _______ _______ _______ _____ _____    ______ ____
ROOT
ATOM      1  N   UNL     1       0.292  -5.440  -0.035  0.00  0.00    -0.205 N 
ATOM      2  C   UNL     1       0.754  -6.706  -0.040  0.00  0.00    +0.263 C 
ATOM      3  O   UNL     1       1.948  -6.915  -0.044  0.00  0.00    -0.271 OA
ATOM      4  H   UNL     1      -0.664  -5.273  -0.032  0.00  0.00    +0.177 HD
ENDROOT
BRANCH   2   5
ATOM      5  C   UNL     1      -0.213  -7.862  -0.041  0.00  0.00    +0.240 C 
ATOM      6  C   UNL     1      -0.707  -8.146  -1.449  0.00  0.00    +0.041 C 
ATOM      7  C   UNL     1      -0.288  -9.404  -1.689  0.00  0.00    +0.093 C 
ATOM      8  N   UNL     1       0.382  -9.895  -0.613  0.00  0.00    -0.153 NA
ATOM      9  N   UNL     1       0.468  -9.110   0.339  0.00  0.00    -0.170 NA
BRANCH   7  10
ATOM     10  C   UNL     1      -0.527 -10.150  -2.949  0.00  0.00    +0.020 A 
ATOM     11  C   UNL     1      -1.331  -9.600  -3.946  0.00  0.00    +0.011 A 
ATOM     12  C   UNL     1      -1.550 -10.297  -5.116  0.00  0.00    +0.001 A 
ATOM     13  C   UNL     1      -0.972 -11.540  -5.302  0.00  0.00    +0.001 A 
ATOM     14  C   UNL     1      -0.173 -12.092  -4.318  0.00  0.00    +0.020 A 
ATOM     15  C   UNL     1       0.057 -11.401  -3.144  0.00  0.00    +0.050 A 
ATOM     16 CL   UNL     1       1.066 -12.091  -1.911  0.00  0.00    -0.083 Cl
ENDBRANCH   7  10
ENDBRANCH   2   5
BRANCH   1  18
ATOM     17  C   UNL     1       0.742  -3.136  -0.029  0.00  0.00    +0.136 C 
ATOM     18  N   UNL     1       1.191  -4.366  -0.034  0.00  0.00    -0.188 NA
BRANCH  17  25
ATOM     19  C   UNL     1       0.103   1.352  -0.013  0.00  0.00    +0.001 A 
ATOM     20  C   UNL     1       1.293   2.087  -0.013  0.00  0.00    +0.002 A 
ATOM     21  C   UNL     1       2.506   1.484  -0.018  0.00  0.00    +0.026 A 
ATOM     22  C   UNL     1       2.589   0.066  -0.023  0.00  0.00    +0.043 A 
ATOM     23  N   UNL     1       3.626  -0.745  -0.029  0.00  0.00    -0.380 N 
ATOM     24  C   UNL     1       3.154  -2.133  -0.032  0.00  0.00    +0.150 C 
ATOM     25  C   UNL     1       1.643  -2.061  -0.028  0.00  0.00    +0.000 C 
ATOM     26  C   UNL     1       1.333  -0.703  -0.022  0.00  0.00    +0.004 A 
ATOM     27  C   UNL     1       0.105  -0.004  -0.017  0.00  0.00    +0.010 A 
ATOM     28  H   UNL     1       4.555  -0.469  -0.031  0.00  0.00    +0.160 HD
ENDBRANCH  17  25
ENDBRANCH   1  18
TORSDOF 4
