REMARK  Name = ZINC06887638
REMARK  4 active torsions:
REMARK  status: ('A' for Active; 'I' for Inactive)
REMARK    1  A    between atoms: C_1  and  C_2
REMARK    2  A    between atoms: C_5  and  N_8
REMARK    3  A    between atoms: N_8  and  S_9
REMARK    4  A    between atoms: S_9  and  C_12
REMARK                            x       y       z     vdW  Elec       q    Type
REMARK                         _______ _______ _______ _____ _____    ______ ____
ROOT
ATOM      1  C   UNL     1       0.439  -4.541   2.679  0.00  0.00    +0.109 A 
ATOM      2  C   UNL     1       0.790  -3.352   3.303  0.00  0.00    +0.031 A 
ATOM      3  C   UNL     1       0.312  -3.051   4.560  0.00  0.00    +0.028 A 
ATOM      4  C   UNL     1      -0.530  -3.946   5.212  0.00  0.00    +0.047 A 
ATOM      5  C   UNL     1      -0.883  -5.149   4.575  0.00  0.00    +0.005 A 
ATOM      6  C   UNL     1      -0.392  -5.431   3.298  0.00  0.00    +0.039 A 
ATOM      7  C   UNL     1      -1.763  -5.854   5.507  0.00  0.00    -0.019 A 
ATOM      8  C   UNL     1      -1.892  -5.081   6.598  0.00  0.00    +0.020 A 
ATOM      9  N   UNL     1      -1.155  -3.937   6.438  0.00  0.00    -0.358 N 
ATOM     10  H   UNL     1      -1.084  -3.225   7.093  0.00  0.00    +0.166 HD
ATOM     11  C   UNL     1      -2.730  -5.418   7.808  0.00  0.00    +0.053 C 
ATOM     12  C   UNL     1      -2.453  -6.861   8.235  0.00  0.00    +0.006 C 
ATOM     13  C   UNL     1      -3.401  -7.806   7.502  0.00  0.00    +0.001 C 
ATOM     14  C   UNL     1      -3.701  -7.282   6.100  0.00  0.00    +0.005 C 
ATOM     15  C   UNL     1      -2.401  -7.202   5.295  0.00  0.00    +0.037 C 
ENDROOT
BRANCH   1  16
ATOM     16  S   UNL     1       1.064  -4.901   1.071  0.00  0.00    +0.072 S 
ATOM     17  O   UNL     1       0.912  -6.301   0.881  0.00  0.00    -0.150 OA
ATOM     18  O   UNL     1       2.323  -4.251   0.970  0.00  0.00    -0.150 OA
BRANCH  16  19
ATOM     19  N   UNL     1       0.060  -4.164  -0.021  0.00  0.00    -0.216 N 
ATOM     20  H   UNL     1       0.408  -3.479  -0.613  0.00  0.00    +0.174 HD
BRANCH  19  25
ATOM     21  C   UNL     1      -5.407  -5.642  -0.296  0.00  0.00    +0.044 C 
ATOM     22  C   UNL     1      -3.954  -5.249  -0.223  0.00  0.00    -0.050 A 
ATOM     23  C   UNL     1      -3.601  -3.912  -0.211  0.00  0.00    +0.005 A 
ATOM     24  C   UNL     1      -2.270  -3.549  -0.144  0.00  0.00    +0.025 A 
ATOM     25  C   UNL     1      -1.286  -4.528  -0.088  0.00  0.00    +0.048 A 
ATOM     26  C   UNL     1      -1.645  -5.870  -0.101  0.00  0.00    +0.025 A 
ATOM     27  C   UNL     1      -2.978  -6.226  -0.162  0.00  0.00    +0.005 A 
ENDBRANCH  19  25
ENDBRANCH  16  19
ENDBRANCH   1  16
TORSDOF 3
