REMARK  Name = ZINC05691583
REMARK  7 active torsions:
REMARK  status: ('A' for Active; 'I' for Inactive)
REMARK    1  A    between atoms: C_1  and  C_2
REMARK    2  A    between atoms: C_2  and  O_3
REMARK    3  A    between atoms: O_3  and  C_4
REMARK    4  A    between atoms: C_12  and  S_14
REMARK    5  A    between atoms: S_14  and  C_15
REMARK    6  A    between atoms: C_15  and  C_17
REMARK    7  A    between atoms: C_15  and  C_18
REMARK                            x       y       z     vdW  Elec       q    Type
REMARK                         _______ _______ _______ _____ _____    ______ ____
ROOT
ATOM      1  S   UNL     1       2.466   4.267  -0.720  0.00  0.00    -0.077 S 
ENDROOT
BRANCH   1  10
ATOM      2  C   UNL     1       1.427  10.468  -0.980  0.00  0.00    +0.123 A 
ATOM      3  C   UNL     1       0.210  10.111  -0.409  0.00  0.00    +0.048 A 
ATOM      4  C   UNL     1      -0.072   8.792  -0.136  0.00  0.00    +0.033 A 
ATOM      5  C   UNL     1       0.870   7.804  -0.432  0.00  0.00    +0.090 A 
ATOM      6  C   UNL     1       2.098   8.167  -1.008  0.00  0.00    +0.070 A 
ATOM      7  C   UNL     1       2.369   9.500  -1.279  0.00  0.00    +0.073 A 
ATOM      8  N   UNL     1       2.808   6.990  -1.177  0.00  0.00    -0.333 N 
ATOM      9  H   UNL     1       3.728   6.902  -1.560  0.00  0.00    +0.168 HD
ATOM     10  C   UNL     1       2.019   5.971  -0.722  0.00  0.00    +0.168 A 
ATOM     11  N   UNL     1       0.882   6.452  -0.282  0.00  0.00    -0.222 NA
BRANCH   2  12
ATOM     12  O   UNL     1       1.693  11.775  -1.245  0.00  0.00    -0.492 OA
BRANCH  12  14
ATOM     13  C   UNL     1       1.154  14.131  -1.280  0.00  0.00    +0.048 C 
ATOM     14  C   UNL     1       0.678  12.724  -0.912  0.00  0.00    +0.225 C 
ENDBRANCH  12  14
ENDBRANCH   2  12
ENDBRANCH   1  10
BRANCH   1  15
ATOM     15  C   UNL     1       0.973   3.551   0.012  0.00  0.00    +0.117 C 
ATOM     16  C   UNL     1       0.825   4.043   1.453  0.00  0.00    +0.027 C 
BRANCH  15  17
ATOM     17  C   UNL     1       1.080   2.048   0.003  0.00  0.00    +0.124 A 
ATOM     18  N   UNL     1       2.319   1.490  -0.012  0.00  0.00    -0.309 N 
ATOM     19  H   UNL     1       3.103   2.061  -0.017  0.00  0.00    +0.170 HD
ATOM     20  C   UNL     1       2.469   0.145  -0.021  0.00  0.00    +0.259 A 
ATOM     21  O   UNL     1       3.572  -0.368  -0.034  0.00  0.00    -0.267 OA
ATOM     22  C   UNL     1       1.246  -0.672  -0.013  0.00  0.00    +0.065 A 
ATOM     23  C   UNL     1       1.291  -2.065  -0.022  0.00  0.00    +0.015 A 
ATOM     24  C   UNL     1       0.114  -2.782  -0.015  0.00  0.00    +0.001 A 
ATOM     25  C   UNL     1      -1.111  -2.128   0.000  0.00  0.00    +0.002 A 
ATOM     26  C   UNL     1      -1.177  -0.753   0.009  0.00  0.00    +0.028 A 
ATOM     27  C   UNL     1       0.002  -0.004   0.002  0.00  0.00    +0.078 A 
ATOM     28  N   UNL     1      -0.016   1.352   0.009  0.00  0.00    -0.233 NA
ENDBRANCH  15  17
ENDBRANCH   1  15
TORSDOF 5
