REMARK  Name = ZINC08829307
REMARK  11 active torsions:
REMARK  status: ('A' for Active; 'I' for Inactive)
REMARK    1  A    between atoms: C_1  and  C_2
REMARK    2  A    between atoms: C_2  and  O_3
REMARK    3  A    between atoms: O_3  and  C_4
REMARK    4  A    between atoms: C_4  and  C_6
REMARK    5  A    between atoms: C_7  and  C_32
REMARK    6  A    between atoms: C_8  and  C_30
REMARK    7  A    between atoms: C_9  and  N_11
REMARK    8  A    between atoms: C_12  and  C_14
REMARK    9  A    between atoms: C_14  and  S_15
REMARK   10  A    between atoms: S_15  and  C_16
REMARK   11  A    between atoms: C_18  and  C_22
REMARK                            x       y       z     vdW  Elec       q    Type
REMARK                         _______ _______ _______ _____ _____    ______ ____
ROOT
ATOM      1  N   UNL     1       3.521  -2.810   5.898  0.00  0.00    -0.278 N 
ATOM      2  C   UNL     1       3.838  -1.637   6.481  0.00  0.00    +0.228 C 
ATOM      3  O   UNL     1       3.509  -0.593   5.960  0.00  0.00    -0.275 OA
ATOM      4  H   UNL     1       3.784  -3.646   6.314  0.00  0.00    +0.155 HD
ENDROOT
BRANCH   1   8
ATOM      5  C   UNL     1       1.495  -2.370   2.465  0.00  0.00    +0.102 A 
ATOM      6  C   UNL     1       1.714  -3.696   2.787  0.00  0.00    -0.010 A 
ATOM      7  C   UNL     1       2.410  -3.929   3.963  0.00  0.00    +0.084 A 
ATOM      8  C   UNL     1       2.822  -2.822   4.705  0.00  0.00    +0.090 A 
ATOM      9  S   UNL     1       2.277  -1.508   3.813  0.00  0.00    -0.065 S 
ATOM     10  C   UNL     1       1.225  -4.821   1.912  0.00  0.00    +0.046 C 
BRANCH   5  11
ATOM     11  C   UNL     1       0.801  -1.815   1.305  0.00  0.00    +0.346 C 
ATOM     12  O   UNL     1       0.321  -2.558   0.470  0.00  0.00    -0.244 OA
BRANCH  11  13
ATOM     13  O   UNL     1       0.693  -0.477   1.160  0.00  0.00    -0.461 OA
BRANCH  13  15
ATOM     14  C   UNL     1      -0.019   1.526   0.010  0.00  0.00    +0.048 C 
ATOM     15  C   UNL     1       0.002  -0.004   0.002  0.00  0.00    +0.229 C 
ENDBRANCH  13  15
ENDBRANCH  11  13
ENDBRANCH   5  11
BRANCH   7  16
ATOM     16  C   UNL     1       2.697  -5.262   4.401  0.00  0.00    +0.102 C 
ATOM     17  N   UNL     1       2.924  -6.319   4.748  0.00  0.00    -0.191 NA
ENDBRANCH   7  16
ENDBRANCH   1   8
BRANCH   2  18
ATOM     18  C   UNL     1       4.600  -1.624   7.781  0.00  0.00    +0.173 C 
BRANCH  18  19
ATOM     19  S   UNL     1       4.870   0.091   8.306  0.00  0.00    -0.077 S 
BRANCH  19  20
ATOM     20  C   UNL     1       5.761  -0.061   9.819  0.00  0.00    +0.185 A 
ATOM     21  N   UNL     1       6.123  -1.188  10.392  0.00  0.00    -0.201 NA
ATOM     22  C   UNL     1       6.784  -0.924  11.528  0.00  0.00    +0.184 A 
ATOM     23  N   UNL     1       6.849   0.379  11.689  0.00  0.00    -0.152 NA
ATOM     24  H   UNL     1       6.081   1.907  10.418  0.00  0.00    +0.191 HD
ATOM     25  N   UNL     1       6.197   0.960  10.590  0.00  0.00    -0.253 N 
BRANCH  22  26
ATOM     26  C   UNL     1       7.349  -1.937  12.454  0.00  0.00    +0.039 A 
ATOM     27  C   UNL     1       7.218  -3.294  12.168  0.00  0.00    +0.014 A 
ATOM     28  C   UNL     1       7.745  -4.233  13.032  0.00  0.00    +0.021 A 
ATOM     29  C   UNL     1       8.403  -3.828  14.181  0.00  0.00    +0.042 A 
ATOM     30  C   UNL     1       8.536  -2.481  14.470  0.00  0.00    +0.040 A 
ATOM     31  C   UNL     1       8.017  -1.533  13.609  0.00  0.00    +0.053 A 
ATOM     32 CL   UNL     1       8.191   0.156  13.968  0.00  0.00    -0.083 Cl
ATOM     33 CL   UNL     1       9.064  -5.014  15.262  0.00  0.00    -0.083 Cl
ENDBRANCH  22  26
ENDBRANCH  19  20
ENDBRANCH  18  19
ENDBRANCH   2  18
TORSDOF 9
