REMARK  Name = ZINC16733293
REMARK  3 active torsions:
REMARK  status: ('A' for Active; 'I' for Inactive)
REMARK    1  A    between atoms: C_1  and  C_2
REMARK    2  A    between atoms: C_2  and  N_3
REMARK    3  A    between atoms: N_14  and  C_18
REMARK                            x       y       z     vdW  Elec       q    Type
REMARK                         _______ _______ _______ _____ _____    ______ ____
ROOT
ATOM      1  N   UNL     1      -6.174  -3.753   0.805  0.00  0.00    -0.267 N 
ATOM      2  C   UNL     1      -5.355  -3.968   1.908  0.00  0.00    +0.045 A 
ATOM      3  C   UNL     1      -5.540  -4.716   3.065  0.00  0.00    +0.025 A 
ATOM      4  C   UNL     1      -4.550  -4.765   4.025  0.00  0.00    +0.017 A 
ATOM      5  C   UNL     1      -3.362  -4.072   3.851  0.00  0.00    +0.019 A 
ATOM      6  C   UNL     1      -3.159  -3.323   2.708  0.00  0.00    +0.025 A 
ATOM      7  C   UNL     1      -4.149  -3.273   1.731  0.00  0.00    +0.011 A 
ATOM      8  C   UNL     1      -4.252  -2.581   0.430  0.00  0.00    +0.065 C 
ATOM      9  C   UNL     1      -3.307  -1.770  -0.169  0.00  0.00    +0.089 C 
ATOM     10  C   UNL     1      -2.024  -1.247   0.375  0.00  0.00    +0.259 C 
ATOM     11  O   UNL     1      -1.652  -1.506   1.502  0.00  0.00    -0.269 OA
ATOM     12  N   UNL     1      -1.314  -0.480  -0.435  0.00  0.00    -0.251 N 
ATOM     13  C   UNL     1      -1.729  -0.200  -1.687  0.00  0.00    +0.121 C 
ATOM     14  S   UNL     1      -0.951   0.759  -2.873  0.00  0.00    -0.027 S 
ATOM     15  S   UNL     1      -3.284  -1.067  -1.812  0.00  0.00    -0.060 S 
ATOM     16  C   UNL     1      -5.583  -2.949  -0.095  0.00  0.00    +0.253 C 
ATOM     17  O   UNL     1      -6.060  -2.587  -1.155  0.00  0.00    -0.270 OA
ATOM     18 BR   UNL     1      -2.018  -4.152   5.179  0.00  0.00    -0.050 Br
ENDROOT
BRANCH  12  19
ATOM     19  C   UNL     1      -0.043   0.074   0.037  0.00  0.00    +0.105 C 
ATOM     20  C   UNL     1       1.100  -0.393  -0.881  0.00  0.00    +0.047 C 
ATOM     21  C   UNL     1       2.378   0.430  -0.592  0.00  0.00    +0.168 C 
ATOM     22  S   UNL     1       1.701   2.029   0.015  0.00  0.00    -0.029 S 
ATOM     23  O   UNL     1       1.963   3.038  -0.950  0.00  0.00    -0.174 OA
ATOM     24  O   UNL     1       2.113   2.224   1.361  0.00  0.00    -0.174 OA
ATOM     25  C   UNL     1      -0.097   1.628  -0.009  0.00  0.00    +0.188 C 
ENDBRANCH  12  19
BRANCH   1  27
ATOM     26  C   UNL     1      -7.399  -5.684  -0.064  0.00  0.00    +0.025 C 
ATOM     27  C   UNL     1      -7.510  -4.332   0.644  0.00  0.00    +0.110 C 
ENDBRANCH   1  27
TORSDOF 2
