REMARK  Name = ZINC13000003
REMARK  9 active torsions:
REMARK  status: ('A' for Active; 'I' for Inactive)
REMARK    1  A    between atoms: C_1  and  C_2
REMARK    2  A    between atoms: C_5  and  N_8
REMARK    3  A    between atoms: C_9  and  C_11
REMARK    4  A    between atoms: C_11  and  N_12
REMARK    5  A    between atoms: C_18  and  C_20
REMARK    6  A    between atoms: C_20  and  N_21
REMARK    7  A    between atoms: N_21  and  C_22
REMARK    8  A    between atoms: C_22  and  C_24
REMARK    9  A    between atoms: C_22  and  C_30
REMARK                            x       y       z     vdW  Elec       q    Type
REMARK                         _______ _______ _______ _____ _____    ______ ____
ROOT
ATOM      1  N   UNL     1       0.420  -6.846   2.499  0.00  0.00    -0.291 NA
ATOM      2  C   UNL     1       1.665  -6.384   3.127  0.00  0.00    +0.104 C 
ATOM      3  C   UNL     1       1.659  -6.768   4.610  0.00  0.00    +0.123 C 
ATOM      4  N   UNL     1       1.407  -8.213   4.718  0.00  0.00    -0.301 N 
ATOM      5  C   UNL     1       0.252  -8.774   4.001  0.00  0.00    +0.123 C 
ATOM      6  C   UNL     1       0.314  -8.311   2.541  0.00  0.00    +0.104 C 
ATOM      7  C   UNL     1       2.214  -9.003   5.454  0.00  0.00    +0.199 C 
ATOM      8  O   UNL     1       3.162  -8.524   6.039  0.00  0.00    -0.278 OA
ENDROOT
BRANCH   1   9
ATOM      9  C   UNL     1       0.309  -6.349   1.121  0.00  0.00    +0.180 C 
BRANCH   9  11
ATOM     10  N   UNL     1       0.059  -4.170  -0.021  0.00  0.00    -0.284 N 
ATOM     11  C   UNL     1       0.175  -4.848   1.138  0.00  0.00    +0.231 C 
ATOM     12  O   UNL     1       0.173  -4.251   2.193  0.00  0.00    -0.274 OA
ATOM     13  H   UNL     1      -0.007  -4.651  -0.861  0.00  0.00    +0.155 HD
BRANCH  10  18
ATOM     14  C   UNL     1      -0.047   1.502   0.014  0.00  0.00    +0.044 C 
ATOM     15  C   UNL     1      -0.019  -0.004   0.005  0.00  0.00    -0.050 A 
ATOM     16  C   UNL     1      -0.605  -0.712   1.038  0.00  0.00    +0.005 A 
ATOM     17  C   UNL     1      -0.581  -2.093   1.033  0.00  0.00    +0.023 A 
ATOM     18  C   UNL     1       0.032  -2.771  -0.013  0.00  0.00    +0.033 A 
ATOM     19  C   UNL     1       0.620  -2.058  -1.049  0.00  0.00    +0.023 A 
ATOM     20  C   UNL     1       0.588  -0.677  -1.040  0.00  0.00    +0.005 A 
ENDBRANCH  10  18
ENDBRANCH   9  11
ENDBRANCH   1   9
BRANCH   7  21
ATOM     21  C   UNL     1       1.937 -10.481   5.551  0.00  0.00    +0.016 C 
BRANCH  21  22
ATOM     22  N   UNL     1       2.951 -11.114   6.405  0.00  0.00    +0.392 N 
ATOM     23  H   UNL     1       3.866 -10.969   6.005  0.00  0.00    -0.084 HD
ATOM     24  H   UNL     1       2.918 -10.705   7.326  0.00  0.00    -0.084 HD
BRANCH  22  25
ATOM     25  C   UNL     1       2.682 -12.555   6.499  0.00  0.00    -0.003 C 
BRANCH  25  26
ATOM     26  C   UNL     1       3.789 -13.224   7.272  0.00  0.00    -0.057 A 
ATOM     27  C   UNL     1       4.321 -12.608   8.389  0.00  0.00    +0.002 A 
ATOM     28  C   UNL     1       5.337 -13.221   9.099  0.00  0.00    +0.000 A 
ATOM     29  C   UNL     1       5.819 -14.451   8.692  0.00  0.00    +0.000 A 
ATOM     30  C   UNL     1       5.286 -15.068   7.576  0.00  0.00    +0.000 A 
ATOM     31  C   UNL     1       4.268 -14.456   6.869  0.00  0.00    +0.002 A 
ENDBRANCH  25  26
BRANCH  25  32
ATOM     32  C   UNL     1       1.370 -12.776   7.207  0.00  0.00    -0.020 A 
ATOM     33  C   UNL     1       0.396 -13.680   6.939  0.00  0.00    +0.010 A 
ATOM     34  C   UNL     1      -0.736 -13.702   7.731  0.00  0.00    +0.008 A 
ATOM     35  C   UNL     1      -0.839 -12.818   8.754  0.00  0.00    +0.045 A 
ATOM     36  S   UNL     1       0.698 -11.919   8.622  0.00  0.00    -0.103 S 
ENDBRANCH  25  32
ENDBRANCH  22  25
ENDBRANCH  21  22
ENDBRANCH   7  21
TORSDOF 8
