REMARK  Name = ZINC39834397
REMARK  3 active torsions:
REMARK  status: ('A' for Active; 'I' for Inactive)
REMARK    1  A    between atoms: C_6  and  S_10
REMARK    2  A    between atoms: S_10  and  C_11
REMARK    3  A    between atoms: C_17  and  N_21
REMARK                            x       y       z     vdW  Elec       q    Type
REMARK                         _______ _______ _______ _____ _____    ______ ____
ROOT
ATOM      1  C   UNL     1      -5.516  -3.129   0.015  0.00  0.00    +0.200 C 
ATOM      2  N   UNL     1      -5.793  -2.258   1.165  0.00  0.00    -0.322 N 
ATOM      3  C   UNL     1      -6.201  -0.952   0.900  0.00  0.00    +0.042 A 
ATOM      4  C   UNL     1      -6.510   0.021   1.867  0.00  0.00    +0.026 A 
ATOM      5  C   UNL     1      -6.906   1.287   1.503  0.00  0.00    +0.034 A 
ATOM      6  C   UNL     1      -7.015   1.646   0.173  0.00  0.00    +0.127 A 
ATOM      7  C   UNL     1      -6.716   0.709  -0.802  0.00  0.00    +0.049 A 
ATOM      8  C   UNL     1      -6.320  -0.558  -0.436  0.00  0.00    +0.033 A 
ATOM      9  S   UNL     1      -5.867  -1.993  -1.386  0.00  0.00    -0.090 S 
ATOM     10  H   UNL     1      -5.696  -2.580   2.074  0.00  0.00    +0.148 HD
ENDROOT
BRANCH   6  11
ATOM     11  N   UNL     1      -7.443   3.012  -0.204  0.00  0.00    +0.056 N 
ATOM     12  O   UNL     1      -7.701   3.823   0.654  0.00  0.00    -0.126 OA
ATOM     13  O   UNL     1      -7.534   3.316  -1.371  0.00  0.00    -0.126 OA
ENDBRANCH   6  11
BRANCH   1  14
ATOM     14  S   UNL     1      -3.782  -3.663   0.003  0.00  0.00    -0.054 S 
BRANCH  14  20
ATOM     15  C   UNL     1      -0.017   1.375   0.010  0.00  0.00    +0.002 A 
ATOM     16  C   UNL     1      -1.222   2.062   0.019  0.00  0.00    +0.002 A 
ATOM     17  C   UNL     1      -2.416   1.377   0.021  0.00  0.00    +0.030 A 
ATOM     18  C   UNL     1      -2.414  -0.021   0.014  0.00  0.00    +0.090 A 
ATOM     19  N   UNL     1      -3.401  -0.955   0.014  0.00  0.00    -0.222 NA
ATOM     20  C   UNL     1      -2.872  -2.154   0.005  0.00  0.00    +0.170 A 
ATOM     21  N   UNL     1      -1.509  -2.059  -0.001  0.00  0.00    -0.333 N 
ATOM     22  C   UNL     1      -1.191  -0.711   0.004  0.00  0.00    +0.067 A 
ATOM     23  C   UNL     1       0.002  -0.004   0.002  0.00  0.00    +0.028 A 
ATOM     24  H   UNL     1      -0.880  -2.798  -0.009  0.00  0.00    +0.168 HD
ENDBRANCH  14  20
ENDBRANCH   1  14
TORSDOF 3
