REMARK  Name = ZINC36646187
REMARK  6 active torsions:
REMARK  status: ('A' for Active; 'I' for Inactive)
REMARK    1  A    between atoms: C_1  and  C_2
REMARK    2  A    between atoms: N_13  and  N_27
REMARK    3  A    between atoms: C_14  and  S_16
REMARK    4  A    between atoms: S_16  and  C_17
REMARK    5  A    between atoms: C_17  and  C_18
REMARK    6  A    between atoms: C_18  and  C_20
REMARK                            x       y       z     vdW  Elec       q    Type
REMARK                         _______ _______ _______ _____ _____    ______ ____
ROOT
ATOM      1  C   UNL     1      -0.019   1.526   0.010  0.00  0.00    +0.008 C 
ATOM      2  C   UNL     1       0.002  -0.004   0.002  0.00  0.00    -0.009 C 
ATOM      3  C   UNL     1      -1.433  -0.538   0.021  0.00  0.00    +0.008 C 
ATOM      4  C   UNL     1      -1.430  -2.045  -0.236  0.00  0.00    +0.037 C 
ATOM      5  C   UNL     1      -0.471  -2.712   0.746  0.00  0.00    -0.023 A 
ATOM      6  C   UNL     1       0.475  -1.986   1.383  0.00  0.00    -0.004 A 
ATOM      7  S   UNL     1       1.343  -3.147   2.407  0.00  0.00    -0.073 S 
ATOM      8  C   UNL     1       0.438  -4.601   1.981  0.00  0.00    +0.117 A 
ATOM      9  C   UNL     1      -0.517  -4.133   1.050  0.00  0.00    +0.077 A 
ATOM     10  C   UNL     1      -1.426  -5.096   0.503  0.00  0.00    +0.280 A 
ATOM     11  O   UNL     1      -2.284  -4.789  -0.307  0.00  0.00    -0.265 OA
ATOM     12  N   UNL     1      -1.274  -6.368   0.941  0.00  0.00    -0.209 N 
ATOM     13  C   UNL     1      -0.322  -6.731   1.845  0.00  0.00    +0.190 A 
ATOM     14  N   UNL     1       0.535  -5.866   2.370  0.00  0.00    -0.215 NA
ATOM     15  C   UNL     1       0.737  -0.516   1.249  0.00  0.00    +0.046 C 
ENDROOT
BRANCH  12  16
ATOM     16  N   UNL     1      -2.113  -7.330   0.455  0.00  0.00    -0.293 N 
ATOM     17  H   UNL     1      -1.900  -8.231   0.856  0.00  0.00    +0.163 HD
ATOM     18  H   UNL     1      -3.078  -7.082   0.615  0.00  0.00    +0.163 HD
ENDBRANCH  12  16
BRANCH  13  19
ATOM     19  S   UNL     1      -0.225  -8.421   2.336  0.00  0.00    -0.078 S 
BRANCH  19  20
ATOM     20  C   UNL     1       1.147  -8.455   3.522  0.00  0.00    +0.157 C 
BRANCH  20  21
ATOM     21  C   UNL     1       1.340  -9.862   4.027  0.00  0.00    +0.175 C 
ATOM     22  O   UNL     1       0.622 -10.753   3.627  0.00  0.00    -0.291 OA
BRANCH  21  23
ATOM     23  C   UNL     1       2.399 -10.153   5.005  0.00  0.00    +0.037 A 
ATOM     24  C   UNL     1       3.226  -9.127   5.473  0.00  0.00    +0.013 A 
ATOM     25  C   UNL     1       4.216  -9.408   6.390  0.00  0.00    +0.001 A 
ATOM     26  C   UNL     1       4.394 -10.703   6.848  0.00  0.00    +0.001 A 
ATOM     27  C   UNL     1       3.582 -11.724   6.391  0.00  0.00    +0.021 A 
ATOM     28  C   UNL     1       2.581 -11.459   5.477  0.00  0.00    +0.051 A 
ATOM     29 CL   UNL     1       1.557 -12.741   4.910  0.00  0.00    -0.083 Cl
ENDBRANCH  21  23
ENDBRANCH  20  21
ENDBRANCH  19  20
ENDBRANCH  13  19
TORSDOF 5
