REMARK  Name = ZINC14976467
REMARK  7 active torsions:
REMARK  status: ('A' for Active; 'I' for Inactive)
REMARK    1  A    between atoms: C_1  and  C_2
REMARK    2  A    between atoms: C_4  and  C_29
REMARK    3  A    between atoms: C_8  and  C_28
REMARK    4  A    between atoms: C_9  and  C_12
REMARK    5  A    between atoms: C_18  and  N_61
REMARK    6  A    between atoms: C_23  and  C_26
REMARK    7  A    between atoms: C_26  and  O_27
REMARK                            x       y       z     vdW  Elec       q    Type
REMARK                         _______ _______ _______ _____ _____    ______ ____
ROOT
ATOM      1  C   UNL     1      -4.836   2.462   0.062  0.00  0.00    +0.263 C 
ATOM      2  O   UNL     1      -5.453   1.417  -0.028  0.00  0.00    -0.268 OA
ATOM      3  N   UNL     1      -5.501   3.629   0.176  0.00  0.00    -0.298 N 
ATOM      4  C   UNL     1      -4.776   4.907   0.178  0.00  0.00    +0.108 C 
ATOM      5  C   UNL     1      -5.179   5.701   1.424  0.00  0.00    +0.017 C 
ATOM      6  C   UNL     1      -6.703   5.843   1.463  0.00  0.00    -0.012 C 
ATOM      7  C   UNL     1      -7.344   4.456   1.546  0.00  0.00    -0.051 C 
ATOM      8  C   UNL     1      -6.966   3.647   0.296  0.00  0.00    +0.093 C 
ENDROOT
BRANCH   1  17
ATOM      9  C   UNL     1       2.469   2.857  -1.320  0.00  0.00    +0.044 C 
ATOM     10  C   UNL     1       1.158   2.631  -0.613  0.00  0.00    -0.050 A 
ATOM     11  C   UNL     1       1.153   2.185   0.703  0.00  0.00    +0.008 A 
ATOM     12  C   UNL     1      -0.033   1.972   1.367  0.00  0.00    -0.026 A 
ATOM     13  C   UNL     1      -1.242   2.204   0.718  0.00  0.00    +0.050 A 
ATOM     14  C   UNL     1      -1.235   2.662  -0.614  0.00  0.00    +0.004 A 
ATOM     15  C   UNL     1      -0.014   2.867  -1.271  0.00  0.00    +0.013 A 
ATOM     16  C   UNL     1      -2.587   2.804  -1.010  0.00  0.00    -0.013 A 
ATOM     17  C   UNL     1      -3.366   2.453   0.047  0.00  0.00    +0.106 A 
ATOM     18  N   UNL     1      -2.556   2.086   1.104  0.00  0.00    -0.350 N 
ATOM     19  H   UNL     1      -2.864   1.793   1.976  0.00  0.00    +0.166 HD
ATOM     20  C   UNL     1      -3.075   3.265  -2.359  0.00  0.00    +0.047 C 
ATOM     21  C   UNL     1      -0.023   1.487   2.794  0.00  0.00    +0.046 C 
ENDBRANCH   1  17
BRANCH   7  27
ATOM     22  C   UNL     1      -9.198   5.452   2.742  0.00  0.00    -0.078 C 
ATOM     23  C   UNL     1     -10.709   5.691   2.697  0.00  0.00    -0.013 C 
ATOM     24  C   UNL     1     -11.437   4.346   2.777  0.00  0.00    +0.011 C 
ATOM     25  C   UNL     1     -10.973   3.454   1.622  0.00  0.00    -0.013 C 
ATOM     26  C   UNL     1      -9.454   3.280   1.698  0.00  0.00    -0.078 C 
ATOM     27  N   UNL     1      -8.813   4.607   1.591  0.00  0.00    +0.383 N 
ATOM     28  H   UNL     1      -9.127   5.061   0.725  0.00  0.00    -0.081 HD
BRANCH  24  29
ATOM     29  C   UNL     1     -12.946   4.574   2.672  0.00  0.00    +0.159 C 
BRANCH  29  30
ATOM     30  O   UNL     1     -13.397   5.308   3.812  0.00  0.00    -0.395 OA
ATOM     31  H   UNL     1     -14.347   5.490   3.813  0.00  0.00    +0.209 HD
ENDBRANCH  29  30
ENDBRANCH  24  29
ENDBRANCH   7  27
TORSDOF 4
