REMARK  Name = ZINC13498755
REMARK  14 active torsions:
REMARK  status: ('A' for Active; 'I' for Inactive)
REMARK    1  A    between atoms: C_1  and  C_2
REMARK    2  A    between atoms: C_2  and  C_3
REMARK    3  A    between atoms: C_2  and  C_4
REMARK    4  A    between atoms: C_4  and  C_6
REMARK    5  A    between atoms: C_4  and  N_67
REMARK    6  A    between atoms: N_10  and  C_11
REMARK    7  A    between atoms: C_16  and  C_17
REMARK    8  A    between atoms: C_16  and  N_67
REMARK    9  A    between atoms: C_17  and  C_18
REMARK   10  A    between atoms: C_18  and  O_19
REMARK   11  A    between atoms: C_20  and  C_21
REMARK   12  A    between atoms: C_20  and  N_67
REMARK   13  A    between atoms: C_26  and  O_33
REMARK   14  A    between atoms: O_33  and  C_34
REMARK                            x       y       z     vdW  Elec       q    Type
REMARK                         _______ _______ _______ _____ _____    ______ ____
ROOT
ATOM      1  N   UNL     1       2.482   1.300   9.384  0.00  0.00    +0.389 N 
ATOM      2  H   UNL     1       3.100   1.796   8.731  0.00  0.00    -0.080 HD
ENDROOT
BRANCH   1   3
ATOM      3  C   UNL     1       3.306   0.659  10.431  0.00  0.00    +0.006 C 
BRANCH   3   4
ATOM      4  C   UNL     1       2.589  -0.535  11.007  0.00  0.00    +0.139 A 
ATOM      5  N   UNL     1       2.088  -1.544  10.338  0.00  0.00    -0.115 NA
ATOM      6  N   UNL     1       1.558  -2.359  11.184  0.00  0.00    -0.023 NA
ATOM      7  N   UNL     1       1.709  -1.896  12.375  0.00  0.00    -0.044 NA
ATOM      8  N   UNL     1       2.345  -0.775  12.308  0.00  0.00    -0.228 N 
BRANCH   8   9
ATOM      9  C   UNL     1       2.726   0.078  13.437  0.00  0.00    +0.111 C 
ATOM     10  C   UNL     1       3.611  -0.714  14.422  0.00  0.00    +0.027 C 
ATOM     11  C   UNL     1       3.169  -0.208  15.819  0.00  0.00    +0.002 C 
ATOM     12  C   UNL     1       1.639  -0.036  15.652  0.00  0.00    +0.002 C 
ATOM     13  C   UNL     1       1.473   0.509  14.219  0.00  0.00    +0.027 C 
ENDBRANCH   8   9
ENDBRANCH   3   4
BRANCH   3  15
ATOM     14  C   UNL     1       4.342  -0.767   8.660  0.00  0.00    +0.006 C 
ATOM     15  C   UNL     1       4.627   0.208   9.804  0.00  0.00    -0.024 C 
ATOM     16  C   UNL     1       5.376   1.426   9.261  0.00  0.00    +0.006 C 
ENDBRANCH   3  15
ENDBRANCH   1   3
BRANCH   1  17
ATOM     17  C   UNL     1       1.552   2.271   9.997  0.00  0.00    -0.075 C 
BRANCH  17  18
ATOM     18  C   UNL     1       2.364   3.419  10.601  0.00  0.00    +0.009 C 
BRANCH  18  19
ATOM     19  C   UNL     1       1.413   4.509  11.101  0.00  0.00    +0.154 C 
BRANCH  19  20
ATOM     20  O   UNL     1       2.171   5.581  11.664  0.00  0.00    -0.395 OA
ATOM     21  H   UNL     1       1.631   6.309  12.002  0.00  0.00    +0.209 HD
ENDBRANCH  19  20
ENDBRANCH  18  19
ENDBRANCH  17  18
ENDBRANCH   1  17
BRANCH   1  22
ATOM     22  C   UNL     1       1.722   0.273   8.641  0.00  0.00    -0.037 C 
BRANCH  22  23
ATOM     23  C   UNL     1       1.285   0.857   7.322  0.00  0.00    +0.001 A 
ATOM     24  C   UNL     1       2.045   0.666   6.213  0.00  0.00    +0.017 A 
ATOM     25  C   UNL     1       1.594   1.246   4.949  0.00  0.00    -0.001 A 
ATOM     26  C   UNL     1       2.337   1.083   3.773  0.00  0.00    +0.013 A 
ATOM     27  C   UNL     1       1.889   1.630   2.607  0.00  0.00    +0.046 A 
ATOM     28  C   UNL     1       0.702   2.361   2.578  0.00  0.00    +0.122 A 
ATOM     29  C   UNL     1      -0.046   2.534   3.729  0.00  0.00    +0.072 A 
ATOM     30  C   UNL     1       0.391   1.979   4.925  0.00  0.00    +0.053 A 
ATOM     31  N   UNL     1      -0.334   2.137   6.087  0.00  0.00    -0.322 N 
ATOM     32  H   UNL     1      -1.162   2.642   6.069  0.00  0.00    +0.169 HD
ATOM     33  C   UNL     1       0.089   1.599   7.244  0.00  0.00    +0.251 A 
ATOM     34  O   UNL     1      -0.578   1.758   8.252  0.00  0.00    -0.268 OA
BRANCH  28  35
ATOM     35  O   UNL     1       0.274   2.904   1.409  0.00  0.00    -0.495 OA
ATOM     36  C   UNL     1       1.091   2.689   0.257  0.00  0.00    +0.277 C 
ENDBRANCH  28  35
ENDBRANCH  22  23
ENDBRANCH   1  22
TORSDOF 11
