REMARK  Name = ZINC16011431
REMARK  3 active torsions:
REMARK  status: ('A' for Active; 'I' for Inactive)
REMARK    1  A    between atoms: C_3  and  C_7
REMARK    2  A    between atoms: C_7  and  C_9
REMARK    3  A    between atoms: C_11  and  C_30
REMARK                            x       y       z     vdW  Elec       q    Type
REMARK                         _______ _______ _______ _____ _____    ______ ____
ROOT
ATOM      1  C   UNL     1      -1.299   3.637   0.028  0.00  0.00    +0.103 C 
ATOM      2  C   UNL     1      -1.397   4.163   1.476  0.00  0.00    +0.050 C 
ATOM      3  C   UNL     1      -2.433   5.302   1.392  0.00  0.00    +0.077 C 
ATOM      4  C   UNL     1      -3.130   5.457   2.759  0.00  0.00    +0.090 C 
ATOM      5  S   UNL     1      -4.851   4.923   2.370  0.00  0.00    -0.144 S 
ATOM      6  C   UNL     1      -4.476   4.077   0.771  0.00  0.00    +0.155 C 
ATOM      7  N   UNL     1      -3.343   4.925   0.296  0.00  0.00    -0.271 NA
ATOM      8  C   UNL     1      -2.549   4.168  -0.682  0.00  0.00    +0.137 C 
ATOM      9  C   UNL     1      -2.174   5.028  -1.860  0.00  0.00    +0.005 A 
ATOM     10  C   UNL     1      -1.454   6.194  -1.985  0.00  0.00    +0.027 A 
ATOM     11  C   UNL     1      -1.272   6.765  -3.233  0.00  0.00    +0.041 A 
ATOM     12  C   UNL     1      -1.817   6.159  -4.352  0.00  0.00    +0.022 A 
ATOM     13  C   UNL     1      -2.540   4.991  -4.230  0.00  0.00    +0.025 A 
ATOM     14  C   UNL     1      -2.727   4.411  -2.977  0.00  0.00    +0.039 A 
ATOM     15  N   UNL     1      -3.408   3.251  -2.601  0.00  0.00    -0.283 N 
ATOM     16  C   UNL     1      -3.352   3.037  -1.273  0.00  0.00    +0.243 C 
ATOM     17  O   UNL     1      -3.851   2.112  -0.668  0.00  0.00    -0.273 OA
ATOM     18 CL   UNL     1      -0.364   8.235  -3.395  0.00  0.00    -0.084 Cl
ATOM     19  H   UNL     1      -3.908   2.635  -3.362  0.00  0.00    +0.155 HD
ENDROOT
BRANCH   2  20
ATOM     20  C   UNL     1      -0.064   4.696   1.935  0.00  0.00    -0.042 A 
ATOM     21  C   UNL     1       0.537   5.736   1.253  0.00  0.00    +0.005 A 
ATOM     22  C   UNL     1       1.757   6.229   1.677  0.00  0.00    +0.020 A 
ATOM     23  C   UNL     1       2.381   5.672   2.779  0.00  0.00    +0.041 A 
ATOM     24  C   UNL     1       1.782   4.626   3.458  0.00  0.00    +0.020 A 
ATOM     25  C   UNL     1       0.559   4.139   3.036  0.00  0.00    +0.005 A 
ATOM     26 CL   UNL     1       3.917   6.285   3.309  0.00  0.00    -0.084 Cl
ENDBRANCH   2  20
BRANCH   1  27
ATOM     27  C   UNL     1      -1.294   2.130   0.020  0.00  0.00    +0.171 C 
ATOM     28  O   UNL     1      -1.786   1.517   0.943  0.00  0.00    -0.292 OA
BRANCH  27  31
ATOM     29  C   UNL     1      -0.107  -0.635  -2.216  0.00  0.00    +0.020 A 
ATOM     30  C   UNL     1      -0.680  -0.000  -1.129  0.00  0.00    +0.014 A 
ATOM     31  C   UNL     1      -0.692   1.402  -1.109  0.00  0.00    +0.036 A 
ATOM     32  C   UNL     1      -0.126   2.097  -2.183  0.00  0.00    +0.122 A 
ATOM     33  N   UNL     1       0.408   1.445  -3.194  0.00  0.00    -0.263 NA
ATOM     34  C   UNL     1       0.432   0.126  -3.239  0.00  0.00    +0.111 A 
ENDBRANCH  27  31
ENDBRANCH   1  27
TORSDOF 3
