REMARK  Name = ZINC48290880
REMARK  5 active torsions:
REMARK  status: ('A' for Active; 'I' for Inactive)
REMARK    1  A    between atoms: C_1  and  C_2
REMARK    2  A    between atoms: C_3  and  C_12
REMARK    3  A    between atoms: C_12  and  C_14
REMARK    4  A    between atoms: C_14  and  C_26
REMARK    5  A    between atoms: C_15  and  C_16
REMARK                            x       y       z     vdW  Elec       q    Type
REMARK                         _______ _______ _______ _____ _____    ______ ____
ROOT
ATOM      1  C   UNL     1       0.404   1.107  -2.806  0.00  0.00    +0.100 C 
ATOM      2  C   UNL     1      -0.583   1.810  -3.462  0.00  0.00    +0.030 C 
ENDROOT
BRANCH   2   3
ATOM      3  C   UNL     1      -1.758   1.109  -3.983  0.00  0.00    -0.019 A 
ATOM      4  C   UNL     1      -2.303   0.026  -3.277  0.00  0.00    +0.057 A 
ATOM      5  C   UNL     1      -3.410  -0.631  -3.772  0.00  0.00    +0.168 A 
ATOM      6  C   UNL     1      -3.988  -0.218  -4.975  0.00  0.00    +0.184 A 
ATOM      7  C   UNL     1      -3.449   0.855  -5.676  0.00  0.00    +0.087 A 
ATOM      8  C   UNL     1      -2.347   1.520  -5.188  0.00  0.00    +0.032 A 
ATOM      9 CL   UNL     1      -4.172   1.361  -7.171  0.00  0.00    -0.080 Cl
ATOM     10  O   UNL     1      -5.057  -1.022  -5.241  0.00  0.00    -0.451 OA
ATOM     11  C   UNL     1      -4.883  -2.183  -4.408  0.00  0.00    +0.466 C 
ATOM     12  O   UNL     1      -4.120  -1.692  -3.290  0.00  0.00    -0.453 OA
ENDBRANCH   2   3
BRANCH   1  13
ATOM     13  C   UNL     1       0.358  -0.363  -2.766  0.00  0.00    +0.206 C 
ATOM     14  O   UNL     1       0.530  -1.006  -3.786  0.00  0.00    -0.286 OA
BRANCH  13  17
ATOM     15  C   UNL     1       0.407  -3.445  -2.333  0.00  0.00    +0.064 C 
ATOM     16  C   UNL     1       0.120  -2.404  -1.282  0.00  0.00    +0.025 A 
ATOM     17  C   UNL     1       0.103  -1.056  -1.495  0.00  0.00    +0.051 A 
ATOM     18  C   UNL     1      -0.219  -0.431  -0.199  0.00  0.00    +0.011 A 
ATOM     19  C   UNL     1      -0.379   0.885   0.228  0.00  0.00    +0.011 A 
ATOM     20  C   UNL     1      -0.688   1.141   1.546  0.00  0.00    +0.001 A 
ATOM     21  C   UNL     1      -0.841   0.096   2.445  0.00  0.00    +0.002 A 
ATOM     22  C   UNL     1      -0.686  -1.210   2.036  0.00  0.00    +0.026 A 
ATOM     23  C   UNL     1      -0.374  -1.490   0.710  0.00  0.00    +0.047 A 
ATOM     24  N   UNL     1      -0.166  -2.665   0.016  0.00  0.00    -0.358 N 
ATOM     25  H   UNL     1      -0.216  -3.553   0.404  0.00  0.00    +0.166 HD
ENDBRANCH  13  17
ENDBRANCH   1  13
BRANCH   1  26
ATOM     26  C   UNL     1       1.475   1.808  -2.164  0.00  0.00    +0.103 C 
ATOM     27  N   UNL     1       2.325   2.363  -1.654  0.00  0.00    -0.191 NA
ENDBRANCH   1  26
TORSDOF 4
