REMARK  Name = ZINC40064111
REMARK  6 active torsions:
REMARK  status: ('A' for Active; 'I' for Inactive)
REMARK    1  A    between atoms: C_1  and  C_2
REMARK    2  A    between atoms: C_12  and  C_13
REMARK    3  A    between atoms: C_17  and  C_19
REMARK    4  A    between atoms: C_22  and  O_27
REMARK    5  A    between atoms: C_23  and  O_25
REMARK    6  A    between atoms: O_25  and  C_26
REMARK                            x       y       z     vdW  Elec       q    Type
REMARK                         _______ _______ _______ _____ _____    ______ ____
ROOT
ATOM      1  C   UNL     1      -0.018   1.503   0.010  0.00  0.00    +0.044 C 
ATOM      2  C   UNL     1       0.002  -0.004   0.002  0.00  0.00    -0.044 A 
ATOM      3  C   UNL     1       0.006  -0.683  -1.209  0.00  0.00    +0.004 A 
ATOM      4  C   UNL     1       0.021  -2.050  -1.231  0.00  0.00    +0.015 A 
ATOM      5  C   UNL     1       0.034  -2.761  -0.032  0.00  0.00    +0.065 A 
ATOM      6  C   UNL     1       0.037  -4.246  -0.038  0.00  0.00    +0.199 A 
ATOM      7  O   UNL     1       0.202  -4.908  -1.048  0.00  0.00    -0.287 OA
ATOM      8  C   UNL     1      -0.175  -4.839   1.286  0.00  0.00    +0.072 A 
ATOM      9  C   UNL     1      -0.157  -4.068   2.414  0.00  0.00    +0.199 A 
ATOM     10  O   UNL     1       0.061  -2.739   2.383  0.00  0.00    -0.449 OA
ATOM     11  C   UNL     1       0.037  -2.085   1.199  0.00  0.00    +0.143 A 
ATOM     12  C   UNL     1       0.023  -0.690   1.195  0.00  0.00    -0.005 A 
ATOM     13  C   UNL     1       0.024   0.066   2.499  0.00  0.00    +0.048 C 
ATOM     14  C   UNL     1      -0.405  -4.941   3.574  0.00  0.00    +0.289 C 
ATOM     15  O   UNL     1      -0.457  -4.566   4.729  0.00  0.00    -0.266 OA
ATOM     16  N   UNL     1      -0.568  -6.217   3.168  0.00  0.00    -0.232 N 
ATOM     17  C   UNL     1      -0.434  -6.250   1.702  0.00  0.00    +0.152 C 
ATOM     18  C   UNL     1      -0.817  -7.308   3.989  0.00  0.00    +0.168 A 
ATOM     19  N   UNL     1      -0.977  -8.569   3.647  0.00  0.00    -0.233 NA
ATOM     20  C   UNL     1      -1.210  -9.497   4.555  0.00  0.00    +0.120 A 
ATOM     21  C   UNL     1      -1.276  -9.093   5.848  0.00  0.00    +0.068 A 
ATOM     22  S   UNL     1      -0.981  -7.341   5.663  0.00  0.00    -0.060 S 
ENDROOT
BRANCH  17  23
ATOM     23  C   UNL     1      -1.709  -6.751   1.075  0.00  0.00    -0.018 A 
ATOM     24  C   UNL     1      -2.930  -6.404   1.622  0.00  0.00    +0.009 A 
ATOM     25  C   UNL     1      -4.102  -6.862   1.050  0.00  0.00    +0.049 A 
ATOM     26  C   UNL     1      -4.055  -7.669  -0.075  0.00  0.00    +0.158 A 
ATOM     27  C   UNL     1      -2.826  -8.018  -0.626  0.00  0.00    +0.162 A 
ATOM     28  C   UNL     1      -1.655  -7.552  -0.051  0.00  0.00    +0.055 A 
BRANCH  27  29
ATOM     29  O   UNL     1      -2.775  -8.810  -1.730  0.00  0.00    -0.491 OA
ATOM     30  C   UNL     1      -1.478  -9.127  -2.242  0.00  0.00    +0.277 C 
ENDBRANCH  27  29
BRANCH  26  31
ATOM     31  O   UNL     1      -5.208  -8.121  -0.638  0.00  0.00    -0.503 OA
ATOM     32  H   UNL     1      -5.569  -7.534  -1.317  0.00  0.00    +0.292 HD
ENDBRANCH  26  31
ENDBRANCH  17  23
TORSDOF 3
