REMARK  Name = ZINC63266698
REMARK  9 active torsions:
REMARK  status: ('A' for Active; 'I' for Inactive)
REMARK    1  A    between atoms: C_1  and  C_2
REMARK    2  A    between atoms: C_2  and  C_3
REMARK    3  A    between atoms: C_6  and  C_9
REMARK    4  A    between atoms: N_10  and  N_11
REMARK    5  A    between atoms: C_12  and  C_14
REMARK    6  A    between atoms: C_14  and  C_16
REMARK    7  A    between atoms: C_14  and  N_26
REMARK    8  A    between atoms: C_16  and  C_17
REMARK    9  A    between atoms: C_27  and  C_29
REMARK                            x       y       z     vdW  Elec       q    Type
REMARK                         _______ _______ _______ _____ _____    ______ ____
ROOT
ATOM      1  C   UNL     1      -9.380  -3.460  -2.218  0.00  0.00    +0.165 C 
ENDROOT
BRANCH   1   3
ATOM      2  N   UNL     1      -7.325  -2.705  -1.066  0.00  0.00    -0.205 N 
ATOM      3  C   UNL     1      -7.966  -2.938  -2.229  0.00  0.00    +0.253 C 
ATOM      4  O   UNL     1      -7.406  -2.726  -3.283  0.00  0.00    -0.272 OA
ATOM      5  H   UNL     1      -7.773  -2.875  -0.223  0.00  0.00    +0.177 HD
BRANCH   2   7
ATOM      6  C   UNL     1      -5.393  -1.996   0.043  0.00  0.00    +0.138 C 
ATOM      7  N   UNL     1      -6.011  -2.220  -1.076  0.00  0.00    -0.188 NA
BRANCH   6  11
ATOM      8  C   UNL     1      -1.412  -0.526   0.013  0.00  0.00    -0.048 A 
ATOM      9  C   UNL     1      -2.048  -0.765   1.218  0.00  0.00    +0.004 A 
ATOM     10  C   UNL     1      -3.342  -1.243   1.235  0.00  0.00    +0.010 A 
ATOM     11  C   UNL     1      -4.010  -1.485   0.032  0.00  0.00    -0.005 A 
ATOM     12  C   UNL     1      -3.361  -1.240  -1.180  0.00  0.00    +0.010 A 
ATOM     13  C   UNL     1      -2.069  -0.758  -1.183  0.00  0.00    +0.004 A 
BRANCH   8  15
ATOM     14  C   UNL     1      -0.019   1.526   0.010  0.00  0.00    +0.009 C 
ATOM     15  C   UNL     1       0.002  -0.004   0.002  0.00  0.00    +0.032 C 
ENDBRANCH   8  15
ENDBRANCH   6  11
ENDBRANCH   2   7
ENDBRANCH   1   3
BRANCH   1  16
ATOM     16  N   UNL     1      -9.849  -3.628  -3.596  0.00  0.00    -0.300 N 
ATOM     17  C   UNL     1     -11.168  -3.588  -3.868  0.00  0.00    +0.245 C 
ATOM     18  O   UNL     1     -11.969  -3.414  -2.970  0.00  0.00    -0.270 OA
ATOM     19  H   UNL     1      -9.210  -3.767  -4.312  0.00  0.00    +0.150 HD
BRANCH  17  20
ATOM     20  C   UNL     1     -11.642  -3.757  -5.258  0.00  0.00    +0.037 A 
ATOM     21  C   UNL     1     -10.725  -3.964  -6.290  0.00  0.00    +0.014 A 
ATOM     22  C   UNL     1     -11.172  -4.121  -7.585  0.00  0.00    +0.021 A 
ATOM     23  C   UNL     1     -12.528  -4.075  -7.862  0.00  0.00    +0.041 A 
ATOM     24  C   UNL     1     -13.443  -3.870  -6.842  0.00  0.00    +0.021 A 
ATOM     25  C   UNL     1     -13.008  -3.717  -5.542  0.00  0.00    +0.014 A 
ATOM     26 CL   UNL     1     -13.084  -4.273  -9.495  0.00  0.00    -0.084 Cl
ENDBRANCH  17  20
ENDBRANCH   1  16
BRANCH   1  27
ATOM     27  C   UNL     1      -9.419  -4.810  -1.498  0.00  0.00    +0.065 C 
BRANCH  27  28
ATOM     28  C   UNL     1     -10.848  -5.274  -1.379  0.00  0.00    -0.039 C 
ATOM     29  C   UNL     1     -11.502  -6.114  -2.213  0.00  0.00    -0.001 A 
ATOM     30  C   UNL     1     -11.095  -6.818  -3.435  0.00  0.00    +0.010 A 
ATOM     31  C   UNL     1     -11.993  -7.608  -4.067  0.00  0.00    +0.001 A 
ATOM     32  C   UNL     1     -13.300  -7.770  -3.585  0.00  0.00    +0.002 A 
ATOM     33  C   UNL     1     -13.747  -7.155  -2.470  0.00  0.00    +0.026 A 
ATOM     34  C   UNL     1     -12.887  -6.302  -1.725  0.00  0.00    +0.043 A 
ATOM     35  N   UNL     1     -13.081  -5.605  -0.632  0.00  0.00    -0.380 N 
ATOM     36  C   UNL     1     -11.838  -4.901  -0.299  0.00  0.00    +0.144 C 
ATOM     37  H   UNL     1     -13.908  -5.565  -0.125  0.00  0.00    +0.160 HD
ENDBRANCH  27  28
ENDBRANCH   1  27
TORSDOF 8
