REMARK  Name = ZINC29128471
REMARK  10 active torsions:
REMARK  status: ('A' for Active; 'I' for Inactive)
REMARK    1  A    between atoms: C_1  and  C_2
REMARK    2  A    between atoms: C_2  and  C_4
REMARK    3  A    between atoms: C_2  and  N_25
REMARK    4  A    between atoms: C_7  and  C_10
REMARK    5  A    between atoms: C_15  and  C_16
REMARK    6  A    between atoms: N_19  and  C_21
REMARK    7  A    between atoms: C_26  and  C_28
REMARK    8  A    between atoms: C_28  and  C_29
REMARK    9  A    between atoms: C_28  and  C_30
REMARK   10  A    between atoms: C_28  and  O_34
REMARK                            x       y       z     vdW  Elec       q    Type
REMARK                         _______ _______ _______ _____ _____    ______ ____
ROOT
ATOM      1  C   UNL     1      -3.234  -2.113   0.112  0.00  0.00    +0.096 A 
ATOM      2  C   UNL     1      -2.758  -2.995  -0.844  0.00  0.00    +0.147 A 
ATOM      3  C   UNL     1      -1.398  -3.257  -0.906  0.00  0.00    +0.050 A 
ATOM      4  C   UNL     1      -0.557  -2.614   0.006  0.00  0.00    +0.004 A 
ATOM      5  C   UNL     1      -1.116  -1.744   0.941  0.00  0.00    +0.119 A 
ATOM      6  N   UNL     1      -2.414  -1.522   0.959  0.00  0.00    -0.255 NA
ATOM      7  F   UNL     1      -3.609  -3.595  -1.705  0.00  0.00    -0.204 F 
ENDROOT
BRANCH   4   8
ATOM      8  C   UNL     1       0.905  -2.857  -0.015  0.00  0.00    -0.001 A 
ATOM      9  C   UNL     1       1.397  -4.159  -0.031  0.00  0.00    +0.029 A 
ATOM     10  C   UNL     1       2.761  -4.383  -0.046  0.00  0.00    +0.044 A 
ATOM     11  C   UNL     1       3.645  -3.317  -0.051  0.00  0.00    +0.059 A 
ATOM     12  C   UNL     1       3.173  -2.018  -0.040  0.00  0.00    +0.136 A 
ATOM     13  C   UNL     1       1.800  -1.776  -0.025  0.00  0.00    +0.066 A 
ATOM     14  F   UNL     1       4.041  -0.983  -0.043  0.00  0.00    -0.205 F 
ATOM     15 CL   UNL     1       3.368  -6.009  -0.060  0.00  0.00    -0.083 Cl
BRANCH  13  16
ATOM     16  C   UNL     1       1.288  -0.385  -0.012  0.00  0.00    +0.208 A 
ATOM     17  N   UNL     1       0.002  -0.004   0.002  0.00  0.00    -0.108 NA
ATOM     18  N   UNL     1      -0.015   1.286   0.009  0.00  0.00    -0.046 NA
ATOM     19  N   UNL     1       1.196   1.720  -0.000  0.00  0.00    -0.166 N 
ATOM     20  N   UNL     1       2.008   0.720  -0.013  0.00  0.00    -0.131 NA
ATOM     21  C   UNL     1       1.590   3.131   0.003  0.00  0.00    +0.199 C 
ENDBRANCH  13  16
ENDBRANCH   4   8
BRANCH   1  23
ATOM     22  C   UNL     1      -5.314  -2.549   1.389  0.00  0.00    +0.034 C 
ATOM     23  C   UNL     1      -4.711  -1.824   0.185  0.00  0.00    +0.122 C 
BRANCH  23  24
ATOM     24  N   UNL     1      -4.920  -0.381   0.329  0.00  0.00    -0.305 N 
ATOM     25  C   UNL     1      -6.078   0.176  -0.078  0.00  0.00    +0.254 C 
ATOM     26  O   UNL     1      -6.947  -0.517  -0.564  0.00  0.00    -0.272 OA
ATOM     27  H   UNL     1      -4.132   0.247   0.769  0.00  0.00    +0.149 HD
BRANCH  25  28
ATOM     28  C   UNL     1      -6.293   1.661   0.070  0.00  0.00    +0.234 C 
ATOM     29  C   UNL     1      -6.812   1.962   1.477  0.00  0.00    +0.061 C 
BRANCH  28  30
ATOM     30  C   UNL     1      -7.317   2.133  -0.964  0.00  0.00    +0.427 C 
ATOM     31  F   UNL     1      -8.528   1.464  -0.761  0.00  0.00    -0.167 F 
ATOM     32  F   UNL     1      -7.516   3.511  -0.826  0.00  0.00    -0.167 F 
ATOM     33  F   UNL     1      -6.841   1.857  -2.251  0.00  0.00    -0.167 F 
ENDBRANCH  28  30
BRANCH  28  34
ATOM     34  O   UNL     1      -5.055   2.344  -0.138  0.00  0.00    -0.373 OA
ATOM     35  H   UNL     1      -5.015   3.441  -0.069  0.00  0.00    +0.211 HD
ENDBRANCH  28  34
ENDBRANCH  25  28
ENDBRANCH  23  24
ENDBRANCH   1  23
TORSDOF 7
