REMARK  Name = ZINC38081750
REMARK  7 active torsions:
REMARK  status: ('A' for Active; 'I' for Inactive)
REMARK    1  A    between atoms: C_1  and  C_2
REMARK    2  A    between atoms: C_5  and  N_20
REMARK    3  A    between atoms: C_7  and  O_8
REMARK    4  A    between atoms: O_8  and  C_9
REMARK    5  A    between atoms: C_14  and  C_15
REMARK    6  A    between atoms: C_15  and  C_17
REMARK    7  A    between atoms: C_15  and  N_18
REMARK                            x       y       z     vdW  Elec       q    Type
REMARK                         _______ _______ _______ _____ _____    ______ ____
ROOT
ATOM      1  C   UNL     1       0.054  -0.848   3.469  0.00  0.00    +0.130 A 
ATOM      2  C   UNL     1       0.136  -2.223   3.305  0.00  0.00    +0.049 A 
ATOM      3  C   UNL     1       0.165  -3.049   4.412  0.00  0.00    +0.042 A 
ATOM      4  C   UNL     1       0.112  -2.505   5.684  0.00  0.00    +0.124 A 
ATOM      5  C   UNL     1       0.031  -1.133   5.849  0.00  0.00    +0.044 A 
ATOM      6  C   UNL     1       0.008  -0.304   4.744  0.00  0.00    -0.017 A 
ATOM      7  F   UNL     1       0.140  -3.314   6.766  0.00  0.00    -0.205 F 
ENDROOT
BRANCH   6   8
ATOM      8  C   UNL     1      -0.074   1.190   4.924  0.00  0.00    -0.044 C 
ATOM      9  C   UNL     1      -1.536   1.634   4.841  0.00  0.00    -0.009 C 
BRANCH   8  10
ATOM     10  N   UNL     1       0.475   1.556   6.237  0.00  0.00    +0.383 N 
ATOM     11  H   UNL     1       0.419   2.557   6.357  0.00  0.00    -0.089 HD
ATOM     12  H   UNL     1      -0.057   1.100   6.963  0.00  0.00    -0.089 HD
ATOM     13  H   UNL     1       1.439   1.264   6.292  0.00  0.00    -0.089 HD
ENDBRANCH   8  10
ENDBRANCH   6   8
BRANCH   1  14
ATOM     14  O   UNL     1       0.025  -0.034   2.381  0.00  0.00    -0.455 OA
BRANCH  14  21
ATOM     15  C   UNL     1      -0.084   1.825   0.256  0.00  0.00    +0.047 C 
ATOM     16  C   UNL     1       1.212   1.399   0.897  0.00  0.00    -0.008 A 
ATOM     17  C   UNL     1       2.409   1.926   0.453  0.00  0.00    +0.009 A 
ATOM     18  C   UNL     1       3.598   1.535   1.041  0.00  0.00    +0.033 A 
ATOM     19  C   UNL     1       3.592   0.616   2.074  0.00  0.00    +0.130 A 
ATOM     20  C   UNL     1       2.398   0.086   2.522  0.00  0.00    +0.079 A 
ATOM     21  C   UNL     1       1.202   0.481   1.938  0.00  0.00    +0.133 A 
BRANCH  19  22
ATOM     22  N   UNL     1       4.867   0.199   2.700  0.00  0.00    +0.057 N 
ATOM     23  O   UNL     1       5.913   0.662   2.308  0.00  0.00    -0.126 OA
ATOM     24  O   UNL     1       4.862  -0.604   3.604  0.00  0.00    -0.126 OA
ENDBRANCH  19  22
ENDBRANCH  14  21
ENDBRANCH   1  14
TORSDOF 5
