REMARK  Name = ZINC36528312
REMARK  16 active torsions:
REMARK  status: ('A' for Active; 'I' for Inactive)
REMARK    1  A    between atoms: C_1  and  C_2
REMARK    2  A    between atoms: C_5  and  C_9
REMARK    3  A    between atoms: C_6  and  C_8
REMARK    4  A    between atoms: C_9  and  C_11
REMARK    5  A    between atoms: C_9  and  N_22
REMARK    6  A    between atoms: N_13  and  C_14
REMARK    7  A    between atoms: C_14  and  C_15
REMARK    8  A    between atoms: C_14  and  C_16
REMARK    9  A    between atoms: C_14  and  C_17
REMARK   10  A    between atoms: C_17  and  C_18
REMARK   11  A    between atoms: C_18  and  C_19
REMARK   12  A    between atoms: C_18  and  C_20
REMARK   13  A    between atoms: C_18  and  C_21
REMARK   14  A    between atoms: N_22  and  C_23
REMARK   15  A    between atoms: C_24  and  C_26
REMARK   16  A    between atoms: C_26  and  C_27
REMARK                            x       y       z     vdW  Elec       q    Type
REMARK                         _______ _______ _______ _____ _____    ______ ____
ROOT
ATOM      1  C   UNL     1      -0.714  -4.729   0.726  0.00  0.00    +0.192 C 
ENDROOT
BRANCH   1   6
ATOM      2  C   UNL     1       2.311  -0.066   2.306  0.00  0.00    +0.044 C 
ATOM      3  C   UNL     1       1.522  -1.282   1.894  0.00  0.00    -0.050 A 
ATOM      4  C   UNL     1       0.188  -1.157   1.553  0.00  0.00    +0.004 A 
ATOM      5  C   UNL     1      -0.535  -2.273   1.175  0.00  0.00    +0.006 A 
ATOM      6  C   UNL     1       0.075  -3.513   1.137  0.00  0.00    -0.015 A 
ATOM      7  C   UNL     1       1.409  -3.637   1.477  0.00  0.00    -0.045 A 
ATOM      8  C   UNL     1       2.134  -2.521   1.851  0.00  0.00    +0.007 A 
ATOM      9  C   UNL     1       2.074  -4.988   1.436  0.00  0.00    +0.044 C 
ENDBRANCH   1   6
BRANCH   1  10
ATOM     10  C   UNL     1      -2.188  -4.430   0.831  0.00  0.00    +0.238 C 
ATOM     11  O   UNL     1      -2.896  -4.518  -0.150  0.00  0.00    -0.273 OA
ATOM     12  N   UNL     1      -2.719  -4.066   2.015  0.00  0.00    -0.308 N 
ATOM     13  H   UNL     1      -2.143  -3.927   2.783  0.00  0.00    +0.149 HD
BRANCH  12  14
ATOM     14  C   UNL     1      -4.167  -3.881   2.142  0.00  0.00    +0.030 C 
ATOM     15  C   UNL     1      -4.604  -2.684   1.296  0.00  0.00    +0.031 C 
ATOM     16  C   UNL     1      -4.887  -5.141   1.656  0.00  0.00    +0.031 C 
BRANCH  14  17
ATOM     17  C   UNL     1      -4.521  -3.626   3.609  0.00  0.00    +0.031 C 
BRANCH  17  18
ATOM     18  C   UNL     1      -3.527  -4.363   4.509  0.00  0.00    -0.036 C 
ATOM     19  C   UNL     1      -2.250  -3.531   4.647  0.00  0.00    +0.010 C 
ATOM     20  C   UNL     1      -4.151  -4.573   5.891  0.00  0.00    +0.010 C 
ATOM     21  C   UNL     1      -3.188  -5.720   3.891  0.00  0.00    +0.010 C 
ENDBRANCH  17  18
ENDBRANCH  14  17
ENDBRANCH  12  14
ENDBRANCH   1  10
BRANCH   1  22
ATOM     22  N   UNL     1      -0.385  -5.080  -0.658  0.00  0.00    -0.289 N 
ATOM     23  C   UNL     1      -0.628  -4.118  -1.736  0.00  0.00    +0.133 C 
ATOM     24  C   UNL     1       0.143  -6.288  -0.939  0.00  0.00    +0.221 C 
ATOM     25  O   UNL     1       0.344  -7.084  -0.046  0.00  0.00    -0.275 OA
BRANCH  24  26
ATOM     26  C   UNL     1       0.482  -6.649  -2.362  0.00  0.00    +0.131 C 
BRANCH  26  27
ATOM     27  C   UNL     1       1.052  -8.043  -2.404  0.00  0.00    -0.039 A 
ATOM     28  C   UNL     1       2.414  -8.237  -2.268  0.00  0.00    +0.005 A 
ATOM     29  C   UNL     1       2.938  -9.516  -2.306  0.00  0.00    +0.015 A 
ATOM     30  C   UNL     1       2.099 -10.602  -2.480  0.00  0.00    +0.018 A 
ATOM     31  C   UNL     1       0.736 -10.407  -2.616  0.00  0.00    +0.015 A 
ATOM     32  C   UNL     1       0.213  -9.129  -2.572  0.00  0.00    +0.005 A 
ATOM     33 BR   UNL     1       2.815 -12.351  -2.533  0.00  0.00    -0.050 Br
ENDBRANCH  26  27
ENDBRANCH  24  26
ENDBRANCH   1  22
TORSDOF 8
