REMARK  Name = ZINC34750021
REMARK  9 active torsions:
REMARK  status: ('A' for Active; 'I' for Inactive)
REMARK    1  A    between atoms: C_1  and  C_2
REMARK    2  A    between atoms: C_2  and  C_4
REMARK    3  A    between atoms: C_4  and  S_5
REMARK    4  A    between atoms: S_5  and  C_6
REMARK    5  A    between atoms: C_17  and  C_19
REMARK    6  A    between atoms: C_17  and  C_20
REMARK    7  A    between atoms: N_24  and  C_27
REMARK    8  A    between atoms: C_27  and  C_28
REMARK    9  A    between atoms: C_28  and  C_29
REMARK                            x       y       z     vdW  Elec       q    Type
REMARK                         _______ _______ _______ _____ _____    ______ ____
ROOT
ATOM      1  C   UNL     1      -3.514  -1.639   1.514  0.00  0.00    +0.191 A 
ATOM      2  N   UNL     1      -4.303  -1.786   2.572  0.00  0.00    -0.206 NA
ATOM      3  C   UNL     1      -5.425  -2.484   2.520  0.00  0.00    +0.134 A 
ATOM      4  C   UNL     1      -5.806  -3.100   1.295  0.00  0.00    +0.051 A 
ATOM      5  C   UNL     1      -6.988  -3.911   1.005  0.00  0.00    -0.020 A 
ATOM      6  C   UNL     1      -7.116  -4.383  -0.253  0.00  0.00    +0.021 A 
ATOM      7  S   UNL     1      -5.691  -3.785  -1.118  0.00  0.00    -0.071 S 
ATOM      8  C   UNL     1      -4.922  -2.901   0.215  0.00  0.00    +0.115 A 
ATOM      9  N   UNL     1      -3.822  -2.185   0.345  0.00  0.00    -0.215 NA
ATOM     10  C   UNL     1      -8.236  -5.231  -0.772  0.00  0.00    +0.203 C 
ATOM     11  O   UNL     1      -8.978  -5.721   0.356  0.00  0.00    -0.368 OA
ATOM     12  C   UNL     1      -9.314  -4.702   1.303  0.00  0.00    +0.068 C 
ATOM     13  C   UNL     1      -8.058  -4.237   2.045  0.00  0.00    +0.071 C 
ATOM     14  C   UNL     1      -9.939  -3.514   0.569  0.00  0.00    +0.041 C 
ATOM     15  C   UNL     1     -10.322  -5.259   2.311  0.00  0.00    +0.041 C 
ATOM     16  N   UNL     1      -6.219  -2.614   3.645  0.00  0.00    -0.318 N 
ATOM     17  C   UNL     1      -6.098  -3.786   4.525  0.00  0.00    +0.088 C 
ATOM     18  C   UNL     1      -5.950  -3.296   5.970  0.00  0.00    -0.060 C 
ATOM     19  N   UNL     1      -7.069  -2.404   6.299  0.00  0.00    +0.382 N 
ATOM     20  C   UNL     1      -7.010  -1.198   5.464  0.00  0.00    -0.060 C 
ATOM     21  C   UNL     1      -7.206  -1.581   3.998  0.00  0.00    +0.088 C 
ATOM     22  H   UNL     1      -7.941  -2.884   6.132  0.00  0.00    -0.082 HD
ENDROOT
BRANCH   1  23
ATOM     23  S   UNL     1      -2.035  -0.693   1.663  0.00  0.00    -0.082 S 
BRANCH  23  24
ATOM     24  C   UNL     1      -1.303  -0.758   0.005  0.00  0.00    +0.107 C 
BRANCH  24  26
ATOM     25  C   UNL     1      -0.046   1.529  -0.006  0.00  0.00    +0.039 C 
ATOM     26  C   UNL     1      -0.014   0.023  -0.006  0.00  0.00    -0.069 C 
ATOM     27  C   UNL     1       1.134  -0.609  -0.016  0.00  0.00    +0.008 C 
ENDBRANCH  24  26
ENDBRANCH  23  24
ENDBRANCH   1  23
BRANCH  19  28
ATOM     28  C   UNL     1      -6.988  -2.022   7.715  0.00  0.00    -0.074 C 
BRANCH  28  29
ATOM     29  C   UNL     1      -8.219  -1.195   8.092  0.00  0.00    +0.016 C 
BRANCH  29  30
ATOM     30  C   UNL     1      -8.135  -0.803   9.544  0.00  0.00    -0.049 A 
ATOM     31  C   UNL     1      -8.672  -1.628  10.515  0.00  0.00    +0.003 A 
ATOM     32  C   UNL     1      -8.595  -1.268  11.848  0.00  0.00    +0.000 A 
ATOM     33  C   UNL     1      -7.982  -0.084  12.210  0.00  0.00    +0.000 A 
ATOM     34  C   UNL     1      -7.444   0.741  11.239  0.00  0.00    +0.000 A 
ATOM     35  C   UNL     1      -7.517   0.379   9.907  0.00  0.00    +0.003 A 
ENDBRANCH  29  30
ENDBRANCH  28  29
ENDBRANCH  19  28
TORSDOF 6
