REMARK  Name = ZINC23056391
REMARK  5 active torsions:
REMARK  status: ('A' for Active; 'I' for Inactive)
REMARK    1  A    between atoms: C_1  and  O_2
REMARK    2  A    between atoms: O_2  and  C_3
REMARK    3  A    between atoms: C_3  and  C_5
REMARK    4  A    between atoms: C_5  and  N_12
REMARK    5  A    between atoms: C_13  and  C_15
REMARK                            x       y       z     vdW  Elec       q    Type
REMARK                         _______ _______ _______ _____ _____    ______ ____
ROOT
ATOM      1  N   UNL     1       1.124   3.172   0.831  0.00  0.00    -0.296 N 
ATOM      2  C   UNL     1       0.187   4.090   0.521  0.00  0.00    +0.246 C 
ATOM      3  O   UNL     1      -0.529   3.924  -0.447  0.00  0.00    -0.270 OA
ATOM      4  H   UNL     1       1.772   3.322   1.707  0.00  0.00    +0.150 HD
ENDROOT
BRANCH   2   5
ATOM      5  C   UNL     1       0.030   5.297   1.359  0.00  0.00    +0.056 A 
ATOM      6  C   UNL     1       0.847   5.487   2.475  0.00  0.00    +0.034 A 
ATOM      7  C   UNL     1       0.697   6.619   3.251  0.00  0.00    +0.042 A 
ATOM      8  C   UNL     1      -0.267   7.560   2.930  0.00  0.00    +0.021 A 
ATOM      9  C   UNL     1      -1.083   7.375   1.829  0.00  0.00    +0.022 A 
ATOM     10  C   UNL     1      -0.941   6.250   1.041  0.00  0.00    +0.053 A 
ATOM     11 CL   UNL     1      -1.966   6.020  -0.341  0.00  0.00    -0.083 Cl
ATOM     12 CL   UNL     1       1.717   6.861   4.635  0.00  0.00    -0.084 Cl
ENDBRANCH   2   5
BRANCH   1  13
ATOM     13  C   UNL     1       1.280   1.975   0.000  0.00  0.00    +0.132 C 
ATOM     14  C   UNL     1       1.593   2.411  -1.446  0.00  0.00    +0.037 C 
ATOM     15  C   UNL     1       2.554   3.568  -1.399  0.00  0.00    +0.003 C 
ATOM     16  C   UNL     1       4.023   3.120  -1.520  0.00  0.00    +0.000 C 
ATOM     17  C   UNL     1       4.332   1.855  -0.697  0.00  0.00    +0.000 C 
ATOM     18  C   UNL     1       3.681   1.878   0.660  0.00  0.00    +0.003 C 
ATOM     19  C   UNL     1       2.329   1.141   0.568  0.00  0.00    +0.037 C 
BRANCH  13  20
ATOM     20  C   UNL     1      -0.014   1.204   0.009  0.00  0.00    +0.331 C 
ATOM     21  O   UNL     1       0.002  -0.004   0.002  0.00  0.00    -0.248 OA
BRANCH  20  23
ATOM     22  C   UNL     1      -2.393   1.052   0.019  0.00  0.00    +0.280 C 
ATOM     23  O   UNL     1      -1.186   1.859   0.018  0.00  0.00    -0.466 OA
ENDBRANCH  20  23
ENDBRANCH  13  20
ENDBRANCH   1  13
TORSDOF 4
