REMARK  Name = ZINC51751222
REMARK  4 active torsions:
REMARK  status: ('A' for Active; 'I' for Inactive)
REMARK    1  A    between atoms: C_1  and  C_2
REMARK    2  A    between atoms: N_6  and  S_11
REMARK    3  A    between atoms: C_7  and  C_10
REMARK    4  A    between atoms: S_11  and  C_14
REMARK                            x       y       z     vdW  Elec       q    Type
REMARK                         _______ _______ _______ _____ _____    ______ ____
ROOT
ATOM      1  S   UNL     1      -0.655  -3.985   2.068  0.00  0.00    +0.062 S 
ATOM      2  O   UNL     1      -0.494  -3.476   3.385  0.00  0.00    -0.153 OA
ATOM      3  O   UNL     1      -1.871  -4.568   1.619  0.00  0.00    -0.153 OA
ENDROOT
BRANCH   1   8
ATOM      4  C   UNL     1      -0.993   1.302  -0.126  0.00  0.00    +0.007 C 
ATOM      5  C   UNL     1      -0.470  -0.135  -0.066  0.00  0.00    -0.011 C 
ATOM      6  C   UNL     1      -1.639  -1.110  -0.218  0.00  0.00    +0.020 C 
ATOM      7  C   UNL     1      -1.107  -2.547  -0.192  0.00  0.00    +0.110 C 
ATOM      8  N   UNL     1      -0.319  -2.737   1.033  0.00  0.00    -0.174 NA
ATOM      9  C   UNL     1       0.774  -1.798   1.323  0.00  0.00    +0.077 C 
ATOM     10  C   UNL     1       0.221  -0.370   1.280  0.00  0.00    +0.023 C 
ATOM     11  C   UNL     1       1.345  -2.088   2.712  0.00  0.00    +0.026 C 
ENDBRANCH   1   8
BRANCH   1  12
ATOM     12  C   UNL     1       0.600  -5.202   1.842  0.00  0.00    +0.119 A 
ATOM     13  C   UNL     1       1.469  -5.498   2.875  0.00  0.00    +0.029 A 
ATOM     14  C   UNL     1       2.453  -6.453   2.697  0.00  0.00    +0.002 A 
ATOM     15  C   UNL     1       2.568  -7.111   1.487  0.00  0.00    +0.001 A 
ATOM     16  C   UNL     1       1.700  -6.815   0.454  0.00  0.00    +0.017 A 
ATOM     17  C   UNL     1       0.712  -5.864   0.632  0.00  0.00    +0.044 A 
ATOM     18 BR   UNL     1      -0.482  -5.463  -0.779  0.00  0.00    -0.048 Br
ENDBRANCH   1  12
TORSDOF 2
