REMARK  Name = ZINC06273189
REMARK  8 active torsions:
REMARK  status: ('A' for Active; 'I' for Inactive)
REMARK    1  A    between atoms: C_1  and  C_2
REMARK    2  A    between atoms: C_4  and  C_26
REMARK    3  A    between atoms: C_12  and  C_14
REMARK    4  A    between atoms: C_15  and  C_16
REMARK    5  A    between atoms: C_19  and  O_24
REMARK    6  A    between atoms: C_20  and  O_22
REMARK    7  A    between atoms: O_22  and  C_23
REMARK    8  A    between atoms: O_24  and  C_25
REMARK                            x       y       z     vdW  Elec       q    Type
REMARK                         _______ _______ _______ _____ _____    ______ ____
ROOT
ATOM      1  C   UNL     1      -0.013   1.086   0.008  0.00  0.00    +0.044 C 
ATOM      2  C   UNL     1      -0.718   1.572   1.248  0.00  0.00    -0.049 A 
ATOM      3  C   UNL     1      -2.088   1.792   1.234  0.00  0.00    +0.009 A 
ATOM      4  C   UNL     1      -2.754   2.229   2.349  0.00  0.00    -0.024 A 
ATOM      5  C   UNL     1      -2.058   2.481   3.554  0.00  0.00    +0.083 A 
ATOM      6  C   UNL     1      -0.664   2.251   3.530  0.00  0.00    +0.041 A 
ATOM      7  C   UNL     1      -0.006   1.808   2.409  0.00  0.00    +0.020 A 
ATOM      8  S   UNL     1      -0.182   2.673   5.186  0.00  0.00    -0.052 S 
ATOM      9  C   UNL     1      -1.806   3.114   5.788  0.00  0.00    +0.166 A 
ATOM     10  N   UNL     1      -2.559   2.916   4.731  0.00  0.00    -0.224 NA
ATOM     11  N   UNL     1      -2.176   3.553   7.047  0.00  0.00    -0.261 N 
ATOM     12  C   UNL     1      -1.245   3.695   8.011  0.00  0.00    +0.243 C 
ATOM     13  O   UNL     1      -0.079   3.437   7.775  0.00  0.00    -0.270 OA
ATOM     14  C   UNL     1      -4.244   2.449   2.288  0.00  0.00    +0.046 C 
ATOM     15  H   UNL     1      -3.105   3.758   7.235  0.00  0.00    +0.157 HD
ENDROOT
BRANCH  12  16
ATOM     16  C   UNL     1      -1.636   4.158   9.341  0.00  0.00    +0.068 C 
ATOM     17  C   UNL     1      -0.703   4.300  10.308  0.00  0.00    +0.013 C 
BRANCH  17  18
ATOM     18  C   UNL     1      -1.096   4.766  11.645  0.00  0.00    -0.021 A 
ATOM     19  C   UNL     1      -2.436   5.063  11.920  0.00  0.00    +0.012 A 
ATOM     20  C   UNL     1      -2.802   5.500  13.174  0.00  0.00    +0.050 A 
ATOM     21  C   UNL     1      -1.844   5.646  14.169  0.00  0.00    +0.162 A 
ATOM     22  C   UNL     1      -0.507   5.351  13.903  0.00  0.00    +0.162 A 
ATOM     23  C   UNL     1      -0.132   4.909  12.650  0.00  0.00    +0.057 A 
BRANCH  22  24
ATOM     24  O   UNL     1       0.428   5.495  14.881  0.00  0.00    -0.491 OA
ATOM     25  C   UNL     1       1.778   5.176  14.539  0.00  0.00    +0.277 C 
ENDBRANCH  22  24
BRANCH  21  26
ATOM     26  O   UNL     1      -2.210   6.076  15.404  0.00  0.00    -0.491 OA
ATOM     27  C   UNL     1      -3.596   6.359  15.607  0.00  0.00    +0.277 C 
ENDBRANCH  21  26
ENDBRANCH  17  18
ENDBRANCH  12  16
TORSDOF 4
