REMARK  Name = ZINC04959491
REMARK  5 active torsions:
REMARK  status: ('A' for Active; 'I' for Inactive)
REMARK    1  A    between atoms: C_1  and  O_2
REMARK    2  A    between atoms: O_2  and  C_3
REMARK    3  A    between atoms: C_6  and  C_11
REMARK    4  A    between atoms: C_8  and  O_9
REMARK    5  A    between atoms: O_9  and  C_10
REMARK                            x       y       z     vdW  Elec       q    Type
REMARK                         _______ _______ _______ _____ _____    ______ ____
ROOT
ATOM      1  C   UNL     1       1.143   3.595   0.010  0.00  0.00    +0.105 C 
ATOM      2  C   UNL     1       0.996   4.118  -1.404  0.00  0.00    +0.029 C 
ATOM      3  C   UNL     1       2.051   3.703  -2.436  0.00  0.00    +0.033 C 
ATOM      4  C   UNL     1       1.210   3.714  -3.732  0.00  0.00    -0.030 C 
ATOM      5  C   UNL     1      -0.076   3.530  -3.451  0.00  0.00    -0.023 C 
ATOM      6  C   UNL     1      -0.214   3.324  -1.988  0.00  0.00    +0.049 C 
ATOM      7  C   UNL     1      -1.411   3.756  -1.232  0.00  0.00    -0.019 A 
ATOM      8  C   UNL     1      -2.661   3.829  -1.839  0.00  0.00    +0.006 A 
ATOM      9  C   UNL     1      -3.767   4.214  -1.148  0.00  0.00    +0.009 A 
ATOM     10  C   UNL     1      -3.653   4.544   0.214  0.00  0.00    -0.016 A 
ATOM     11  C   UNL     1      -4.777   4.942   0.960  0.00  0.00    +0.008 A 
ATOM     12  C   UNL     1      -4.635   5.248   2.278  0.00  0.00    +0.001 A 
ATOM     13  C   UNL     1      -3.391   5.175   2.901  0.00  0.00    +0.001 A 
ATOM     14  C   UNL     1      -2.282   4.797   2.208  0.00  0.00    +0.010 A 
ATOM     15  C   UNL     1      -2.390   4.476   0.845  0.00  0.00    +0.003 A 
ATOM     16  C   UNL     1      -1.244   4.088   0.104  0.00  0.00    +0.039 A 
ATOM     17  N   UNL     1      -0.024   4.073   0.769  0.00  0.00    -0.336 N 
ATOM     18  H   UNL     1      -0.100   3.595   1.654  0.00  0.00    +0.147 HD
ENDROOT
BRANCH   1  22
ATOM     19  C   UNL     1       1.211  -0.680  -0.012  0.00  0.00    +0.162 A 
ATOM     20  C   UNL     1       0.018  -0.005   0.189  0.00  0.00    +0.050 A 
ATOM     21  C   UNL     1      -0.000   1.377   0.196  0.00  0.00    +0.009 A 
ATOM     22  C   UNL     1       1.169   2.089   0.002  0.00  0.00    -0.023 A 
ATOM     23  C   UNL     1       2.363   1.421  -0.199  0.00  0.00    +0.055 A 
ATOM     24  C   UNL     1       2.389   0.035  -0.207  0.00  0.00    +0.162 A 
BRANCH  19  26
ATOM     25  C   UNL     1      -0.015  -2.709   0.187  0.00  0.00    +0.277 C 
ATOM     26  O   UNL     1       1.232  -2.040  -0.020  0.00  0.00    -0.491 OA
ENDBRANCH  19  26
BRANCH  24  27
ATOM     27  O   UNL     1       3.562  -0.623  -0.405  0.00  0.00    -0.491 OA
ATOM     28  C   UNL     1       4.730   0.177  -0.598  0.00  0.00    +0.277 C 
ENDBRANCH  24  27
ENDBRANCH   1  22
TORSDOF 3
