REMARK  Name = ZINC09542403
REMARK  9 active torsions:
REMARK  status: ('A' for Active; 'I' for Inactive)
REMARK    1  A    between atoms: C_1  and  C_2
REMARK    2  A    between atoms: C_2  and  O_3
REMARK    3  A    between atoms: O_3  and  C_4
REMARK    4  A    between atoms: C_8  and  C_11
REMARK    5  A    between atoms: C_9  and  O_10
REMARK    6  A    between atoms: C_14  and  C_26
REMARK    7  A    between atoms: C_16  and  C_18
REMARK    8  A    between atoms: C_21  and  C_25
REMARK    9  A    between atoms: C_23  and  C_24
REMARK                            x       y       z     vdW  Elec       q    Type
REMARK                         _______ _______ _______ _____ _____    ______ ____
ROOT
ATOM      1  C   UNL     1       2.089   3.471   3.475  0.00  0.00    -0.028 C 
ATOM      2  C   UNL     1       3.077   3.786   2.347  0.00  0.00    +0.044 C 
ATOM      3  C   UNL     1       2.805   2.885   1.175  0.00  0.00    +0.040 C 
ATOM      4  N   UNL     1       2.091   1.826   1.259  0.00  0.00    -0.299 NA
ATOM      5  C   UNL     1       1.448   1.367   2.485  0.00  0.00    +0.081 C 
ATOM      6  N   UNL     1       2.054   2.008   3.662  0.00  0.00    +0.401 N 
ATOM      7  H   UNL     1       1.497   1.785   4.495  0.00  0.00    -0.081 HD
ATOM      8  H   UNL     1       3.011   1.657   3.786  0.00  0.00    -0.081 HD
ENDROOT
BRANCH   5   9
ATOM      9  C   UNL     1      -0.019   1.707   2.433  0.00  0.00    -0.038 A 
ATOM     10  C   UNL     1      -0.669   2.139   3.574  0.00  0.00    +0.004 A 
ATOM     11  C   UNL     1      -2.015   2.450   3.526  0.00  0.00    +0.003 A 
ATOM     12  C   UNL     1      -2.711   2.330   2.337  0.00  0.00    -0.050 A 
ATOM     13  C   UNL     1      -2.060   1.902   1.196  0.00  0.00    +0.007 A 
ATOM     14  C   UNL     1      -0.715   1.586   1.244  0.00  0.00    -0.047 A 
ATOM     15  C   UNL     1      -0.006   1.115   0.001  0.00  0.00    +0.044 C 
ATOM     16  C   UNL     1      -4.179   2.668   2.285  0.00  0.00    +0.044 C 
ENDBRANCH   5   9
BRANCH   3  17
ATOM     17  C   UNL     1       3.388   3.237  -0.134  0.00  0.00    -0.004 A 
ATOM     18  C   UNL     1       4.168   4.388  -0.266  0.00  0.00    +0.011 A 
ATOM     19  C   UNL     1       4.715   4.710  -1.491  0.00  0.00    +0.020 A 
ATOM     20  C   UNL     1       4.482   3.900  -2.590  0.00  0.00    +0.041 A 
ATOM     21  C   UNL     1       3.705   2.760  -2.466  0.00  0.00    +0.020 A 
ATOM     22  C   UNL     1       3.158   2.425  -1.246  0.00  0.00    +0.011 A 
ATOM     23 CL   UNL     1       5.168   4.315  -4.130  0.00  0.00    -0.084 Cl
ENDBRANCH   3  17
BRANCH   1  28
ATOM     24  C   UNL     1       2.630   6.059   6.184  0.00  0.00    +0.162 A 
ATOM     25  C   UNL     1       3.387   5.342   7.097  0.00  0.00    +0.049 A 
ATOM     26  C   UNL     1       3.721   4.026   6.835  0.00  0.00    +0.004 A 
ATOM     27  C   UNL     1       3.301   3.423   5.664  0.00  0.00    +0.006 A 
ATOM     28  C   UNL     1       2.545   4.132   4.750  0.00  0.00    -0.016 A 
ATOM     29  C   UNL     1       2.212   5.453   5.003  0.00  0.00    +0.160 A 
BRANCH  29  30
ATOM     30  O   UNL     1       1.472   6.154   4.103  0.00  0.00    -0.503 OA
ATOM     31  H   UNL     1       0.518   6.093   4.244  0.00  0.00    +0.292 HD
ENDBRANCH  29  30
BRANCH  24  32
ATOM     32  O   UNL     1       2.300   7.353   6.440  0.00  0.00    -0.489 OA
BRANCH  32  34
ATOM     33  C   UNL     1       2.302   9.364   7.780  0.00  0.00    +0.048 C 
ATOM     34  C   UNL     1       2.768   7.911   7.670  0.00  0.00    +0.226 C 
ENDBRANCH  32  34
ENDBRANCH  24  32
ENDBRANCH   1  28
TORSDOF 6
