REMARK  Name = ZINC04897147
REMARK  6 active torsions:
REMARK  status: ('A' for Active; 'I' for Inactive)
REMARK    1  A    between atoms: C_1  and  C_2
REMARK    2  A    between atoms: C_2  and  O_4
REMARK    3  A    between atoms: O_4  and  C_5
REMARK    4  A    between atoms: C_9  and  C_32
REMARK    5  A    between atoms: C_14  and  C_31
REMARK    6  A    between atoms: N_26  and  N_27
REMARK                            x       y       z     vdW  Elec       q    Type
REMARK                         _______ _______ _______ _____ _____    ______ ____
ROOT
ATOM      1  C   UNL     1     -10.571   2.767  -1.789  0.00  0.00    +0.180 C 
ATOM      2  C   UNL     1      -9.687   3.990  -1.544  0.00  0.00    +0.046 C 
ATOM      3  C   UNL     1      -8.228   3.616  -1.812  0.00  0.00    +0.015 C 
ATOM      4  C   UNL     1      -7.784   2.549  -0.808  0.00  0.00    -0.008 C 
ATOM      5  C   UNL     1      -6.335   2.167  -1.062  0.00  0.00    +0.003 C 
ATOM      6  C   UNL     1      -5.412   3.256  -0.520  0.00  0.00    +0.005 C 
ATOM      7  C   UNL     1      -3.931   2.881  -0.684  0.00  0.00    +0.013 C 
ATOM      8  C   UNL     1      -3.723   1.562   0.034  0.00  0.00    +0.011 C 
ATOM      9  C   UNL     1      -4.558   0.489  -0.721  0.00  0.00    +0.005 C 
ATOM     10  C   UNL     1      -6.028   0.782  -0.475  0.00  0.00    +0.001 C 
ATOM     11  C   UNL     1      -6.905  -0.249  -1.170  0.00  0.00    +0.031 C 
ATOM     12  C   UNL     1      -8.346   0.152  -1.042  0.00  0.00    -0.027 C 
ATOM     13  C   UNL     1      -8.727   1.385  -0.887  0.00  0.00    -0.064 C 
ATOM     14  C   UNL     1     -10.216   1.670  -0.781  0.00  0.00    +0.075 C 
ATOM     15  C   UNL     1      -4.024  -0.801  -0.087  0.00  0.00    +0.010 C 
ATOM     16  C   UNL     1      -2.499  -0.521   0.012  0.00  0.00    +0.053 C 
ATOM     17  C   UNL     1      -2.333   0.995   0.018  0.00  0.00    +0.043 C 
ATOM     18  N   UNL     1      -1.234   1.650   0.017  0.00  0.00    -0.187 NA
ATOM     19  C   UNL     1      -4.215   1.681   1.478  0.00  0.00    +0.018 C 
ATOM     20  C   UNL     1      -7.881   3.147   0.596  0.00  0.00    +0.016 C 
ENDROOT
BRANCH  18  21
ATOM     21  N   UNL     1      -0.011   0.966   0.007  0.00  0.00    -0.191 N 
ATOM     22  C   UNL     1       1.147   1.655   0.000  0.00  0.00    +0.317 C 
ATOM     23  O   UNL     1       2.208   1.062  -0.013  0.00  0.00    -0.251 OA
ATOM     24  N   UNL     1       1.129   3.003   0.007  0.00  0.00    -0.312 N 
ATOM     25  H   UNL     1       0.002  -0.004   0.002  0.00  0.00    +0.179 HD
ATOM     26  H   UNL     1       0.282   3.477   0.018  0.00  0.00    +0.147 HD
ATOM     27  H   UNL     1       1.962   3.499   0.002  0.00  0.00    +0.147 HD
ENDBRANCH  18  21
BRANCH   1  28
ATOM     28  O   UNL     1     -11.966   3.138  -1.629  0.00  0.00    -0.461 OA
BRANCH  28  30
ATOM     29  C   UNL     1     -14.331   2.789  -2.247  0.00  0.00    +0.136 C 
ATOM     30  C   UNL     1     -12.865   2.459  -2.360  0.00  0.00    +0.304 C 
ATOM     31  O   UNL     1     -12.498   1.584  -3.108  0.00  0.00    -0.251 OA
ENDBRANCH  28  30
ENDBRANCH   1  28
TORSDOF 3
