REMARK  Name = ZINC09968923
REMARK  12 active torsions:
REMARK  status: ('A' for Active; 'I' for Inactive)
REMARK    1  A    between atoms: C_1  and  C_2
REMARK    2  A    between atoms: C_2  and  C_3
REMARK    3  A    between atoms: C_2  and  C_4
REMARK    4  A    between atoms: C_4  and  N_5
REMARK    5  A    between atoms: C_18  and  C_19
REMARK    6  A    between atoms: C_19  and  C_20
REMARK    7  A    between atoms: C_20  and  C_21
REMARK    8  A    between atoms: N_23  and  C_24
REMARK    9  A    between atoms: C_24  and  C_25
REMARK   10  A    between atoms: C_25  and  C_26
REMARK   11  A    between atoms: C_26  and  N_75
REMARK   12  A    between atoms: N_29  and  C_32
REMARK                            x       y       z     vdW  Elec       q    Type
REMARK                         _______ _______ _______ _____ _____    ______ ____
ROOT
ATOM      1  C   UNL     1      -1.935  -7.919  -3.022  0.00  0.00    +0.213 C 
ATOM      2  O   UNL     1      -1.689  -8.708  -2.135  0.00  0.00    -0.276 OA
ATOM      3  N   UNL     1      -1.849  -6.594  -2.789  0.00  0.00    -0.315 N 
ATOM      4  H   UNL     1      -2.045  -5.963  -3.498  0.00  0.00    +0.149 HD
ENDROOT
BRANCH   1   5
ATOM      5  C   UNL     1      -2.337  -8.419  -4.385  0.00  0.00    +0.103 C 
BRANCH   5   6
ATOM      6  C   UNL     1      -2.358  -9.949  -4.381  0.00  0.00    +0.086 C 
BRANCH   6  20
ATOM      7  N   UNL     1      -2.212 -11.361  -9.083  0.00  0.00    -0.276 N 
ATOM      8  C   UNL     1      -0.906 -11.159  -9.355  0.00  0.00    +0.263 A 
ATOM      9  O   UNL     1      -0.460 -11.402 -10.460  0.00  0.00    -0.267 OA
ATOM     10  C   UNL     1      -0.028 -10.649  -8.287  0.00  0.00    +0.063 A 
ATOM     11  C   UNL     1       1.331 -10.431  -8.508  0.00  0.00    +0.015 A 
ATOM     12  C   UNL     1       2.120  -9.951  -7.483  0.00  0.00    +0.001 A 
ATOM     13  C   UNL     1       1.568  -9.688  -6.239  0.00  0.00    +0.002 A 
ATOM     14  C   UNL     1       0.224  -9.901  -6.007  0.00  0.00    +0.027 A 
ATOM     15  C   UNL     1      -0.585 -10.382  -7.026  0.00  0.00    +0.063 A 
ATOM     16  N   UNL     1      -1.941 -10.607  -6.825  0.00  0.00    -0.264 N 
ATOM     17  C   UNL     1      -2.730 -11.083  -7.832  0.00  0.00    +0.239 A 
ATOM     18  N   UNL     1      -3.947 -11.182  -7.345  0.00  0.00    -0.110 NA
ATOM     19  N   UNL     1      -3.959 -10.808  -6.116  0.00  0.00    -0.132 NA
ATOM     20  C   UNL     1      -2.761 -10.449  -5.745  0.00  0.00    +0.140 A 
BRANCH   7  21
ATOM     21  C   UNL     1      -3.099 -11.866 -10.134  0.00  0.00    +0.131 C 
BRANCH  21  23
ATOM     22  C   UNL     1      -4.510 -11.216 -12.091  0.00  0.00    +0.009 C 
ATOM     23  C   UNL     1      -3.684 -10.688 -10.916  0.00  0.00    +0.003 C 
ATOM     24  C   UNL     1      -4.581  -9.859  -9.994  0.00  0.00    +0.009 C 
ENDBRANCH  21  23
ENDBRANCH   7  21
ENDBRANCH   6  20
ENDBRANCH   5   6
ENDBRANCH   1   5
BRANCH   3  25
ATOM     25  C   UNL     1      -1.457  -6.108  -1.463  0.00  0.00    +0.102 C 
BRANCH  25  26
ATOM     26  C   UNL     1      -1.437  -4.578  -1.467  0.00  0.00    +0.000 C 
BRANCH  26  27
ATOM     27  C   UNL     1      -1.028  -4.070  -0.083  0.00  0.00    -0.077 C 
BRANCH  27  33
ATOM     28  C   UNL     1      -0.396  -2.079   1.143  0.00  0.00    -0.060 C 
ATOM     29  C   UNL     1      -0.466  -0.551   1.136  0.00  0.00    +0.086 C 
ATOM     30  N   UNL     1       0.227  -0.036  -0.053  0.00  0.00    -0.331 N 
ATOM     31  C   UNL     1      -0.385  -0.558  -1.283  0.00  0.00    +0.086 C 
ATOM     32  C   UNL     1      -0.315  -2.087  -1.276  0.00  0.00    -0.060 C 
ATOM     33  N   UNL     1      -1.034  -2.591  -0.088  0.00  0.00    +0.382 N 
ATOM     34  H   UNL     1      -2.006  -2.262  -0.121  0.00  0.00    -0.082 HD
BRANCH  30  35
ATOM     35  C   UNL     1       0.246   1.362  -0.056  0.00  0.00    +0.065 A 
ATOM     36  C   UNL     1      -0.946   2.074  -0.064  0.00  0.00    +0.026 A 
ATOM     37  C   UNL     1      -0.924   3.455  -0.063  0.00  0.00    +0.002 A 
ATOM     38  C   UNL     1       0.283   4.130  -0.064  0.00  0.00    +0.003 A 
ATOM     39  C   UNL     1       1.473   3.426  -0.061  0.00  0.00    +0.040 A 
ATOM     40  C   UNL     1       1.459   2.043  -0.057  0.00  0.00    +0.144 A 
ATOM     41  F   UNL     1       2.621   1.355  -0.055  0.00  0.00    -0.204 F 
ENDBRANCH  30  35
ENDBRANCH  27  33
ENDBRANCH  26  27
ENDBRANCH  25  26
ENDBRANCH   3  25
TORSDOF 10
