REMARK  Name = ZINC34732864
REMARK  6 active torsions:
REMARK  status: ('A' for Active; 'I' for Inactive)
REMARK    1  A    between atoms: C_1  and  C_2
REMARK    2  A    between atoms: C_2  and  N_3
REMARK    3  A    between atoms: C_8  and  C_29
REMARK    4  A    between atoms: C_11  and  C_14
REMARK    5  A    between atoms: N_19  and  C_22
REMARK    6  A    between atoms: C_33  and  C_35
REMARK                            x       y       z     vdW  Elec       q    Type
REMARK                         _______ _______ _______ _____ _____    ______ ____
ROOT
ATOM      1  N   UNL     1      -0.564  -2.701  -0.006  0.00  0.00    -0.300 N 
ATOM      2  C   UNL     1      -1.600  -1.839   0.009  0.00  0.00    +0.302 C 
ATOM      3  O   UNL     1      -1.396  -0.645   0.105  0.00  0.00    -0.253 OA
ATOM      4  N   UNL     1      -2.863  -2.302  -0.084  0.00  0.00    -0.284 N 
ATOM      5  C   UNL     1      -3.133  -3.746  -0.085  0.00  0.00    +0.117 C 
ATOM      6  C   UNL     1      -4.158  -4.057   1.010  0.00  0.00    +0.037 C 
ATOM      7  C   UNL     1      -5.399  -3.185   0.804  0.00  0.00    +0.024 C 
ATOM      8  C   UNL     1      -5.011  -1.709   0.910  0.00  0.00    +0.093 C 
ATOM      9  C   UNL     1      -3.996  -1.371  -0.180  0.00  0.00    +0.122 C 
ATOM     10  H   UNL     1      -0.729  -3.657  -0.010  0.00  0.00    +0.150 HD
ENDROOT
BRANCH   8  11
ATOM     11  C   UNL     1      -6.239  -0.852   0.740  0.00  0.00    +0.220 C 
ATOM     12  O   UNL     1      -7.194  -1.277   0.125  0.00  0.00    -0.275 OA
ATOM     13  N   UNL     1      -6.276   0.386   1.271  0.00  0.00    -0.298 N 
ATOM     14  C   UNL     1      -5.170   0.875   2.105  0.00  0.00    +0.126 C 
ATOM     15  C   UNL     1      -4.655   2.193   1.512  0.00  0.00    +0.124 C 
ATOM     16  N   UNL     1      -5.802   3.078   1.267  0.00  0.00    -0.325 N 
ATOM     17  C   UNL     1      -6.909   2.588   0.433  0.00  0.00    +0.124 C 
ATOM     18  C   UNL     1      -7.421   1.273   1.022  0.00  0.00    +0.126 C 
BRANCH  16  19
ATOM     19  C   UNL     1      -5.841   4.362   1.818  0.00  0.00    +0.065 A 
ATOM     20  C   UNL     1      -5.320   5.438   1.112  0.00  0.00    +0.026 A 
ATOM     21  C   UNL     1      -5.360   6.707   1.658  0.00  0.00    +0.002 A 
ATOM     22  C   UNL     1      -5.917   6.906   2.908  0.00  0.00    +0.003 A 
ATOM     23  C   UNL     1      -6.436   5.838   3.616  0.00  0.00    +0.040 A 
ATOM     24  C   UNL     1      -6.406   4.566   3.072  0.00  0.00    +0.144 A 
ATOM     25  F   UNL     1      -6.918   3.523   3.761  0.00  0.00    -0.204 F 
ENDBRANCH  16  19
ENDBRANCH   8  11
BRANCH   6  26
ATOM     26  C   UNL     1      -4.546  -5.511   0.938  0.00  0.00    -0.043 A 
ATOM     27  C   UNL     1      -5.119  -6.017  -0.215  0.00  0.00    +0.004 A 
ATOM     28  C   UNL     1      -5.475  -7.351  -0.281  0.00  0.00    +0.001 A 
ATOM     29  C   UNL     1      -5.258  -8.179   0.804  0.00  0.00    +0.003 A 
ATOM     30  C   UNL     1      -4.686  -7.674   1.956  0.00  0.00    -0.050 A 
ATOM     31  C   UNL     1      -4.325  -6.340   2.021  0.00  0.00    +0.007 A 
ATOM     32  C   UNL     1      -4.450  -8.576   3.140  0.00  0.00    +0.044 C 
ENDBRANCH   6  26
BRANCH   1  34
ATOM     33  C   UNL     1       1.788  -3.371  -0.032  0.00  0.00    +0.024 C 
ATOM     34  C   UNL     1       0.810  -2.194  -0.016  0.00  0.00    +0.102 C 
ENDBRANCH   1  34
TORSDOF 4
