REMARK  Name = ZINC04212603
REMARK  12 active torsions:
REMARK  status: ('A' for Active; 'I' for Inactive)
REMARK    1  A    between atoms: C_1  and  C_2
REMARK    2  A    between atoms: C_18  and  C_39
REMARK    3  A    between atoms: C_20  and  O_37
REMARK    4  A    between atoms: C_23  and  C_36
REMARK    5  A    between atoms: C_24  and  C_26
REMARK    6  A    between atoms: C_26  and  C_28
REMARK    7  A    between atoms: C_28  and  O_29
REMARK    8  A    between atoms: O_29  and  C_30
REMARK    9  A    between atoms: C_30  and  C_32
REMARK   10  A    between atoms: C_32  and  C_33
REMARK   11  A    between atoms: C_32  and  C_34
REMARK   12  A    between atoms: C_32  and  C_35
REMARK                            x       y       z     vdW  Elec       q    Type
REMARK                         _______ _______ _______ _____ _____    ______ ____
ROOT
ATOM      1  C   UNL     1       1.247   1.040   1.075  0.00  0.00    +0.008 C 
ATOM      2  C   UNL     1       0.987  -0.446   0.821  0.00  0.00    -0.003 C 
ATOM      3  C   UNL     1      -0.388  -0.636   0.125  0.00  0.00    +0.008 C 
ATOM      4  C   UNL     1      -1.330  -0.926   1.299  0.00  0.00    +0.001 C 
ATOM      5  C   UNL     1      -2.616  -1.652   0.951  0.00  0.00    +0.020 C 
ATOM      6  C   UNL     1      -3.463  -0.787   0.015  0.00  0.00    +0.047 C 
ATOM      7  C   UNL     1      -4.742  -1.540  -0.366  0.00  0.00    +0.193 C 
ATOM      8  C   UNL     1      -5.452  -1.943   0.913  0.00  0.00    -0.021 C 
ATOM      9  C   UNL     1      -6.734  -1.638   1.060  0.00  0.00    +0.054 C 
ATOM     10  C   UNL     1      -7.450  -1.994   2.294  0.00  0.00    +0.179 C 
ATOM     11  O   UNL     1      -8.636  -1.752   2.417  0.00  0.00    -0.288 OA
ATOM     12  C   UNL     1      -6.700  -2.652   3.377  0.00  0.00    +0.047 C 
ATOM     13  C   UNL     1      -5.422  -2.952   3.206  0.00  0.00    -0.010 C 
ATOM     14  C   UNL     1      -4.660  -2.675   1.956  0.00  0.00    +0.032 C 
ATOM     15  C   UNL     1      -3.369  -1.913   2.265  0.00  0.00    +0.087 C 
ATOM     16  C   UNL     1      -2.518  -2.704   3.255  0.00  0.00    +0.137 C 
ATOM     17  C   UNL     1      -1.160  -2.028   3.503  0.00  0.00    +0.040 C 
ATOM     18  C   UNL     1      -0.466  -1.879   2.168  0.00  0.00    -0.017 C 
ATOM     19  C   UNL     1       0.906  -1.209   2.167  0.00  0.00    +0.068 C 
ATOM     20  C   UNL     1      -0.375  -3.252   1.498  0.00  0.00    +0.012 C 
ATOM     21 CL   UNL     1      -3.806  -0.336   3.022  0.00  0.00    -0.114 Cl
ATOM     22  C   UNL     1      -4.232  -4.018   1.361  0.00  0.00    +0.022 C 
ATOM     23  F   UNL     1      -5.572  -0.707  -1.125  0.00  0.00    -0.241 F 
ENDROOT
BRANCH  19  24
ATOM     24  C   UNL     1       1.996  -2.247   2.246  0.00  0.00    +0.174 C 
ATOM     25  O   UNL     1       2.484  -2.687   1.233  0.00  0.00    -0.293 OA
BRANCH  24  26
ATOM     26  C   UNL     1       2.476  -2.735   3.588  0.00  0.00    +0.306 C 
BRANCH  26  27
ATOM     27  O   UNL     1       3.505  -3.708   3.401  0.00  0.00    -0.457 OA
BRANCH  27  28
ATOM     28  C   UNL     1       4.043  -4.246   4.507  0.00  0.00    +0.313 C 
ATOM     29  O   UNL     1       3.654  -3.902   5.598  0.00  0.00    -0.250 OA
BRANCH  28  30
ATOM     30  C   UNL     1       5.134  -5.280   4.388  0.00  0.00    +0.059 C 
ATOM     31  C   UNL     1       5.569  -5.726   5.785  0.00  0.00    +0.022 C 
ATOM     32  C   UNL     1       4.609  -6.487   3.607  0.00  0.00    +0.022 C 
ATOM     33  C   UNL     1       6.330  -4.676   3.650  0.00  0.00    +0.022 C 
ENDBRANCH  28  30
ENDBRANCH  27  28
ENDBRANCH  26  27
ENDBRANCH  24  26
ENDBRANCH  19  24
BRANCH  16  34
ATOM     34  O   UNL     1      -2.296  -4.016   2.734  0.00  0.00    -0.390 OA
ATOM     35  H   UNL     1      -1.762  -4.582   3.307  0.00  0.00    +0.210 HD
ENDBRANCH  16  34
TORSDOF 6
