REMARK  Name = ZINC38671165
REMARK  11 active torsions:
REMARK  status: ('A' for Active; 'I' for Inactive)
REMARK    1  A    between atoms: C_1  and  C_2
REMARK    2  A    between atoms: C_4  and  C_34
REMARK    3  A    between atoms: C_5  and  C_33
REMARK    4  A    between atoms: C_6  and  S_9
REMARK    5  A    between atoms: C_7  and  C_8
REMARK    6  A    between atoms: S_9  and  N_12
REMARK    7  A    between atoms: N_12  and  C_13
REMARK    8  A    between atoms: C_13  and  C_14
REMARK    9  A    between atoms: C_14  and  C_16
REMARK   10  A    between atoms: C_14  and  N_27
REMARK   11  A    between atoms: N_25  and  C_26
REMARK                            x       y       z     vdW  Elec       q    Type
REMARK                         _______ _______ _______ _____ _____    ______ ____
ROOT
ATOM      1  C   UNL     1       3.299  -2.966   3.895  0.00  0.00    -0.022 C 
ENDROOT
BRANCH   1   2
ATOM      2  C   UNL     1       4.283  -1.893   4.283  0.00  0.00    -0.059 A 
ATOM      3  C   UNL     1       4.125  -1.211   5.476  0.00  0.00    +0.004 A 
ATOM      4  C   UNL     1       5.027  -0.228   5.831  0.00  0.00    +0.023 A 
ATOM      5  C   UNL     1       6.092   0.076   4.991  0.00  0.00    +0.033 A 
ATOM      6  C   UNL     1       6.252  -0.610   3.797  0.00  0.00    -0.026 A 
ATOM      7  C   UNL     1       5.344  -1.597   3.450  0.00  0.00    +0.007 A 
ATOM      8  C   UNL     1       7.399  -0.316   2.867  0.00  0.00    +0.038 C 
ATOM      9  C   UNL     1       7.971   1.074   3.146  0.00  0.00    +0.024 C 
ATOM     10  C   UNL     1       8.267   1.197   4.646  0.00  0.00    +0.105 C 
ATOM     11  N   UNL     1       6.992   1.079   5.367  0.00  0.00    -0.333 N 
ATOM     12  C   UNL     1       6.667   1.998   6.461  0.00  0.00    +0.129 C 
ENDBRANCH   1   2
BRANCH   1  13
ATOM     13  N   UNL     1       2.935  -3.750   5.082  0.00  0.00    +0.385 N 
ATOM     14  C   UNL     1       4.147  -4.327   5.676  0.00  0.00    -0.078 C 
ATOM     15  C   UNL     1       3.784  -5.078   6.959  0.00  0.00    -0.019 C 
ATOM     16  C   UNL     1       2.794  -6.198   6.625  0.00  0.00    -0.004 C 
ATOM     17  C   UNL     1       1.566  -5.593   5.939  0.00  0.00    -0.019 C 
ATOM     18  C   UNL     1       2.011  -4.823   4.694  0.00  0.00    -0.078 C 
ATOM     19  H   UNL     1       2.486  -3.149   5.757  0.00  0.00    -0.081 HD
ENDBRANCH   1  13
BRANCH   1  20
ATOM     20  C   UNL     1       2.043  -2.317   3.308  0.00  0.00    +0.095 C 
BRANCH  20  21
ATOM     21  N   UNL     1       2.393  -1.598   2.081  0.00  0.00    -0.191 NA
ATOM     22  H   UNL     1       3.324  -1.423   1.870  0.00  0.00    +0.148 HD
BRANCH  21  23
ATOM     23  S   UNL     1       1.201  -1.083   1.054  0.00  0.00    +0.059 S 
ATOM     24  O   UNL     1       0.341  -2.194   0.841  0.00  0.00    -0.153 OA
ATOM     25  O   UNL     1       1.849  -0.406  -0.014  0.00  0.00    -0.153 OA
BRANCH  23  31
ATOM     26  C   UNL     1       0.304   3.854   2.516  0.00  0.00    +0.044 C 
ATOM     27  C   UNL     1      -0.108   2.405   2.558  0.00  0.00    -0.045 A 
ATOM     28  C   UNL     1      -1.227   2.026   3.275  0.00  0.00    +0.007 A 
ATOM     29  C   UNL     1      -1.605   0.696   3.313  0.00  0.00    -0.045 A 
ATOM     30  C   UNL     1      -0.863  -0.253   2.635  0.00  0.00    -0.021 A 
ATOM     31  C   UNL     1       0.255   0.127   1.918  0.00  0.00    +0.112 A 
ATOM     32  C   UNL     1       0.631   1.457   1.875  0.00  0.00    -0.021 A 
ATOM     33  C   UNL     1       1.847   1.872   1.089  0.00  0.00    +0.046 C 
ATOM     34  C   UNL     1      -1.275  -1.702   2.678  0.00  0.00    +0.046 C 
ATOM     35  C   UNL     1      -2.825   0.282   4.096  0.00  0.00    +0.044 C 
ENDBRANCH  23  31
ENDBRANCH  21  23
ENDBRANCH  20  21
ENDBRANCH   1  20
TORSDOF 6
