REMARK  Name = ZINC04663831
REMARK  4 active torsions:
REMARK  status: ('A' for Active; 'I' for Inactive)
REMARK    1  A    between atoms: C_1  and  C_2
REMARK    2  A    between atoms: C_2  and  O_3
REMARK    3  A    between atoms: O_3  and  C_4
REMARK    4  A    between atoms: C_7  and  C_10
REMARK                            x       y       z     vdW  Elec       q    Type
REMARK                         _______ _______ _______ _____ _____    ______ ____
ROOT
ATOM      1  C   UNL     1      -2.608   1.606   0.045  0.00  0.00    +0.089 C 
ATOM      2  C   UNL     1      -3.493   2.789  -0.282  0.00  0.00    +0.024 C 
ATOM      3  C   UNL     1      -3.033   4.056  -0.267  0.00  0.00    +0.016 C 
ATOM      4  C   UNL     1      -3.953   5.215  -0.577  0.00  0.00    +0.051 C 
ATOM      5  C   UNL     1      -5.018   4.772  -1.582  0.00  0.00    +0.014 C 
ATOM      6  C   UNL     1      -5.799   3.603  -0.972  0.00  0.00    +0.080 C 
ATOM      7  C   UNL     1      -4.835   2.509  -0.610  0.00  0.00    +0.162 C 
ATOM      8  O   UNL     1      -5.221   1.357  -0.599  0.00  0.00    -0.292 OA
ATOM      9  N   UNL     1      -1.726   4.359   0.030  0.00  0.00    -0.317 N 
ATOM     10  C   UNL     1      -0.790   3.352   0.022  0.00  0.00    +0.047 C 
ATOM     11  C   UNL     1      -1.165   2.032   0.018  0.00  0.00    +0.033 C 
ATOM     12  C   UNL     1      -0.014   1.212   0.009  0.00  0.00    +0.193 C 
ATOM     13  O   UNL     1       0.002  -0.004   0.002  0.00  0.00    -0.287 OA
ATOM     14  C   UNL     1       1.166   2.103   0.002  0.00  0.00    +0.031 A 
ATOM     15  C   UNL     1       0.673   3.433   0.010  0.00  0.00    +0.007 A 
ATOM     16  C   UNL     1       1.541   4.514   0.007  0.00  0.00    +0.010 A 
ATOM     17  C   UNL     1       2.909   4.228  -0.004  0.00  0.00    +0.001 A 
ATOM     18  C   UNL     1       3.384   2.938  -0.012  0.00  0.00    +0.001 A 
ATOM     19  C   UNL     1       2.522   1.836  -0.009  0.00  0.00    +0.012 A 
ATOM     20  H   UNL     1      -1.442   5.395   0.268  0.00  0.00    +0.152 HD
ENDROOT
BRANCH   1  24
ATOM     21  C   UNL     1      -3.596   0.120   3.928  0.00  0.00    +0.121 A 
ATOM     22  C   UNL     1      -3.715  -0.704   2.818  0.00  0.00    +0.046 A 
ATOM     23  C   UNL     1      -3.395  -0.221   1.564  0.00  0.00    +0.008 A 
ATOM     24  C   UNL     1      -2.957   1.082   1.414  0.00  0.00    -0.035 A 
ATOM     25  C   UNL     1      -2.832   1.903   2.520  0.00  0.00    +0.008 A 
ATOM     26  C   UNL     1      -3.157   1.427   3.775  0.00  0.00    +0.046 A 
BRANCH  21  27
ATOM     27  O   UNL     1      -3.910  -0.353   5.163  0.00  0.00    -0.492 OA
BRANCH  27  29
ATOM     28  C   UNL     1      -4.160  -0.154   7.559  0.00  0.00    +0.048 C 
ATOM     29  C   UNL     1      -3.764   0.551   6.260  0.00  0.00    +0.225 C 
ENDBRANCH  27  29
ENDBRANCH  21  27
ENDBRANCH   1  24
TORSDOF 3
