REMARK  Name = ZINC28948973
REMARK  10 active torsions:
REMARK  status: ('A' for Active; 'I' for Inactive)
REMARK    1  A    between atoms: C_1  and  O_2
REMARK    2  A    between atoms: O_2  and  C_3
REMARK    3  A    between atoms: C_4  and  N_28
REMARK    4  A    between atoms: C_6  and  C_9
REMARK    5  A    between atoms: C_10  and  C_11
REMARK    6  A    between atoms: C_13  and  C_17
REMARK    7  A    between atoms: C_18  and  C_19
REMARK    8  A    between atoms: C_21  and  N_27
REMARK    9  A    between atoms: C_22  and  O_25
REMARK   10  A    between atoms: O_25  and  C_26
REMARK                            x       y       z     vdW  Elec       q    Type
REMARK                         _______ _______ _______ _____ _____    ______ ____
ROOT
ATOM      1  C   UNL     1      -7.402  -2.573   0.052  0.00  0.00    +0.065 A 
ATOM      2  N   UNL     1      -7.451  -3.901   0.056  0.00  0.00    -0.248 NA
ATOM      3  C   UNL     1      -8.609  -4.551   0.064  0.00  0.00    +0.065 A 
ATOM      4  C   UNL     1      -9.819  -3.851   0.068  0.00  0.00    +0.028 A 
ATOM      5  C   UNL     1      -9.802  -2.466   0.064  0.00  0.00    +0.004 A 
ATOM      6  C   UNL     1      -8.578  -1.817   0.062  0.00  0.00    +0.028 A 
ENDROOT
BRANCH   1   8
ATOM      7  C   UNL     1      -4.963  -2.612   0.035  0.00  0.00    +0.010 C 
ATOM      8  C   UNL     1      -6.097  -1.892   0.044  0.00  0.00    +0.028 C 
BRANCH   7  12
ATOM      9  C   UNL     1      -1.201  -0.638   0.010  0.00  0.00    +0.141 A 
ATOM     10  C   UNL     1      -1.253  -2.032   0.009  0.00  0.00    +0.067 A 
ATOM     11  C   UNL     1      -2.476  -2.678   0.017  0.00  0.00    +0.034 A 
ATOM     12  C   UNL     1      -3.657  -1.930   0.027  0.00  0.00    -0.023 A 
ATOM     13  C   UNL     1      -3.596  -0.534   0.028  0.00  0.00    +0.011 A 
ATOM     14  C   UNL     1      -2.373   0.103   0.025  0.00  0.00    +0.048 A 
BRANCH  10  15
ATOM     15  N   UNL     1      -0.068  -2.777  -0.001  0.00  0.00    -0.355 N 
ATOM     16  H   UNL     1       0.790  -2.324  -0.007  0.00  0.00    +0.142 HD
ATOM     17  H   UNL     1      -0.104  -3.746  -0.002  0.00  0.00    +0.142 HD
ENDBRANCH  10  15
BRANCH   9  19
ATOM     18  C   UNL     1      -0.017   1.425   0.010  0.00  0.00    +0.277 C 
ATOM     19  O   UNL     1       0.002  -0.004   0.002  0.00  0.00    -0.493 OA
ENDBRANCH   9  19
ENDBRANCH   7  12
ENDBRANCH   1   8
BRANCH   3  20
ATOM     20  C   UNL     1      -8.619  -6.024   0.068  0.00  0.00    +0.028 C 
ATOM     21  C   UNL     1      -7.460  -6.704   0.064  0.00  0.00    +0.010 C 
BRANCH  21  22
ATOM     22  C   UNL     1      -7.470  -8.176   0.068  0.00  0.00    -0.023 A 
ATOM     23  C   UNL     1      -6.264  -8.885   0.070  0.00  0.00    +0.034 A 
ATOM     24  C   UNL     1      -6.280 -10.268   0.074  0.00  0.00    +0.067 A 
ATOM     25  C   UNL     1      -7.496 -10.952   0.077  0.00  0.00    +0.141 A 
ATOM     26  C   UNL     1      -8.691 -10.248   0.075  0.00  0.00    +0.048 A 
ATOM     27  C   UNL     1      -8.684  -8.869   0.076  0.00  0.00    +0.011 A 
BRANCH  24  28
ATOM     28  N   UNL     1      -5.076 -10.982   0.075  0.00  0.00    -0.355 N 
ATOM     29  H   UNL     1      -4.230 -10.507   0.072  0.00  0.00    +0.142 HD
ATOM     30  H   UNL     1      -5.087 -11.952   0.078  0.00  0.00    +0.142 HD
ENDBRANCH  24  28
BRANCH  25  31
ATOM     31  O   UNL     1      -7.510 -12.311   0.081  0.00  0.00    -0.493 OA
ATOM     32  C   UNL     1      -8.790 -12.947   0.084  0.00  0.00    +0.277 C 
ENDBRANCH  25  31
ENDBRANCH  21  22
ENDBRANCH   3  20
TORSDOF 8
