REMARK  Name = ZINC17367966
REMARK  6 active torsions:
REMARK  status: ('A' for Active; 'I' for Inactive)
REMARK    1  A    between atoms: C_1  and  C_2
REMARK    2  A    between atoms: C_2  and  C_4
REMARK    3  A    between atoms: C_2  and  N_14
REMARK    4  A    between atoms: C_15  and  C_17
REMARK    5  A    between atoms: C_17  and  C_18
REMARK    6  A    between atoms: C_21  and  C_23
REMARK                            x       y       z     vdW  Elec       q    Type
REMARK                         _______ _______ _______ _____ _____    ______ ____
ROOT
ATOM      1  N   UNL     1      -0.301   1.206  -2.465  0.00  0.00    -0.308 N 
ATOM      2  C   UNL     1      -0.767   1.448  -1.224  0.00  0.00    +0.219 C 
ATOM      3  O   UNL     1      -1.763   2.124  -1.072  0.00  0.00    -0.275 OA
ATOM      4  H   UNL     1       0.496   0.666  -2.587  0.00  0.00    +0.149 HD
ENDROOT
BRANCH   1   6
ATOM      5  C   UNL     1      -2.101   0.794  -4.068  0.00  0.00    +0.033 C 
ATOM      6  C   UNL     1      -0.997   1.758  -3.630  0.00  0.00    +0.101 C 
BRANCH   6   7
ATOM      7  C   UNL     1      -0.017   1.945  -4.759  0.00  0.00    -0.020 A 
ATOM      8  C   UNL     1       1.094   1.161  -4.838  0.00  0.00    +0.006 A 
ATOM      9  C   UNL     1       2.011   1.319  -5.874  0.00  0.00    +0.001 A 
ATOM     10  C   UNL     1       1.824   2.261  -6.838  0.00  0.00    +0.008 A 
ATOM     11  C   UNL     1       0.690   3.089  -6.791  0.00  0.00    -0.018 A 
ATOM     12  C   UNL     1      -0.246   2.925  -5.739  0.00  0.00    -0.013 A 
ATOM     13  C   UNL     1      -1.384   3.749  -5.694  0.00  0.00    +0.009 A 
ATOM     14  C   UNL     1      -1.574   4.687  -6.661  0.00  0.00    +0.001 A 
ATOM     15  C   UNL     1      -0.656   4.846  -7.698  0.00  0.00    +0.001 A 
ATOM     16  C   UNL     1       0.462   4.073  -7.768  0.00  0.00    +0.008 A 
ENDBRANCH   6   7
ENDBRANCH   1   6
BRANCH   2  17
ATOM     17  C   UNL     1      -0.051   0.881  -0.025  0.00  0.00    +0.151 C 
BRANCH  17  18
ATOM     18  C   UNL     1      -0.770   1.296   1.232  0.00  0.00    +0.058 A 
ATOM     19  C   UNL     1      -1.186   0.355   2.120  0.00  0.00    +0.071 A 
ATOM     20  S   UNL     1      -1.944   1.389   3.367  0.00  0.00    -0.075 S 
ATOM     21  C   UNL     1      -1.626   2.959   2.572  0.00  0.00    +0.115 A 
ATOM     22  N   UNL     1      -0.990   2.568   1.474  0.00  0.00    -0.243 NA
BRANCH  21  23
ATOM     23  C   UNL     1      -1.972   4.318   3.018  0.00  0.00    +0.044 A 
ATOM     24  C   UNL     1      -2.630   4.714   4.155  0.00  0.00    +0.018 A 
ATOM     25  C   UNL     1      -2.838   6.059   4.363  0.00  0.00    +0.008 A 
ATOM     26  C   UNL     1      -2.397   6.949   3.436  0.00  0.00    +0.046 A 
ATOM     27  S   UNL     1      -1.651   5.880   2.216  0.00  0.00    -0.095 S 
ENDBRANCH  21  23
ENDBRANCH  17  18
ENDBRANCH   2  17
TORSDOF 5
