REMARK  Name = ZINC08793461
REMARK  9 active torsions:
REMARK  status: ('A' for Active; 'I' for Inactive)
REMARK    1  A    between atoms: C_1  and  C_2
REMARK    2  A    between atoms: C_7  and  C_8
REMARK    3  A    between atoms: C_7  and  C_9
REMARK    4  A    between atoms: C_10  and  S_14
REMARK    5  A    between atoms: S_14  and  C_15
REMARK    6  A    between atoms: C_18  and  C_26
REMARK    7  A    between atoms: N_19  and  C_20
REMARK    8  A    between atoms: C_26  and  N_27
REMARK    9  A    between atoms: C_28  and  C_30
REMARK                            x       y       z     vdW  Elec       q    Type
REMARK                         _______ _______ _______ _____ _____    ______ ____
ROOT
ATOM      1  C   UNL     1      -3.422  -2.953   1.808  0.00  0.00    +0.197 A 
ATOM      2  N   UNL     1      -3.949  -2.909   0.605  0.00  0.00    -0.122 NA
ATOM      3  N   UNL     1      -5.209  -3.152   0.670  0.00  0.00    -0.132 NA
ATOM      4  C   UNL     1      -5.563  -3.363   1.906  0.00  0.00    +0.156 A 
ATOM      5  N   UNL     1      -4.436  -3.250   2.677  0.00  0.00    -0.273 N 
ENDROOT
BRANCH   5   6
ATOM      6  C   UNL     1      -4.342  -3.404   4.068  0.00  0.00    +0.050 A 
ATOM      7  C   UNL     1      -4.588  -4.640   4.649  0.00  0.00    +0.026 A 
ATOM      8  C   UNL     1      -4.494  -4.789   6.019  0.00  0.00    +0.002 A 
ATOM      9  C   UNL     1      -4.155  -3.708   6.811  0.00  0.00    +0.000 A 
ATOM     10  C   UNL     1      -3.909  -2.475   6.235  0.00  0.00    +0.002 A 
ATOM     11  C   UNL     1      -3.996  -2.322   4.865  0.00  0.00    +0.026 A 
ENDBRANCH   5   6
BRANCH   1  12
ATOM     12  S   UNL     1      -1.731  -2.686   2.221  0.00  0.00    -0.074 S 
BRANCH  12  21
ATOM     13  C   UNL     1      -0.247   1.383  -0.077  0.00  0.00    +0.019 C 
ATOM     14  C   UNL     1      -0.082  -0.136  -0.012  0.00  0.00    +0.033 C 
ATOM     15  C   UNL     1       0.699  -0.786  -1.195  0.00  0.00    +0.015 C 
ATOM     16  C   UNL     1       1.161  -2.157  -0.650  0.00  0.00    +0.006 C 
ATOM     17  C   UNL     1       0.606  -2.204   0.807  0.00  0.00    +0.016 C 
ATOM     18  C   UNL     1       0.727  -0.692   1.212  0.00  0.00    -0.019 C 
ATOM     19  C   UNL     1       0.034  -0.396   2.543  0.00  0.00    +0.012 C 
ATOM     20  C   UNL     1       2.180  -0.211   1.207  0.00  0.00    +0.012 C 
ATOM     21  C   UNL     1      -0.938  -2.341   0.627  0.00  0.00    +0.124 C 
ATOM     22  C   UNL     1      -1.381  -0.946   0.108  0.00  0.00    +0.153 C 
ATOM     23  O   UNL     1      -2.499  -0.582  -0.164  0.00  0.00    -0.296 OA
ENDBRANCH  12  21
ENDBRANCH   1  12
BRANCH   4  24
ATOM     24  C   UNL     1      -6.952  -3.679   2.396  0.00  0.00    +0.181 C 
BRANCH  24  25
ATOM     25  N   UNL     1      -7.152  -5.130   2.397  0.00  0.00    -0.308 N 
ATOM     26  C   UNL     1      -8.329  -5.649   2.799  0.00  0.00    +0.220 C 
ATOM     27  O   UNL     1      -9.223  -4.914   3.161  0.00  0.00    -0.275 OA
ATOM     28  H   UNL     1      -6.436  -5.718   2.107  0.00  0.00    +0.149 HD
BRANCH  26  29
ATOM     29  C   UNL     1      -8.534  -7.142   2.800  0.00  0.00    +0.048 C 
ATOM     30  C   UNL     1      -7.506  -7.798   3.724  0.00  0.00    +0.019 C 
ATOM     31  C   UNL     1      -7.714  -9.313   3.724  0.00  0.00    -0.009 C 
ATOM     32  C   UNL     1      -9.124  -9.634   4.222  0.00  0.00    +0.007 C 
ATOM     33  C   UNL     1     -10.153  -8.979   3.298  0.00  0.00    -0.009 C 
ATOM     34  C   UNL     1      -9.944  -7.463   3.297  0.00  0.00    +0.019 C 
ATOM     35  C   UNL     1      -9.978  -9.518   1.877  0.00  0.00    +0.007 C 
ATOM     36  C   UNL     1      -8.567  -9.197   1.379  0.00  0.00    -0.009 C 
ATOM     37  C   UNL     1      -7.539  -9.853   2.303  0.00  0.00    +0.007 C 
ATOM     38  C   UNL     1      -8.359  -7.681   1.379  0.00  0.00    +0.019 C 
ENDBRANCH  26  29
ENDBRANCH  24  25
ENDBRANCH   4  24
TORSDOF 6
