REMARK  Name = ZINC28467488
REMARK  6 active torsions:
REMARK  status: ('A' for Active; 'I' for Inactive)
REMARK    1  A    between atoms: C_1  and  C_2
REMARK    2  A    between atoms: C_3  and  C_26
REMARK    3  A    between atoms: C_4  and  C_21
REMARK    4  A    between atoms: C_10  and  C_11
REMARK    5  A    between atoms: C_26  and  O_28
REMARK    6  A    between atoms: O_28  and  C_29
REMARK                            x       y       z     vdW  Elec       q    Type
REMARK                         _______ _______ _______ _____ _____    ______ ____
ROOT
ATOM      1  C   UNL     1       4.060   0.185   0.868  0.00  0.00    +0.066 C 
ATOM      2  C   UNL     1       2.634   0.669   0.805  0.00  0.00    +0.053 C 
ATOM      3  C   UNL     1       1.609  -0.228   0.915  0.00  0.00    +0.085 C 
ATOM      4  C   UNL     1       0.193   0.298   0.847  0.00  0.00    +0.168 C 
ATOM      5  N   UNL     1       0.022   1.767   0.663  0.00  0.00    -0.274 N 
ATOM      6  C   UNL     1      -1.146   2.418   0.585  0.00  0.00    +0.268 A 
ATOM      7  O   UNL     1      -2.204   1.821   0.663  0.00  0.00    -0.266 OA
ATOM      8  C   UNL     1      -1.111   3.877   0.397  0.00  0.00    +0.081 A 
ATOM      9  C   UNL     1      -2.138   4.757   0.285  0.00  0.00    +0.028 C 
ATOM     10  S   UNL     1       0.650   4.176   0.362  0.00  0.00    -0.046 S 
ATOM     11  C   UNL     1       1.189   2.490   0.574  0.00  0.00    +0.178 A 
ATOM     12  N   UNL     1       2.385   1.963   0.643  0.00  0.00    -0.228 NA
ENDROOT
BRANCH   9  13
ATOM     13  C   UNL     1      -3.515   4.265   0.145  0.00  0.00    -0.024 A 
ATOM     14  C   UNL     1      -3.794   3.185  -0.700  0.00  0.00    +0.009 A 
ATOM     15  C   UNL     1      -5.088   2.725  -0.820  0.00  0.00    +0.016 A 
ATOM     16  C   UNL     1      -6.113   3.337  -0.117  0.00  0.00    +0.018 A 
ATOM     17  C   UNL     1      -5.845   4.411   0.717  0.00  0.00    +0.016 A 
ATOM     18  C   UNL     1      -4.556   4.878   0.853  0.00  0.00    +0.009 A 
ATOM     19 BR   UNL     1      -7.885   2.704  -0.295  0.00  0.00    -0.050 Br
ENDBRANCH   9  13
BRANCH   4  20
ATOM     20  C   UNL     1      -0.505  -0.397  -0.293  0.00  0.00    +0.017 A 
ATOM     21  C   UNL     1      -1.248  -1.530  -0.276  0.00  0.00    +0.013 A 
ATOM     22  C   UNL     1      -1.802  -1.987  -1.457  0.00  0.00    +0.008 A 
ATOM     23  C   UNL     1      -1.577  -1.294  -2.600  0.00  0.00    +0.045 A 
ATOM     24  S   UNL     1      -0.561   0.054  -2.020  0.00  0.00    -0.099 S 
ENDBRANCH   4  20
BRANCH   3  25
ATOM     25  C   UNL     1       1.863  -1.598   1.087  0.00  0.00    +0.339 C 
ATOM     26  O   UNL     1       3.001  -2.023   0.992  0.00  0.00    -0.245 OA
BRANCH  25  27
ATOM     27  O   UNL     1       0.846  -2.445   1.357  0.00  0.00    -0.465 OA
ATOM     28  C   UNL     1       1.177  -3.826   1.520  0.00  0.00    +0.280 C 
ENDBRANCH  25  27
ENDBRANCH   3  25
TORSDOF 4
