REMARK  Name = ZINC32860158
REMARK  7 active torsions:
REMARK  status: ('A' for Active; 'I' for Inactive)
REMARK    1  A    between atoms: C_1  and  C_2
REMARK    2  A    between atoms: C_15  and  C_17
REMARK    3  A    between atoms: C_17  and  N_18
REMARK    4  A    between atoms: N_18  and  C_19
REMARK    5  A    between atoms: N_18  and  C_20
REMARK    6  A    between atoms: C_20  and  C_21
REMARK    7  A    between atoms: N_23  and  C_24
REMARK                            x       y       z     vdW  Elec       q    Type
REMARK                         _______ _______ _______ _____ _____    ______ ____
ROOT
ATOM      1  N   UNL     1       0.050   4.539  -3.291  0.00  0.00    +0.389 N 
ATOM      2  C   UNL     1      -1.147   5.283  -2.877  0.00  0.00    -0.095 C 
ATOM      3  H   UNL     1       0.882   5.254  -3.370  0.00  0.00    -0.081 HD
ENDROOT
BRANCH   1   4
ATOM      4  C   UNL     1       0.416   3.531  -2.287  0.00  0.00    +0.019 C 
BRANCH   4  18
ATOM      5  C   UNL     1       0.506   4.070   2.312  0.00  0.00    +0.029 C 
ATOM      6  C   UNL     1       1.643   4.145   1.291  0.00  0.00    +0.087 C 
ATOM      7  C   UNL     1       2.880   3.446   1.857  0.00  0.00    +0.118 C 
ATOM      8  C   UNL     1       3.862   3.156   0.752  0.00  0.00    +0.219 C 
ATOM      9  O   UNL     1       4.859   3.838   0.637  0.00  0.00    -0.275 OA
ATOM     10  N   UNL     1       3.639   2.142  -0.111  0.00  0.00    -0.284 N 
ATOM     11  C   UNL     1       2.448   1.409  -0.053  0.00  0.00    +0.055 A 
ATOM     12  C   UNL     1       2.465   0.024  -0.056  0.00  0.00    +0.025 A 
ATOM     13  C   UNL     1       1.274  -0.679  -0.028  0.00  0.00    +0.002 A 
ATOM     14  C   UNL     1       0.067  -0.004  -0.003  0.00  0.00    +0.002 A 
ATOM     15  C   UNL     1       0.042   1.378   0.005  0.00  0.00    +0.025 A 
ATOM     16  C   UNL     1       1.230   2.090  -0.009  0.00  0.00    +0.058 A 
ATOM     17  N   UNL     1       1.226   3.489   0.050  0.00  0.00    -0.268 N 
ATOM     18  C   UNL     1       0.843   4.219  -1.016  0.00  0.00    +0.204 C 
ATOM     19  O   UNL     1       0.843   5.431  -0.953  0.00  0.00    -0.277 OA
ATOM     20  H   UNL     1       4.396   1.887  -0.867  0.00  0.00    +0.155 HD
ENDBRANCH   4  18
ENDBRANCH   1   4
BRANCH   1  21
ATOM     21  C   UNL     1      -0.143   3.922  -4.610  0.00  0.00    +0.019 C 
BRANCH  21  22
ATOM     22  C   UNL     1      -0.274   5.000  -5.654  0.00  0.00    +0.201 C 
ATOM     23  O   UNL     1      -0.212   6.168  -5.332  0.00  0.00    -0.278 OA
ATOM     24  N   UNL     1      -0.459   4.668  -6.947  0.00  0.00    -0.286 N 
ATOM     25  H   UNL     1      -0.442   3.610  -7.251  0.00  0.00    +0.155 HD
BRANCH  24  26
ATOM     26  C   UNL     1      -0.674   5.668  -7.904  0.00  0.00    +0.056 A 
ATOM     27  C   UNL     1      -0.037   6.895  -7.782  0.00  0.00    +0.074 A 
ATOM     28  C   UNL     1      -0.246   7.883  -8.731  0.00  0.00    +0.164 A 
ATOM     29  C   UNL     1      -1.101   7.646  -9.802  0.00  0.00    +0.164 A 
ATOM     30  C   UNL     1      -1.741   6.421  -9.919  0.00  0.00    +0.071 A 
ATOM     31  C   UNL     1      -1.530   5.435  -8.974  0.00  0.00    +0.066 A 
ATOM     32 CL   UNL     1      -2.333   3.903  -9.124  0.00  0.00    -0.082 Cl
ATOM     33  O   UNL     1      -1.319   8.605 -10.744  0.00  0.00    -0.485 OA
ATOM     34  C   UNL     1      -0.954   9.945 -10.396  0.00  0.00    +0.270 C 
ATOM     35  C   UNL     1       0.443   9.913  -9.761  0.00  0.00    +0.270 C 
ATOM     36  O   UNL     1       0.388   9.081  -8.597  0.00  0.00    -0.485 OA
ENDBRANCH  24  26
ENDBRANCH  21  22
ENDBRANCH   1  21
TORSDOF 5
