REMARK  Name = ZINC43224242
REMARK  11 active torsions:
REMARK  status: ('A' for Active; 'I' for Inactive)
REMARK    1  A    between atoms: C_1  and  C_2
REMARK    2  A    between atoms: C_3  and  C_28
REMARK    3  A    between atoms: C_5  and  C_15
REMARK    4  A    between atoms: N_6  and  C_7
REMARK    5  A    between atoms: C_7  and  C_9
REMARK    6  A    between atoms: C_7  and  C_10
REMARK    7  A    between atoms: C_10  and  C_11
REMARK    8  A    between atoms: C_11  and  C_12
REMARK    9  A    between atoms: C_12  and  C_13
REMARK   10  A    between atoms: C_12  and  C_14
REMARK   11  A    between atoms: C_17  and  C_20
REMARK                            x       y       z     vdW  Elec       q    Type
REMARK                         _______ _______ _______ _____ _____    ______ ____
ROOT
ATOM      1  C   UNL     1      -0.141   1.615   0.095  0.00  0.00    +0.064 C 
ATOM      2  C   UNL     1      -0.081   0.111   0.028  0.00  0.00    +0.029 A 
ATOM      3  C   UNL     1      -0.185  -0.651  -1.118  0.00  0.00    +0.058 A 
ATOM      4  C   UNL     1      -0.075  -2.008  -0.724  0.00  0.00    +0.044 A 
ATOM      5  C   UNL     1       0.089  -2.019   0.627  0.00  0.00    +0.089 A 
ATOM      6  N   UNL     1       0.089  -0.719   1.075  0.00  0.00    -0.338 N 
ENDROOT
BRANCH   5   7
ATOM      7  C   UNL     1       0.245  -3.219   1.465  0.00  0.00    +0.184 A 
ATOM      8  C   UNL     1       0.448  -4.489   1.018  0.00  0.00    +0.082 A 
ATOM      9  C   UNL     1       0.544  -5.335   2.142  0.00  0.00    +0.115 A 
ATOM     10  N   UNL     1       0.403  -4.597   3.219  0.00  0.00    -0.078 NA
ATOM     11  O   UNL     1       0.218  -3.254   2.812  0.00  0.00    -0.353 OA
BRANCH   9  12
ATOM     12  C   UNL     1       0.764  -6.802   2.113  0.00  0.00    +0.022 A 
ATOM     13  C   UNL     1       0.903  -7.465   0.895  0.00  0.00    +0.013 A 
ATOM     14  C   UNL     1       1.108  -8.829   0.873  0.00  0.00    +0.021 A 
ATOM     15  C   UNL     1       1.176  -9.541   2.059  0.00  0.00    +0.042 A 
ATOM     16  C   UNL     1       1.038  -8.889   3.272  0.00  0.00    +0.040 A 
ATOM     17  C   UNL     1       0.839  -7.522   3.305  0.00  0.00    +0.052 A 
ATOM     18 CL   UNL     1       0.675  -6.704   4.827  0.00  0.00    -0.083 Cl
ATOM     19 CL   UNL     1       1.434 -11.257   2.024  0.00  0.00    -0.083 Cl
ENDBRANCH   9  12
ENDBRANCH   5   7
BRANCH   3  20
ATOM     20  C   UNL     1      -0.375  -0.149  -2.490  0.00  0.00    +0.243 C 
ATOM     21  O   UNL     1      -0.454   1.047  -2.694  0.00  0.00    -0.270 OA
ATOM     22  N   UNL     1      -0.460  -1.016  -3.519  0.00  0.00    -0.325 N 
ATOM     23  H   UNL     1      -0.397  -1.970  -3.356  0.00  0.00    +0.145 HD
ATOM     24  H   UNL     1      -0.585  -0.686  -4.422  0.00  0.00    +0.145 HD
ENDBRANCH   3  20
BRANCH   6  25
ATOM     25  C   UNL     1       0.247  -0.302   2.470  0.00  0.00    +0.085 C 
ATOM     26  C   UNL     1      -1.058   0.325   2.966  0.00  0.00    +0.031 C 
BRANCH  25  27
ATOM     27  C   UNL     1       1.377   0.724   2.571  0.00  0.00    +0.025 C 
BRANCH  27  28
ATOM     28  C   UNL     1       1.642   1.047   4.043  0.00  0.00    +0.005 C 
BRANCH  28  29
ATOM     29  C   UNL     1       2.772   2.074   4.145  0.00  0.00    -0.017 C 
ATOM     30  C   UNL     1       2.321   3.393   3.516  0.00  0.00    +0.007 C 
ATOM     31  C   UNL     1       3.123   2.303   5.616  0.00  0.00    +0.007 C 
ENDBRANCH  28  29
ENDBRANCH  27  28
ENDBRANCH  25  27
ENDBRANCH   6  25
TORSDOF 7
