REMARK  Name = ZINC67355655
REMARK  7 active torsions:
REMARK  status: ('A' for Active; 'I' for Inactive)
REMARK    1  A    between atoms: C_1  and  C_2
REMARK    2  A    between atoms: C_2  and  C_4
REMARK    3  A    between atoms: C_2  and  N_13
REMARK    4  A    between atoms: C_8  and  N_10
REMARK    5  A    between atoms: N_16  and  C_17
REMARK    6  A    between atoms: C_21  and  S_23
REMARK    7  A    between atoms: S_23  and  C_24
REMARK                            x       y       z     vdW  Elec       q    Type
REMARK                         _______ _______ _______ _____ _____    ______ ____
ROOT
ATOM      1  N   UNL     1      -1.370  -0.517   0.012  0.00  0.00    -0.293 N 
ATOM      2  C   UNL     1      -2.051  -0.641  -1.144  0.00  0.00    +0.304 C 
ATOM      3  O   UNL     1      -1.526  -0.330  -2.196  0.00  0.00    -0.252 OA
ATOM      4  N   UNL     1      -3.315  -1.109  -1.135  0.00  0.00    -0.269 N 
ATOM      5  H   UNL     1      -1.790  -0.764   0.851  0.00  0.00    +0.151 HD
ATOM      6  H   UNL     1      -3.711  -1.420  -0.306  0.00  0.00    +0.156 HD
ENDROOT
BRANCH   4   7
ATOM      7  C   UNL     1      -4.056  -1.148  -2.322  0.00  0.00    +0.036 A 
ATOM      8  C   UNL     1      -5.423  -0.902  -2.296  0.00  0.00    +0.023 A 
ATOM      9  C   UNL     1      -6.156  -0.940  -3.467  0.00  0.00    +0.003 A 
ATOM     10  C   UNL     1      -5.532  -1.222  -4.667  0.00  0.00    +0.015 A 
ATOM     11  C   UNL     1      -4.164  -1.468  -4.700  0.00  0.00    +0.015 A 
ATOM     12  C   UNL     1      -3.425  -1.425  -3.525  0.00  0.00    +0.038 A 
BRANCH  11  13
ATOM     13  S   UNL     1      -3.369  -1.828  -6.230  0.00  0.00    -0.056 S 
BRANCH  13  14
ATOM     14  C   UNL     1      -4.712  -1.765  -7.448  0.00  0.00    +0.404 C 
ATOM     15  F   UNL     1      -5.683  -2.718  -7.122  0.00  0.00    -0.197 F 
ATOM     16  F   UNL     1      -5.289  -0.491  -7.441  0.00  0.00    -0.197 F 
ENDBRANCH  13  14
ENDBRANCH  11  13
ENDBRANCH   4   7
BRANCH   1  18
ATOM     17  C   UNL     1      -0.020   1.522   0.022  0.00  0.00    +0.033 C 
ATOM     18  C   UNL     1       0.003  -0.008   0.002  0.00  0.00    +0.102 C 
BRANCH  18  19
ATOM     19  C   UNL     1       0.736  -0.514   1.218  0.00  0.00    -0.025 A 
ATOM     20  C   UNL     1       0.088  -0.580   2.438  0.00  0.00    +0.005 A 
ATOM     21  C   UNL     1       0.760  -1.044   3.552  0.00  0.00    +0.003 A 
ATOM     22  C   UNL     1       2.079  -1.445   3.447  0.00  0.00    +0.033 A 
ATOM     23  C   UNL     1       2.726  -1.381   2.228  0.00  0.00    +0.127 A 
ATOM     24  C   UNL     1       2.053  -0.920   1.112  0.00  0.00    +0.038 A 
BRANCH  23  25
ATOM     25  N   UNL     1       4.138  -1.809   2.115  0.00  0.00    +0.056 N 
ATOM     26  O   UNL     1       4.726  -2.215   3.091  0.00  0.00    -0.126 OA
ATOM     27  O   UNL     1       4.704  -1.753   1.048  0.00  0.00    -0.126 OA
ENDBRANCH  23  25
ENDBRANCH  18  19
ENDBRANCH   1  18
TORSDOF 6
