REMARK  Name = ZINC37322192
REMARK  4 active torsions:
REMARK  status: ('A' for Active; 'I' for Inactive)
REMARK    1  A    between atoms: C_3  and  C_6
REMARK    2  A    between atoms: C_6  and  C_8
REMARK    3  A    between atoms: C_6  and  N_14
REMARK    4  A    between atoms: N_14  and  C_15
REMARK                            x       y       z     vdW  Elec       q    Type
REMARK                         _______ _______ _______ _____ _____    ______ ____
ROOT
ATOM      1  C   UNL     1       3.599   0.625  -0.029  0.00  0.00    +0.158 C 
ENDROOT
BRANCH   1   2
ATOM      2  C   UNL     1       4.109   0.359   1.363  0.00  0.00    +0.016 A 
ATOM      3  C   UNL     1       4.590   1.237   2.277  0.00  0.00    +0.015 A 
ATOM      4  C   UNL     1       5.008   0.762   3.507  0.00  0.00    +0.028 A 
ATOM      5  C   UNL     1       4.922  -0.567   3.762  0.00  0.00    +0.078 A 
ATOM      6  S   UNL     1       4.229  -1.191   2.240  0.00  0.00    -0.080 S 
ATOM      7 CL   UNL     1       5.366  -1.436   5.198  0.00  0.00    -0.076 Cl
ENDBRANCH   1   2
BRANCH   1  10
ATOM      8  C   UNL     1      -0.016   1.341   0.009  0.00  0.00    +0.041 A 
ATOM      9  C   UNL     1       1.331   1.769  -0.001  0.00  0.00    +0.046 A 
ATOM     10  C   UNL     1       2.092   0.660  -0.014  0.00  0.00    +0.127 A 
ATOM     11  O   UNL     1       1.282  -0.411  -0.012  0.00  0.00    -0.466 OA
ATOM     12  C   UNL     1       0.002  -0.004   0.002  0.00  0.00    +0.195 A 
ENDBRANCH   1  10
BRANCH   1  13
ATOM     13  N   UNL     1       4.055  -0.443  -0.930  0.00  0.00    -0.302 NA
ATOM     14  H   UNL     1       4.947  -0.809  -0.634  0.00  0.00    +0.123 HD
BRANCH  13  15
ATOM     15  C   UNL     1       4.115   0.031  -2.319  0.00  0.00    +0.039 C 
ATOM     16  C   UNL     1       2.752  -0.182  -3.029  0.00  0.00    -0.002 C 
ATOM     17  C   UNL     1       3.187  -0.293  -4.512  0.00  0.00    -0.077 C 
ATOM     18  N   UNL     1       4.462  -1.040  -4.476  0.00  0.00    +0.383 N 
ATOM     19  C   UNL     1       5.086  -0.835  -3.148  0.00  0.00    -0.051 C 
ATOM     20  C   UNL     1       5.212  -2.222  -2.485  0.00  0.00    -0.016 C 
ATOM     21  C   UNL     1       5.187  -3.192  -3.695  0.00  0.00    -0.020 C 
ATOM     22  C   UNL     1       4.180  -2.482  -4.644  0.00  0.00    -0.078 C 
ATOM     23  H   UNL     1       5.078  -0.717  -5.205  0.00  0.00    -0.081 HD
ENDBRANCH  13  15
ENDBRANCH   1  13
TORSDOF 4
