REMARK  Name = ZINC35519520
REMARK  7 active torsions:
REMARK  status: ('A' for Active; 'I' for Inactive)
REMARK    1  A    between atoms: C_3  and  O_26
REMARK    2  A    between atoms: C_4  and  C_10
REMARK    3  A    between atoms: C_6  and  N_7
REMARK    4  A    between atoms: C_11  and  C_12
REMARK    5  A    between atoms: C_11  and  C_14
REMARK    6  A    between atoms: O_26  and  C_27
REMARK    7  A    between atoms: C_27  and  C_28
REMARK                            x       y       z     vdW  Elec       q    Type
REMARK                         _______ _______ _______ _____ _____    ______ ____
ROOT
ATOM      1  C   UNL     1      -0.037   1.339   0.113  0.00  0.00    +0.036 A 
ATOM      2  C   UNL     1       1.123   2.059  -0.099  0.00  0.00    +0.048 A 
ATOM      3  C   UNL     1       2.345   1.409  -0.150  0.00  0.00    +0.128 A 
ATOM      4  C   UNL     1       2.399   0.014   0.015  0.00  0.00    +0.020 A 
ATOM      5  C   UNL     1       1.215  -0.702   0.229  0.00  0.00    +0.044 A 
ATOM      6  C   UNL     1       0.009  -0.037   0.276  0.00  0.00    +0.127 A 
ENDROOT
BRANCH   6   7
ATOM      7  N   UNL     1      -1.242  -0.794   0.503  0.00  0.00    +0.056 N 
ATOM      8  O   UNL     1      -2.301  -0.213   0.545  0.00  0.00    -0.126 OA
ATOM      9  O   UNL     1      -1.204  -1.994   0.646  0.00  0.00    -0.126 OA
ENDBRANCH   6   7
BRANCH   4  10
ATOM     10  C   UNL     1       3.686  -0.686  -0.038  0.00  0.00    +0.034 C 
ATOM     11  C   UNL     1       3.754  -1.950  -0.545  0.00  0.00    +0.097 C 
BRANCH  11  12
ATOM     12  C   UNL     1       5.017  -2.713  -0.462  0.00  0.00    +0.175 A 
ATOM     13  N   UNL     1       5.055  -3.934  -0.967  0.00  0.00    -0.226 NA
ATOM     14  C   UNL     1       6.182  -4.655  -0.911  0.00  0.00    +0.079 A 
ATOM     15  C   UNL     1       6.259  -5.953  -1.437  0.00  0.00    +0.030 A 
ATOM     16  C   UNL     1       7.430  -6.645  -1.354  0.00  0.00    +0.022 A 
ATOM     17  C   UNL     1       8.555  -6.083  -0.755  0.00  0.00    +0.042 A 
ATOM     18  C   UNL     1       8.516  -4.822  -0.233  0.00  0.00    +0.035 A 
ATOM     19  C   UNL     1       7.328  -4.084  -0.302  0.00  0.00    +0.068 A 
ATOM     20  C   UNL     1       7.229  -2.773   0.222  0.00  0.00    +0.281 A 
ATOM     21  O   UNL     1       8.292  -2.180   0.813  0.00  0.00    -0.265 OA
ATOM     22  N   UNL     1       6.074  -2.139   0.114  0.00  0.00    -0.188 NA
ATOM     23 CL   UNL     1      10.028  -6.998  -0.669  0.00  0.00    -0.084 Cl
ENDBRANCH  11  12
BRANCH  11  24
ATOM     24  C   UNL     1       2.601  -2.539  -1.158  0.00  0.00    +0.103 C 
ATOM     25  N   UNL     1       1.687  -3.006  -1.644  0.00  0.00    -0.191 NA
ENDBRANCH  11  24
ENDBRANCH   4  10
BRANCH   3  26
ATOM     26  O   UNL     1       3.484   2.116  -0.359  0.00  0.00    -0.482 OA
BRANCH  26  27
ATOM     27  C   UNL     1       3.351   3.530  -0.518  0.00  0.00    +0.325 C 
BRANCH  27  28
ATOM     28  C   UNL     1       4.711   4.141  -0.739  0.00  0.00    +0.256 C 
ATOM     29  O   UNL     1       5.697   3.435  -0.758  0.00  0.00    -0.272 OA
ATOM     30  N   UNL     1       4.831   5.471  -0.915  0.00  0.00    -0.262 N 
ATOM     31  C   UNL     1       6.085   6.035  -1.118  0.00  0.00    +0.164 A 
ATOM     32  N   UNL     1       7.253   5.432  -1.176  0.00  0.00    -0.233 NA
ATOM     33  C   UNL     1       8.365   6.115  -1.378  0.00  0.00    +0.120 A 
ATOM     34  C   UNL     1       8.245   7.457  -1.522  0.00  0.00    +0.068 A 
ATOM     35  S   UNL     1       6.478   7.654  -1.359  0.00  0.00    -0.061 S 
ATOM     36  H   UNL     1       4.043   6.036  -0.899  0.00  0.00    +0.157 HD
ENDBRANCH  27  28
ENDBRANCH  26  27
ENDBRANCH   3  26
TORSDOF 7
