REMARK  Name = ZINC15225788
REMARK  3 active torsions:
REMARK  status: ('A' for Active; 'I' for Inactive)
REMARK    1  A    between atoms: C_3  and  C_6
REMARK    2  A    between atoms: C_12  and  C_13
REMARK    3  A    between atoms: C_16  and  C_18
REMARK                            x       y       z     vdW  Elec       q    Type
REMARK                         _______ _______ _______ _____ _____    ______ ____
ROOT
ATOM      1  C   UNL     1       1.059   1.916   2.763  0.00  0.00    +0.165 C 
ATOM      2  N   UNL     1      -0.020   1.333   2.290  0.00  0.00    -0.161 NA
ATOM      3  N   UNL     1       0.048   0.092   1.694  0.00  0.00    -0.151 N 
ATOM      4  C   UNL     1      -1.029  -0.587   1.084  0.00  0.00    +0.153 C 
ATOM      5  N   UNL     1      -2.107   0.017   0.652  0.00  0.00    -0.283 NA
ATOM      6  C   UNL     1      -0.819  -2.056   0.980  0.00  0.00    +0.084 C 
ATOM      7  C   UNL     1      -1.874  -2.952   1.069  0.00  0.00    +0.063 C 
ATOM      8  C   UNL     1       0.576  -2.510   0.777  0.00  0.00    +0.273 C 
ATOM      9  O   UNL     1       0.816  -3.577   0.233  0.00  0.00    -0.268 OA
ATOM     10  N   UNL     1       1.572  -1.711   1.210  0.00  0.00    -0.152 NA
ATOM     11  C   UNL     1       1.283  -0.519   1.665  0.00  0.00    +0.181 C 
ATOM     12  S   UNL     1       2.325   0.703   2.418  0.00  0.00    -0.030 S 
ATOM     13  H   UNL     1      -2.194   0.978   0.745  0.00  0.00    +0.188 HD
ENDROOT
BRANCH   1  16
ATOM     14  C   UNL     1       2.009   5.037   4.415  0.00  0.00    +0.042 A 
ATOM     15  C   UNL     1       2.345   3.779   3.881  0.00  0.00    +0.052 A 
ATOM     16  C   UNL     1       1.190   3.231   3.410  0.00  0.00    +0.161 A 
ATOM     17  O   UNL     1       0.190   4.106   3.636  0.00  0.00    -0.461 OA
ATOM     18  C   UNL     1       0.680   5.195   4.248  0.00  0.00    +0.196 A 
ENDBRANCH   1  16
BRANCH   7  19
ATOM     19  C   UNL     1      -1.632  -4.286   1.437  0.00  0.00    +0.129 A 
ATOM     20  C   UNL     1      -2.564  -5.314   1.427  0.00  0.00    +0.050 A 
ATOM     21  C   UNL     1      -1.902  -6.462   1.861  0.00  0.00    +0.050 A 
ATOM     22  C   UNL     1      -0.596  -6.101   2.121  0.00  0.00    +0.137 A 
ATOM     23  O   UNL     1      -0.452  -4.791   1.855  0.00  0.00    -0.455 OA
BRANCH  22  24
ATOM     24  C   UNL     1       0.466  -7.003   2.603  0.00  0.00    +0.036 A 
ATOM     25  C   UNL     1       0.241  -7.822   3.714  0.00  0.00    +0.014 A 
ATOM     26  C   UNL     1       1.236  -8.666   4.157  0.00  0.00    +0.021 A 
ATOM     27  C   UNL     1       2.462  -8.698   3.510  0.00  0.00    +0.042 A 
ATOM     28  C   UNL     1       2.695  -7.886   2.413  0.00  0.00    +0.040 A 
ATOM     29  C   UNL     1       1.705  -7.040   1.955  0.00  0.00    +0.053 A 
ATOM     30 CL   UNL     1       1.998  -6.023   0.579  0.00  0.00    -0.083 Cl
ATOM     31 CL   UNL     1       3.711  -9.760   4.080  0.00  0.00    -0.083 Cl
ENDBRANCH  22  24
ENDBRANCH   7  19
TORSDOF 3
