REMARK  Name = ZINC59169373
REMARK  10 active torsions:
REMARK  status: ('A' for Active; 'I' for Inactive)
REMARK    1  A    between atoms: C_1  and  C_2
REMARK    2  A    between atoms: C_2  and  C_28
REMARK    3  A    between atoms: C_4  and  N_10
REMARK    4  A    between atoms: C_6  and  C_8
REMARK    5  A    between atoms: C_6  and  C_9
REMARK    6  A    between atoms: N_10  and  C_11
REMARK    7  A    between atoms: N_10  and  C_19
REMARK    8  A    between atoms: C_11  and  C_12
REMARK    9  A    between atoms: C_19  and  N_21
REMARK   10  A    between atoms: N_21  and  C_22
REMARK                            x       y       z     vdW  Elec       q    Type
REMARK                         _______ _______ _______ _____ _____    ______ ____
ROOT
ATOM      1  N   UNL     1       2.847  -0.680  -2.673  0.00  0.00    -0.305 N 
ENDROOT
BRANCH   1   5
ATOM      2  C   UNL     1       1.329   2.442   0.036  0.00  0.00    -0.010 C 
ATOM      3  C   UNL     1       1.058   0.950   0.250  0.00  0.00    -0.072 C 
ATOM      4  C   UNL     1       1.228   0.201  -1.068  0.00  0.00    +0.009 C 
ATOM      5  C   UNL     1       2.711   0.070  -1.418  0.00  0.00    +0.073 C 
ATOM      6  C   UNL     1       3.400  -0.701  -0.292  0.00  0.00    +0.009 C 
ATOM      7  C   UNL     1       3.246   0.040   1.032  0.00  0.00    -0.072 C 
ATOM      8  N   UNL     1       1.874   0.414   1.325  0.00  0.00    +0.386 N 
ATOM      9  C   UNL     1       4.172   1.260   1.053  0.00  0.00    -0.010 C 
ATOM     10  C   UNL     1       3.724  -0.912   2.152  0.00  0.00    -0.010 C 
ATOM     11  C   UNL     1      -0.424   0.813   0.670  0.00  0.00    -0.010 C 
ATOM     12  H   UNL     1       1.883   1.095   2.091  0.00  0.00    -0.084 HD
ATOM     13  H   UNL     1       1.395  -0.406   1.712  0.00  0.00    -0.084 HD
ENDBRANCH   1   5
BRANCH   1  14
ATOM     14  C   UNL     1       2.390  -1.946  -2.755  0.00  0.00    +0.138 C 
ATOM     15  S   UNL     1       1.577  -2.650  -1.423  0.00  0.00    -0.018 S 
BRANCH  14  16
ATOM     16  N   UNL     1       2.574  -2.657  -3.885  0.00  0.00    -0.297 N 
ATOM     17  H   UNL     1       3.218  -3.382  -3.902  0.00  0.00    +0.154 HD
BRANCH  16  18
ATOM     18  C   UNL     1       1.835  -2.349  -5.032  0.00  0.00    +0.033 A 
ATOM     19  C   UNL     1       0.916  -1.308  -5.010  0.00  0.00    +0.023 A 
ATOM     20  C   UNL     1       0.189  -1.007  -6.145  0.00  0.00    +0.002 A 
ATOM     21  C   UNL     1       0.375  -1.741  -7.302  0.00  0.00    +0.000 A 
ATOM     22  C   UNL     1       1.289  -2.778  -7.327  0.00  0.00    +0.002 A 
ATOM     23  C   UNL     1       2.024  -3.080  -6.198  0.00  0.00    +0.023 A 
ENDBRANCH  16  18
ENDBRANCH  14  16
ENDBRANCH   1  14
BRANCH   1  24
ATOM     24  C   UNL     1       3.480  -0.053  -3.836  0.00  0.00    +0.145 C 
BRANCH  24  25
ATOM     25  C   UNL     1       4.978  -0.158  -3.710  0.00  0.00    +0.005 A 
ATOM     26  C   UNL     1       5.706   0.905  -3.210  0.00  0.00    +0.008 A 
ATOM     27  C   UNL     1       7.080   0.810  -3.094  0.00  0.00    +0.000 A 
ATOM     28  C   UNL     1       7.728  -0.350  -3.478  0.00  0.00    +0.003 A 
ATOM     29  C   UNL     1       7.003  -1.414  -3.978  0.00  0.00    +0.038 A 
ATOM     30  C   UNL     1       5.626  -1.322  -4.089  0.00  0.00    +0.128 A 
ATOM     31  F   UNL     1       4.915  -2.364  -4.573  0.00  0.00    -0.205 F 
ENDBRANCH  24  25
ENDBRANCH   1  24
TORSDOF 6
