REMARK  Name = ZINC64081048
REMARK  10 active torsions:
REMARK  status: ('A' for Active; 'I' for Inactive)
REMARK    1  A    between atoms: C_1  and  C_2
REMARK    2  A    between atoms: C_5  and  C_22
REMARK    3  A    between atoms: C_6  and  O_8
REMARK    4  A    between atoms: O_8  and  C_9
REMARK    5  A    between atoms: C_9  and  C_10
REMARK    6  A    between atoms: N_12  and  N_13
REMARK    7  A    between atoms: N_13  and  C_14
REMARK    8  A    between atoms: C_14  and  N_16
REMARK    9  A    between atoms: N_16  and  C_17
REMARK   10  A    between atoms: C_17  and  C_18
REMARK                            x       y       z     vdW  Elec       q    Type
REMARK                         _______ _______ _______ _____ _____    ______ ____
ROOT
ATOM      1  C   UNL     1       0.063  -2.932   4.751  0.00  0.00    +0.267 C 
ATOM      2  O   UNL     1       0.078  -4.133   4.584  0.00  0.00    -0.271 OA
ATOM      3  N   UNL     1       0.062  -2.425   6.000  0.00  0.00    -0.232 N 
ATOM      4  H   UNL     1       0.050  -1.465   6.134  0.00  0.00    +0.173 HD
ENDROOT
BRANCH   3   5
ATOM      5  N   UNL     1       0.078  -3.286   7.105  0.00  0.00    -0.246 N 
ATOM      6  H   UNL     1       0.090  -4.247   6.971  0.00  0.00    +0.172 HD
BRANCH   5   7
ATOM      7  C   UNL     1       0.077  -2.780   8.354  0.00  0.00    +0.147 C 
ATOM      8  S   UNL     1       0.097  -3.832   9.704  0.00  0.00    -0.017 S 
BRANCH   7   9
ATOM      9  N   UNL     1       0.060  -1.445   8.540  0.00  0.00    -0.317 N 
ATOM     10  H   UNL     1       0.049  -0.849   7.775  0.00  0.00    +0.148 HD
BRANCH   9  11
ATOM     11  C   UNL     1       0.059  -0.894   9.898  0.00  0.00    +0.216 C 
BRANCH  11  12
ATOM     12  C   UNL     1       0.039   0.634   9.828  0.00  0.00    +0.405 C 
ATOM     13  F   UNL     1      -1.113   1.054   9.153  0.00  0.00    -0.169 F 
ATOM     14  F   UNL     1       0.037   1.160  11.125  0.00  0.00    -0.169 F 
ATOM     15  F   UNL     1       1.172   1.085   9.143  0.00  0.00    -0.169 F 
ENDBRANCH  11  12
ENDBRANCH   9  11
ENDBRANCH   7   9
ENDBRANCH   5   7
ENDBRANCH   3   5
BRANCH   1  16
ATOM     16  C   UNL     1       0.045  -2.006   3.562  0.00  0.00    +0.326 C 
BRANCH  16  17
ATOM     17  O   UNL     1       0.050  -2.776   2.358  0.00  0.00    -0.482 OA
BRANCH  17  23
ATOM     18  C   UNL     1      -0.018   1.503   0.010  0.00  0.00    +0.044 C 
ATOM     19  C   UNL     1       0.002  -0.004   0.002  0.00  0.00    -0.047 A 
ATOM     20  C   UNL     1       0.006  -0.688  -1.200  0.00  0.00    +0.004 A 
ATOM     21  C   UNL     1       0.024  -2.071  -1.211  0.00  0.00    +0.007 A 
ATOM     22  C   UNL     1       0.039  -2.772  -0.020  0.00  0.00    -0.009 A 
ATOM     23  C   UNL     1       0.035  -2.088   1.186  0.00  0.00    +0.124 A 
ATOM     24  C   UNL     1       0.023  -0.700   1.195  0.00  0.00    +0.049 A 
ATOM     25  C   UNL     1       0.059  -4.279  -0.033  0.00  0.00    +0.047 C 
ENDBRANCH  17  23
ENDBRANCH  16  17
ENDBRANCH   1  16
TORSDOF 8
