REMARK  Name = ZINC35696889
REMARK  3 active torsions:
REMARK  status: ('A' for Active; 'I' for Inactive)
REMARK    1  A    between atoms: C_3  and  N_20
REMARK    2  A    between atoms: C_6  and  C_7
REMARK    3  A    between atoms: C_9  and  C_12
REMARK                            x       y       z     vdW  Elec       q    Type
REMARK                         _______ _______ _______ _____ _____    ______ ____
ROOT
ATOM      1  C   UNL     1      -1.272  -0.764   0.011  0.00  0.00    +0.202 A 
ATOM      2  N   UNL     1      -1.382  -2.101   0.010  0.00  0.00    -0.187 NA
ATOM      3  C   UNL     1      -2.653  -2.445   0.019  0.00  0.00    +0.265 A 
ATOM      4  O   UNL     1      -3.393  -1.320   0.026  0.00  0.00    -0.332 OA
ATOM      5  N   UNL     1      -2.474  -0.238   0.026  0.00  0.00    -0.056 NA
ENDROOT
BRANCH   3   6
ATOM      6  C   UNL     1      -3.173  -3.818   0.021  0.00  0.00    +0.077 A 
ATOM      7  C   UNL     1      -4.482  -4.252   0.024  0.00  0.00    +0.024 A 
ATOM      8  C   UNL     1      -4.688  -5.635   0.026  0.00  0.00    -0.036 A 
ATOM      9  C   UNL     1      -3.579  -6.415   0.026  0.00  0.00    -0.006 A 
ATOM     10  S   UNL     1      -2.279  -5.359   0.011  0.00  0.00    -0.088 S 
ATOM     11  C   UNL     1      -3.927  -7.881   0.035  0.00  0.00    +0.043 C 
ATOM     12  C   UNL     1      -5.406  -7.929   0.477  0.00  0.00    +0.010 C 
ATOM     13  C   UNL     1      -5.918  -6.548   0.026  0.00  0.00    +0.036 C 
ENDBRANCH   3   6
BRANCH   1  19
ATOM     14  C   UNL     1      -0.017   1.390   0.010  0.00  0.00    +0.013 A 
ATOM     15  C   UNL     1       1.168   2.094   0.002  0.00  0.00    +0.023 A 
ATOM     16  C   UNL     1       2.381   1.415  -0.013  0.00  0.00    +0.025 A 
ATOM     17  C   UNL     1       2.402   0.025  -0.021  0.00  0.00    +0.023 A 
ATOM     18  C   UNL     1       1.220  -0.683  -0.014  0.00  0.00    +0.013 A 
ATOM     19  C   UNL     1       0.002  -0.004   0.002  0.00  0.00    +0.023 A 
BRANCH  16  20
ATOM     20  N   UNL     1       3.579   2.130  -0.021  0.00  0.00    -0.358 N 
ATOM     21  H   UNL     1       3.565   3.100  -0.015  0.00  0.00    +0.142 HD
ATOM     22  H   UNL     1       4.426   1.657  -0.031  0.00  0.00    +0.142 HD
ENDBRANCH  16  20
ENDBRANCH   1  19
TORSDOF 3
