REMARK  Name = ZINC02290389
REMARK  8 active torsions:
REMARK  status: ('A' for Active; 'I' for Inactive)
REMARK    1  A    between atoms: C_1  and  C_2
REMARK    2  A    between atoms: C_2  and  O_4
REMARK    3  A    between atoms: O_4  and  C_5
REMARK    4  A    between atoms: C_5  and  C_9
REMARK    5  A    between atoms: C_12  and  C_15
REMARK    6  A    between atoms: C_15  and  O_19
REMARK    7  A    between atoms: O_19  and  C_20
REMARK    8  A    between atoms: C_20  and  C_22
REMARK                            x       y       z     vdW  Elec       q    Type
REMARK                         _______ _______ _______ _____ _____    ______ ____
ROOT
ATOM      1  C   UNL     1       1.082   2.265  -0.143  0.00  0.00    +0.020 A 
ATOM      2  C   UNL     1       0.078   1.403   0.303  0.00  0.00    +0.012 A 
ATOM      3  C   UNL     1       0.100   0.075  -0.058  0.00  0.00    +0.012 A 
ATOM      4  C   UNL     1       1.127  -0.410  -0.870  0.00  0.00    +0.020 A 
ATOM      5  C   UNL     1       2.131   0.452  -1.317  0.00  0.00    +0.012 A 
ATOM      6  C   UNL     1       2.108   1.780  -0.957  0.00  0.00    +0.012 A 
ENDROOT
BRANCH   1   7
ATOM      7  C   UNL     1       1.058   3.692   0.244  0.00  0.00    +0.168 C 
ATOM      8  C   UNL     1       2.163   4.274   0.714  0.00  0.00    +0.149 C 
ATOM      9 CL   UNL     1       2.179   5.982   1.023  0.00  0.00    -0.067 Cl
ATOM     10 CL   UNL     1       3.584   3.324   1.015  0.00  0.00    -0.067 Cl
BRANCH   7  11
ATOM     11  O   UNL     1      -0.090   4.410   0.122  0.00  0.00    -0.423 OA
BRANCH  11  13
ATOM     12  C   UNL     1      -1.758   5.492  -1.343  0.00  0.00    +0.136 C 
ATOM     13  C   UNL     1      -0.547   4.622  -1.122  0.00  0.00    +0.309 C 
ATOM     14  O   UNL     1       0.015   4.114  -2.069  0.00  0.00    -0.251 OA
ENDBRANCH  11  13
ENDBRANCH   7  11
ENDBRANCH   1   7
BRANCH   4  15
ATOM     15  C   UNL     1       1.151  -1.837  -1.257  0.00  0.00    +0.168 C 
ATOM     16  C   UNL     1       0.051  -2.416  -1.741  0.00  0.00    +0.149 C 
ATOM     17 CL   UNL     1       0.041  -4.120  -2.074  0.00  0.00    -0.067 Cl
ATOM     18 CL   UNL     1      -1.371  -1.465  -2.038  0.00  0.00    -0.067 Cl
BRANCH  15  19
ATOM     19  O   UNL     1       2.295  -2.559  -1.120  0.00  0.00    -0.423 OA
BRANCH  19  20
ATOM     20  C   UNL     1       2.733  -2.775   0.131  0.00  0.00    +0.309 C 
ATOM     21  O   UNL     1       2.065  -2.418   1.077  0.00  0.00    -0.251 OA
ATOM     22  C   UNL     1       4.056  -3.461   0.358  0.00  0.00    +0.136 C 
ENDBRANCH  19  20
ENDBRANCH  15  19
ENDBRANCH   4  15
TORSDOF 6
