REMARK  Name = ZINC35474852
REMARK  7 active torsions:
REMARK  status: ('A' for Active; 'I' for Inactive)
REMARK    1  A    between atoms: C_1  and  C_2
REMARK    2  A    between atoms: C_2  and  C_4
REMARK    3  A    between atoms: C_2  and  N_7
REMARK    4  A    between atoms: C_4  and  C_5
REMARK    5  A    between atoms: C_4  and  C_6
REMARK    6  A    between atoms: C_13  and  C_20
REMARK    7  A    between atoms: N_18  and  C_19
REMARK                            x       y       z     vdW  Elec       q    Type
REMARK                         _______ _______ _______ _____ _____    ______ ____
ROOT
ATOM      1  N   UNL     1       0.841  -0.425  -1.158  0.00  0.00    -0.289 N 
ATOM      2  C   UNL     1       0.367  -1.166  -2.337  0.00  0.00    +0.159 C 
ATOM      3  C   UNL     1       1.594  -1.341  -3.204  0.00  0.00    +0.042 C 
ATOM      4  C   UNL     1       2.612  -0.750  -2.547  0.00  0.00    +0.058 C 
ATOM      5  C   UNL     1       2.156  -0.202  -1.330  0.00  0.00    +0.247 C 
ATOM      6  O   UNL     1       2.862   0.394  -0.537  0.00  0.00    -0.270 OA
ATOM      7  C   UNL     1       3.980  -0.776  -3.197  0.00  0.00    +0.144 C 
ATOM      8  N   UNL     1       4.085  -1.449  -4.503  0.00  0.00    -0.288 N 
ATOM      9  C   UNL     1       2.974  -1.995  -5.035  0.00  0.00    +0.307 C 
ATOM     10  O   UNL     1       3.051  -2.553  -6.112  0.00  0.00    -0.252 OA
ATOM     11  N   UNL     1       1.788  -1.943  -4.415  0.00  0.00    -0.260 N 
ATOM     12  C   UNL     1       0.635  -2.565  -5.072  0.00  0.00    +0.139 C 
ATOM     13  H   UNL     1       4.934  -1.498  -4.969  0.00  0.00    +0.151 HD
ENDROOT
BRANCH   7  14
ATOM     14  C   UNL     1       4.933  -1.454  -2.247  0.00  0.00    +0.013 A 
ATOM     15  C   UNL     1       5.277  -2.779  -2.441  0.00  0.00    +0.008 A 
ATOM     16  C   UNL     1       6.151  -3.401  -1.570  0.00  0.00    +0.001 A 
ATOM     17  C   UNL     1       6.683  -2.700  -0.504  0.00  0.00    +0.003 A 
ATOM     18  C   UNL     1       6.341  -1.376  -0.308  0.00  0.00    +0.039 A 
ATOM     19  C   UNL     1       5.469  -0.750  -1.183  0.00  0.00    +0.129 A 
ATOM     20  F   UNL     1       5.138   0.547  -0.995  0.00  0.00    -0.205 F 
ENDBRANCH   7  14
BRANCH   1  22
ATOM     21  C   UNL     1      -1.381  -0.581  -0.147  0.00  0.00    +0.028 C 
ATOM     22  C   UNL     1       0.030  -0.004  -0.013  0.00  0.00    +0.076 C 
BRANCH  22  23
ATOM     23  C   UNL     1      -0.044   1.524   0.024  0.00  0.00    +0.003 C 
ATOM     24  C   UNL     1      -0.798   2.028  -1.208  0.00  0.00    +0.009 C 
ATOM     25  C   UNL     1      -0.781   1.968   1.289  0.00  0.00    +0.009 C 
ENDBRANCH  22  23
ENDBRANCH   1  22
TORSDOF 3
