REMARK  Name = ZINC36597646
REMARK  10 active torsions:
REMARK  status: ('A' for Active; 'I' for Inactive)
REMARK    1  A    between atoms: C_1  and  C_2
REMARK    2  A    between atoms: C_5  and  C_7
REMARK    3  A    between atoms: C_7  and  N_8
REMARK    4  A    between atoms: N_8  and  C_9
REMARK    5  A    between atoms: C_9  and  C_11
REMARK    6  A    between atoms: C_9  and  C_17
REMARK    7  A    between atoms: N_19  and  C_20
REMARK    8  A    between atoms: C_26  and  C_28
REMARK    9  A    between atoms: C_32  and  O_35
REMARK   10  A    between atoms: C_33  and  O_34
REMARK                            x       y       z     vdW  Elec       q    Type
REMARK                         _______ _______ _______ _____ _____    ______ ____
ROOT
ATOM      1  N   UNL     1       1.773  -3.292  -2.088  0.00  0.00    -0.278 N 
ATOM      2  C   UNL     1       1.130  -4.471  -2.197  0.00  0.00    +0.251 C 
ATOM      3  O   UNL     1       0.378  -4.837  -1.314  0.00  0.00    -0.270 OA
ENDROOT
BRANCH   2   4
ATOM      4  C   UNL     1       1.337  -5.317  -3.387  0.00  0.00    +0.082 A 
ATOM      5  C   UNL     1       2.536  -5.241  -4.103  0.00  0.00    +0.017 A 
ATOM      6  C   UNL     1       2.727  -6.034  -5.213  0.00  0.00    +0.005 A 
ATOM      7  C   UNL     1       1.736  -6.909  -5.627  0.00  0.00    +0.049 A 
ATOM      8  C   UNL     1       0.543  -6.995  -4.929  0.00  0.00    +0.159 A 
ATOM      9  C   UNL     1       0.338  -6.205  -3.802  0.00  0.00    +0.171 A 
BRANCH   9  10
ATOM     10  O   UNL     1      -0.827  -6.292  -3.111  0.00  0.00    -0.503 OA
ATOM     11  H   UNL     1      -1.514  -5.686  -3.421  0.00  0.00    +0.292 HD
ENDBRANCH   9  10
BRANCH   8  12
ATOM     12  O   UNL     1      -0.425  -7.856  -5.341  0.00  0.00    -0.503 OA
ATOM     13  H   UNL     1      -0.360  -8.738  -4.950  0.00  0.00    +0.292 HD
ENDBRANCH   8  12
ENDBRANCH   2   4
BRANCH   1  14
ATOM     14  C   UNL     1       1.113  -2.153  -1.445  0.00  0.00    +0.183 C 
BRANCH  14  19
ATOM     15  C   UNL     1      -0.343   1.189  -4.931  0.00  0.00    +0.086 C 
ATOM     16  C   UNL     1      -0.368   0.026  -3.973  0.00  0.00    +0.102 A 
ATOM     17  C   UNL     1      -1.406  -0.806  -3.774  0.00  0.00    +0.045 A 
ATOM     18  C   UNL     1      -0.998  -1.743  -2.797  0.00  0.00    +0.046 A 
ATOM     19  C   UNL     1       0.264  -1.427  -2.457  0.00  0.00    +0.122 A 
ATOM     20  O   UNL     1       0.643  -0.358  -3.177  0.00  0.00    -0.463 OA
ENDBRANCH  14  19
ENDBRANCH   1  14
BRANCH   1  21
ATOM     21  C   UNL     1       3.134  -3.148  -2.612  0.00  0.00    +0.166 C 
BRANCH  21  22
ATOM     22  C   UNL     1       3.915  -4.440  -2.363  0.00  0.00    +0.019 C 
ATOM     23  C   UNL     1       4.335  -4.506  -0.893  0.00  0.00    +0.006 C 
ATOM     24  C   UNL     1       5.117  -5.797  -0.643  0.00  0.00    +0.000 C 
ATOM     25  C   UNL     1       6.362  -5.820  -1.532  0.00  0.00    +0.000 C 
ATOM     26  C   UNL     1       5.942  -5.754  -3.001  0.00  0.00    +0.000 C 
ATOM     27  C   UNL     1       5.161  -4.462  -3.251  0.00  0.00    +0.006 C 
ENDBRANCH  21  22
BRANCH  21  28
ATOM     28  C   UNL     1       3.075  -2.875  -4.093  0.00  0.00    +0.234 C 
ATOM     29  O   UNL     1       2.023  -2.982  -4.688  0.00  0.00    -0.274 OA
ATOM     30  N   UNL     1       4.191  -2.512  -4.756  0.00  0.00    -0.311 N 
ATOM     31  H   UNL     1       5.051  -2.538  -4.309  0.00  0.00    +0.149 HD
BRANCH  30  32
ATOM     32  C   UNL     1       4.104  -2.079  -6.153  0.00  0.00    +0.073 C 
ATOM     33  C   UNL     1       4.134  -3.303  -7.070  0.00  0.00    +0.022 C 
ATOM     34  C   UNL     1       4.044  -2.850  -8.528  0.00  0.00    +0.002 C 
ATOM     35  C   UNL     1       5.230  -1.940  -8.854  0.00  0.00    +0.000 C 
ATOM     36  C   UNL     1       5.200  -0.716  -7.937  0.00  0.00    +0.002 C 
ATOM     37  C   UNL     1       5.290  -1.169  -6.479  0.00  0.00    +0.022 C 
ENDBRANCH  30  32
ENDBRANCH  21  28
ENDBRANCH   1  21
TORSDOF 9
