REMARK  Name = ZINC40870244
REMARK  5 active torsions:
REMARK  status: ('A' for Active; 'I' for Inactive)
REMARK    1  A    between atoms: C_1  and  C_2
REMARK    2  A    between atoms: C_5  and  O_8
REMARK    3  A    between atoms: O_8  and  C_9
REMARK    4  A    between atoms: C_9  and  C_10
REMARK    5  A    between atoms: C_15  and  C_18
REMARK                            x       y       z     vdW  Elec       q    Type
REMARK                         _______ _______ _______ _____ _____    ______ ____
ROOT
ATOM      1  C   UNL     1       0.090  -6.277   1.043  0.00  0.00    +0.256 C 
ATOM      2  O   UNL     1       0.090  -6.735  -0.080  0.00  0.00    -0.272 OA
ATOM      3  N   UNL     1       0.106  -7.104   2.108  0.00  0.00    -0.262 N 
ATOM      4  C   UNL     1       0.123  -8.481   1.918  0.00  0.00    +0.165 A 
ATOM      5  N   UNL     1       0.135  -9.447   2.817  0.00  0.00    -0.225 NA
ATOM      6  C   UNL     1       0.150 -10.722   2.455  0.00  0.00    +0.082 A 
ATOM      7  C   UNL     1       0.154 -11.042   1.127  0.00  0.00    +0.077 A 
ATOM      8  S   UNL     1       0.127  -9.412   0.393  0.00  0.00    -0.060 S 
ATOM      9  H   UNL     1       0.106  -6.738   3.006  0.00  0.00    +0.157 HD
ENDROOT
BRANCH   6  10
ATOM     10  C   UNL     1       0.164 -11.791   3.483  0.00  0.00    +0.019 A 
ATOM     11  C   UNL     1       0.186 -13.130   3.099  0.00  0.00    +0.013 A 
ATOM     12  C   UNL     1       0.199 -14.121   4.059  0.00  0.00    +0.021 A 
ATOM     13  C   UNL     1       0.190 -13.787   5.403  0.00  0.00    +0.042 A 
ATOM     14  C   UNL     1       0.167 -12.459   5.791  0.00  0.00    +0.040 A 
ATOM     15  C   UNL     1       0.159 -11.459   4.838  0.00  0.00    +0.052 A 
ATOM     16 CL   UNL     1       0.138  -9.793   5.326  0.00  0.00    -0.083 Cl
ATOM     17 CL   UNL     1       0.205 -15.040   6.605  0.00  0.00    -0.083 Cl
ENDBRANCH   6  10
BRANCH   1  18
ATOM     18  C   UNL     1       0.072  -4.785   1.249  0.00  0.00    +0.324 C 
BRANCH  18  19
ATOM     19  O   UNL     1       0.057  -4.129  -0.021  0.00  0.00    -0.483 OA
BRANCH  19  24
ATOM     20  C   UNL     1      -0.018   1.503   0.010  0.00  0.00    +0.044 C 
ATOM     21  C   UNL     1       0.002  -0.004   0.002  0.00  0.00    -0.050 A 
ATOM     22  C   UNL     1       0.006  -0.688  -1.200  0.00  0.00    +0.007 A 
ATOM     23  C   UNL     1       0.024  -2.069  -1.210  0.00  0.00    +0.046 A 
ATOM     24  C   UNL     1       0.039  -2.770  -0.013  0.00  0.00    +0.121 A 
ATOM     25  C   UNL     1       0.036  -2.082   1.191  0.00  0.00    +0.046 A 
ATOM     26  C   UNL     1       0.023  -0.701   1.196  0.00  0.00    +0.007 A 
ENDBRANCH  19  24
ENDBRANCH  18  19
ENDBRANCH   1  18
TORSDOF 4
