REMARK  Name = ZINC19794600
REMARK  9 active torsions:
REMARK  status: ('A' for Active; 'I' for Inactive)
REMARK    1  A    between atoms: C_1  and  C_2
REMARK    2  A    between atoms: C_2  and  C_3
REMARK    3  A    between atoms: C_3  and  C_4
REMARK    4  A    between atoms: C_4  and  C_5
REMARK    5  A    between atoms: C_9  and  C_11
REMARK    6  A    between atoms: C_11  and  N_12
REMARK    7  A    between atoms: N_12  and  C_13
REMARK    8  A    between atoms: N_12  and  C_14
REMARK    9  A    between atoms: N_19  and  C_21
REMARK                            x       y       z     vdW  Elec       q    Type
REMARK                         _______ _______ _______ _____ _____    ______ ____
ROOT
ATOM      1  C   UNL     1       1.260  -2.786   8.115  0.00  0.00    +0.040 C 
ATOM      2  C   UNL     1      -0.169  -3.333   8.073  0.00  0.00    +0.015 C 
ATOM      3  C   UNL     1      -0.645  -3.599   9.504  0.00  0.00    -0.017 C 
ATOM      4  C   UNL     1      -0.543  -2.308  10.319  0.00  0.00    -0.078 C 
ATOM      5  N   UNL     1       0.852  -1.851  10.343  0.00  0.00    +0.383 N 
ATOM      6  C   UNL     1       1.294  -1.525   8.982  0.00  0.00    -0.059 C 
ATOM      7  H   UNL     1       1.438  -2.580  10.720  0.00  0.00    -0.081 HD
ENDROOT
BRANCH   5   8
ATOM      8  C   UNL     1       0.958  -0.655  11.190  0.00  0.00    -0.060 C 
ATOM      9  C   UNL     1       2.435  -0.248  11.381  0.00  0.00    +0.020 C 
ATOM     10  C   UNL     1       2.520   0.282  12.796  0.00  0.00    -0.046 A 
ATOM     11  C   UNL     1       3.488   1.063  13.406  0.00  0.00    +0.004 A 
ATOM     12  C   UNL     1       3.352   1.431  14.730  0.00  0.00    +0.000 A 
ATOM     13  C   UNL     1       2.246   1.019  15.450  0.00  0.00    +0.000 A 
ATOM     14  C   UNL     1       1.279   0.241  14.844  0.00  0.00    +0.004 A 
ATOM     15  C   UNL     1       1.414  -0.129  13.517  0.00  0.00    -0.046 A 
ATOM     16  C   UNL     1       0.510  -0.964  12.634  0.00  0.00    +0.020 C 
ENDBRANCH   5   8
BRANCH   1  17
ATOM     17  N   UNL     1       1.700  -2.456   6.753  0.00  0.00    -0.299 NA
ATOM     18  C   UNL     1       3.033  -1.839   6.764  0.00  0.00    +0.105 C 
BRANCH  17  19
ATOM     19  C   UNL     1       1.679  -3.646   5.891  0.00  0.00    +0.139 C 
BRANCH  19  24
ATOM     20  C   UNL     1       1.492  -2.540   2.454  0.00  0.00    +0.084 A 
ATOM     21  N   UNL     1       2.818  -2.779   2.536  0.00  0.00    -0.350 N 
ATOM     22  H   UNL     1       3.469  -2.662   1.826  0.00  0.00    +0.166 HD
ATOM     23  C   UNL     1       3.073  -3.218   3.807  0.00  0.00    +0.106 A 
ATOM     24  C   UNL     1       1.894  -3.232   4.458  0.00  0.00    +0.047 A 
ATOM     25  N   UNL     1       0.946  -2.807   3.609  0.00  0.00    -0.346 N 
ATOM     26  H   UNL     1       0.004  -2.716   3.820  0.00  0.00    +0.167 HD
BRANCH  20  27
ATOM     27  C   UNL     1       0.763  -2.041   1.233  0.00  0.00    +0.072 C 
BRANCH  27  28
ATOM     28  C   UNL     1       0.742  -0.511   1.242  0.00  0.00    +0.007 C 
BRANCH  28  30
ATOM     29  C   UNL     1      -0.019   1.526   0.010  0.00  0.00    +0.004 C 
ATOM     30  C   UNL     1       0.002  -0.004   0.002  0.00  0.00    -0.003 C 
ENDBRANCH  28  30
ENDBRANCH  27  28
ENDBRANCH  20  27
ENDBRANCH  19  24
ENDBRANCH  17  19
ENDBRANCH   1  17
TORSDOF 7
