REMARK  Name = ZINC39331040
REMARK  6 active torsions:
REMARK  status: ('A' for Active; 'I' for Inactive)
REMARK    1  A    between atoms: C_1  and  O_2
REMARK    2  A    between atoms: O_2  and  C_3
REMARK    3  A    between atoms: C_8  and  C_15
REMARK    4  A    between atoms: C_16  and  C_17
REMARK    5  A    between atoms: C_16  and  N_25
REMARK    6  A    between atoms: C_26  and  C_28
REMARK                            x       y       z     vdW  Elec       q    Type
REMARK                         _______ _______ _______ _____ _____    ______ ____
ROOT
ATOM      1  C   UNL     1       1.649  -4.352  -5.641  0.00  0.00    +0.018 C 
ATOM      2  C   UNL     1       2.431  -4.957  -6.538  0.00  0.00    +0.093 C 
ENDROOT
BRANCH   1   8
ATOM      3  C   UNL     1       0.012  -0.635  -1.178  0.00  0.00    +0.122 A 
ATOM      4  C   UNL     1       0.591   0.186  -2.158  0.00  0.00    +0.046 A 
ATOM      5  C   UNL     1       1.286  -0.338  -3.194  0.00  0.00    +0.013 A 
ATOM      6  C   UNL     1       1.434  -1.793  -3.288  0.00  0.00    -0.006 A 
ATOM      7  C   UNL     1       2.126  -2.356  -4.316  0.00  0.00    -0.001 C 
ATOM      8  C   UNL     1       2.232  -3.868  -4.338  0.00  0.00    +0.123 C 
ATOM      9  C   UNL     1       1.560  -4.630  -3.219  0.00  0.00    +0.228 C 
ATOM     10  O   UNL     1       1.615  -5.845  -3.188  0.00  0.00    -0.274 OA
ATOM     11  N   UNL     1       0.914  -3.970  -2.273  0.00  0.00    -0.284 N 
ATOM     12  C   UNL     1       0.819  -2.639  -2.249  0.00  0.00    +0.044 A 
ATOM     13  C   UNL     1       0.122  -2.007  -1.210  0.00  0.00    +0.069 A 
ATOM     14  H   UNL     1       0.490  -4.477  -1.563  0.00  0.00    +0.155 HD
BRANCH   3  16
ATOM     15  C   UNL     1      -0.763   1.369  -0.168  0.00  0.00    +0.277 C 
ATOM     16  O   UNL     1      -0.674  -0.057  -0.163  0.00  0.00    -0.495 OA
ENDBRANCH   3  16
ENDBRANCH   1   8
BRANCH   2  17
ATOM     17  C   UNL     1       1.889  -5.324  -7.861  0.00  0.00    +0.261 C 
ATOM     18  O   UNL     1       2.030  -4.572  -8.806  0.00  0.00    -0.269 OA
ATOM     19  N   UNL     1       1.238  -6.493  -8.022  0.00  0.00    -0.297 N 
ATOM     20  C   UNL     1       0.957  -7.358  -6.868  0.00  0.00    +0.108 C 
ATOM     21  C   UNL     1      -0.542  -7.670  -6.838  0.00  0.00    +0.019 C 
ATOM     22  C   UNL     1      -0.963  -8.263  -8.185  0.00  0.00    +0.003 C 
ATOM     23  C   UNL     1      -0.703  -7.243  -9.296  0.00  0.00    +0.019 C 
ATOM     24  C   UNL     1       0.789  -6.923  -9.353  0.00  0.00    +0.108 C 
ENDBRANCH   2  17
BRANCH   2  25
ATOM     25  N   UNL     1       3.765  -5.243  -6.225  0.00  0.00    -0.278 N 
ATOM     26  C   UNL     1       4.523  -5.951  -7.086  0.00  0.00    +0.248 C 
ATOM     27  O   UNL     1       4.079  -6.259  -8.175  0.00  0.00    -0.270 OA
ATOM     28  H   UNL     1       4.144  -4.932  -5.388  0.00  0.00    +0.155 HD
BRANCH  26  29
ATOM     29  C   UNL     1       5.894  -6.354  -6.706  0.00  0.00    +0.037 A 
ATOM     30  C   UNL     1       6.404  -6.007  -5.454  0.00  0.00    +0.013 A 
ATOM     31  C   UNL     1       7.684  -6.386  -5.105  0.00  0.00    +0.001 A 
ATOM     32  C   UNL     1       8.461  -7.107  -5.994  0.00  0.00    +0.000 A 
ATOM     33  C   UNL     1       7.962  -7.454  -7.236  0.00  0.00    +0.001 A 
ATOM     34  C   UNL     1       6.681  -7.087  -7.595  0.00  0.00    +0.013 A 
ENDBRANCH  26  29
ENDBRANCH   2  25
TORSDOF 5
