REMARK  Name = ZINC03288837
REMARK  7 active torsions:
REMARK  status: ('A' for Active; 'I' for Inactive)
REMARK    1  A    between atoms: C_1  and  C_2
REMARK    2  A    between atoms: C_2  and  C_28
REMARK    3  A    between atoms: N_5  and  C_9
REMARK    4  A    between atoms: C_9  and  C_10
REMARK    5  A    between atoms: C_10  and  C_12
REMARK    6  A    between atoms: N_19  and  C_27
REMARK    7  A    between atoms: C_20  and  C_21
REMARK                            x       y       z     vdW  Elec       q    Type
REMARK                         _______ _______ _______ _____ _____    ______ ____
ROOT
ATOM      1  C   UNL     1       2.907   1.440  -1.439  0.00  0.00    +0.183 C 
ATOM      2  O   UNL     1       2.147   1.688  -2.353  0.00  0.00    -0.290 OA
ENDROOT
BRANCH   1   3
ATOM      3  C   UNL     1       4.226   1.015  -1.712  0.00  0.00    +0.052 A 
ATOM      4  C   UNL     1       5.272   0.682  -0.726  0.00  0.00    +0.011 A 
ATOM      5  C   UNL     1       5.310   0.660   0.666  0.00  0.00    +0.011 A 
ATOM      6  C   UNL     1       6.468   0.286   1.312  0.00  0.00    +0.001 A 
ATOM      7  C   UNL     1       7.591  -0.074   0.581  0.00  0.00    +0.002 A 
ATOM      8  C   UNL     1       7.565  -0.063  -0.796  0.00  0.00    +0.026 A 
ATOM      9  C   UNL     1       6.405   0.312  -1.468  0.00  0.00    +0.050 A 
ATOM     10  N   UNL     1       6.091   0.416  -2.808  0.00  0.00    -0.342 N 
ATOM     11  C   UNL     1       4.804   0.831  -2.966  0.00  0.00    +0.060 A 
ATOM     12  C   UNL     1       7.014   0.120  -3.907  0.00  0.00    +0.149 C 
BRANCH  11  13
ATOM     13  C   UNL     1       4.129   1.051  -4.260  0.00  0.00    -0.001 A 
ATOM     14  C   UNL     1       2.835   0.567  -4.467  0.00  0.00    +0.010 A 
ATOM     15  C   UNL     1       2.208   0.779  -5.677  0.00  0.00    +0.001 A 
ATOM     16  C   UNL     1       2.862   1.463  -6.688  0.00  0.00    +0.000 A 
ATOM     17  C   UNL     1       4.145   1.942  -6.491  0.00  0.00    +0.001 A 
ATOM     18  C   UNL     1       4.782   1.740  -5.285  0.00  0.00    +0.010 A 
ENDBRANCH  11  13
ENDBRANCH   1   3
BRANCH   1  19
ATOM     19  C   UNL     1       2.443   1.587  -0.013  0.00  0.00    +0.197 C 
BRANCH  19  24
ATOM     20  C   UNL     1      -2.079   1.882  -1.237  0.00  0.00    +0.047 C 
ATOM     21  C   UNL     1      -1.235   2.107   0.018  0.00  0.00    +0.136 C 
ATOM     22  C   UNL     1      -0.014   1.208   0.009  0.00  0.00    +0.251 C 
ATOM     23  O   UNL     1       0.002  -0.004   0.002  0.00  0.00    -0.272 OA
ATOM     24  N   UNL     1       1.048   2.037   0.003  0.00  0.00    -0.216 N 
ATOM     25  C   UNL     1       0.673   3.321   0.013  0.00  0.00    +0.310 C 
ATOM     26  O   UNL     1       1.453   4.253   0.010  0.00  0.00    -0.252 OA
ATOM     27  N   UNL     1      -0.664   3.465   0.026  0.00  0.00    -0.281 N 
ATOM     28  H   UNL     1      -1.157   4.301   0.035  0.00  0.00    +0.152 HD
BRANCH  21  29
ATOM     29  C   UNL     1      -2.056   1.873   1.260  0.00  0.00    -0.002 A 
ATOM     30  C   UNL     1      -2.282   2.911   2.145  0.00  0.00    +0.007 A 
ATOM     31  C   UNL     1      -3.035   2.696   3.284  0.00  0.00    +0.000 A 
ATOM     32  C   UNL     1      -3.563   1.444   3.538  0.00  0.00    +0.001 A 
ATOM     33  C   UNL     1      -3.338   0.406   2.655  0.00  0.00    +0.015 A 
ATOM     34  C   UNL     1      -2.588   0.622   1.512  0.00  0.00    +0.024 A 
ATOM     35 BR   UNL     1      -2.284  -0.797   0.299  0.00  0.00    -0.050 Br
ENDBRANCH  21  29
ENDBRANCH  19  24
ENDBRANCH   1  19
TORSDOF 5
