REMARK  Name = ZINC47651126
REMARK  8 active torsions:
REMARK  status: ('A' for Active; 'I' for Inactive)
REMARK    1  A    between atoms: C_1  and  C_2
REMARK    2  A    between atoms: C_5  and  N_9
REMARK    3  A    between atoms: C_10  and  C_12
REMARK    4  A    between atoms: C_12  and  N_13
REMARK    5  A    between atoms: N_13  and  S_14
REMARK    6  A    between atoms: S_14  and  C_17
REMARK    7  A    between atoms: C_20  and  C_24
REMARK    8  A    between atoms: C_21  and  C_23
REMARK                            x       y       z     vdW  Elec       q    Type
REMARK                         _______ _______ _______ _____ _____    ______ ____
ROOT
ATOM      1  C   UNL     1      -0.136  -6.343  -1.191  0.00  0.00    +0.201 C 
ENDROOT
BRANCH   1   3
ATOM      2  N   UNL     1       0.057  -4.171  -0.023  0.00  0.00    -0.283 N 
ATOM      3  C   UNL     1      -0.042  -4.839  -1.190  0.00  0.00    +0.233 C 
ATOM      4  O   UNL     1      -0.055  -4.230  -2.238  0.00  0.00    -0.274 OA
ATOM      5  H   UNL     1       0.133  -4.660   0.811  0.00  0.00    +0.155 HD
BRANCH   2  10
ATOM      6  C   UNL     1       0.027   1.503   0.005  0.00  0.00    +0.044 C 
ATOM      7  C   UNL     1       0.035  -0.004  -0.002  0.00  0.00    -0.049 A 
ATOM      8  C   UNL     1       0.632  -0.686  -1.046  0.00  0.00    +0.005 A 
ATOM      9  C   UNL     1       0.641  -2.067  -1.056  0.00  0.00    +0.025 A 
ATOM     10  C   UNL     1       0.050  -2.771  -0.016  0.00  0.00    +0.052 A 
ATOM     11  C   UNL     1      -0.549  -2.084   1.033  0.00  0.00    +0.062 A 
ATOM     12  C   UNL     1      -0.549  -0.701   1.039  0.00  0.00    +0.025 A 
ATOM     13 CL   UNL     1      -1.289  -2.959   2.337  0.00  0.00    -0.082 Cl
ENDBRANCH   2  10
ENDBRANCH   1   3
BRANCH   1  14
ATOM     14  N   UNL     1      -0.234  -6.825  -2.571  0.00  0.00    -0.181 NA
ATOM     15  H   UNL     1      -0.449  -6.207  -3.286  0.00  0.00    +0.149 HD
BRANCH  14  16
ATOM     16  S   UNL     1       0.022  -8.426  -2.909  0.00  0.00    +0.059 S 
ATOM     17  O   UNL     1      -0.168  -8.581  -4.308  0.00  0.00    -0.153 OA
ATOM     18  O   UNL     1       1.232  -8.790  -2.259  0.00  0.00    -0.153 OA
BRANCH  16  19
ATOM     19  C   UNL     1      -1.265  -9.337  -2.122  0.00  0.00    +0.106 A 
ATOM     20  C   UNL     1      -1.099  -9.789  -0.826  0.00  0.00    +0.029 A 
ATOM     21  C   UNL     1      -2.109 -10.504  -0.209  0.00  0.00    +0.005 A 
ATOM     22  C   UNL     1      -3.285 -10.765  -0.887  0.00  0.00    -0.047 A 
ATOM     23  C   UNL     1      -3.451 -10.312  -2.182  0.00  0.00    -0.046 A 
ATOM     24  C   UNL     1      -2.443  -9.594  -2.798  0.00  0.00    +0.032 A 
ATOM     25  C   UNL     1      -4.733 -10.597  -2.921  0.00  0.00    +0.044 C 
ATOM     26  C   UNL     1      -4.385 -11.545  -0.214  0.00  0.00    +0.044 C 
ENDBRANCH  16  19
ENDBRANCH  14  16
ENDBRANCH   1  14
TORSDOF 5
