REMARK  Name = ZINC02999692
REMARK  7 active torsions:
REMARK  status: ('A' for Active; 'I' for Inactive)
REMARK    1  A    between atoms: C_1  and  C_2
REMARK    2  A    between atoms: C_2  and  C_3
REMARK    3  A    between atoms: C_3  and  C_4
REMARK    4  A    between atoms: N_6  and  C_7
REMARK    5  A    between atoms: C_7  and  C_9
REMARK    6  A    between atoms: C_7  and  C_17
REMARK    7  A    between atoms: C_26  and  O_27
REMARK                            x       y       z     vdW  Elec       q    Type
REMARK                         _______ _______ _______ _____ _____    ______ ____
ROOT
ATOM      1  C   UNL     1       1.228  -2.186  -0.021  0.00  0.00    +0.138 C 
ENDROOT
BRANCH   1   2
ATOM      2  C   UNL     1       1.411  -2.795  -1.388  0.00  0.00    +0.019 A 
ATOM      3  C   UNL     1       1.272  -1.996  -2.519  0.00  0.00    +0.010 A 
ATOM      4  C   UNL     1       1.435  -2.513  -3.768  0.00  0.00    +0.009 A 
ATOM      5  C   UNL     1       1.739  -3.876  -3.925  0.00  0.00    -0.014 A 
ATOM      6  C   UNL     1       1.909  -4.444  -5.200  0.00  0.00    +0.008 A 
ATOM      7  C   UNL     1       2.202  -5.768  -5.314  0.00  0.00    +0.001 A 
ATOM      8  C   UNL     1       2.336  -6.572  -4.184  0.00  0.00    +0.001 A 
ATOM      9  C   UNL     1       2.178  -6.057  -2.934  0.00  0.00    +0.012 A 
ATOM     10  C   UNL     1       1.875  -4.695  -2.777  0.00  0.00    +0.024 A 
ATOM     11  C   UNL     1       1.704  -4.125  -1.499  0.00  0.00    +0.130 A 
BRANCH  11  12
ATOM     12  O   UNL     1       1.831  -4.893  -0.386  0.00  0.00    -0.506 OA
ATOM     13  H   UNL     1       1.005  -5.303  -0.095  0.00  0.00    +0.292 HD
ENDBRANCH  11  12
ENDBRANCH   1   2
BRANCH   1  14
ATOM     14  C   UNL     1       1.310  -0.685  -0.125  0.00  0.00    -0.004 A 
ATOM     15  C   UNL     1       0.157   0.061  -0.281  0.00  0.00    +0.008 A 
ATOM     16  C   UNL     1       0.231   1.438  -0.377  0.00  0.00    +0.020 A 
ATOM     17  C   UNL     1       1.460   2.070  -0.316  0.00  0.00    +0.042 A 
ATOM     18  C   UNL     1       2.615   1.324  -0.161  0.00  0.00    +0.040 A 
ATOM     19  C   UNL     1       2.539  -0.054  -0.065  0.00  0.00    +0.048 A 
ATOM     20 CL   UNL     1       3.988  -0.991   0.130  0.00  0.00    -0.083 Cl
ATOM     21 CL   UNL     1       1.554   3.799  -0.437  0.00  0.00    -0.083 Cl
ENDBRANCH   1  14
BRANCH   1  24
ATOM     22  C   UNL     1      -0.282  -2.607   1.845  0.00  0.00    +0.214 C 
ATOM     23  O   UNL     1       0.623  -2.327   2.602  0.00  0.00    -0.276 OA
ATOM     24  N   UNL     1      -0.082  -2.568   0.512  0.00  0.00    -0.304 N 
ATOM     25  H   UNL     1      -0.806  -2.792  -0.093  0.00  0.00    +0.150 HD
BRANCH  22  26
ATOM     26  C   UNL     1      -1.629  -3.000   2.393  0.00  0.00    +0.095 C 
BRANCH  26  28
ATOM     27  C   UNL     1      -2.955  -3.363   4.479  0.00  0.00    +0.004 C 
ATOM     28  C   UNL     1      -1.587  -2.964   3.922  0.00  0.00    +0.006 C 
ENDBRANCH  26  28
ENDBRANCH  22  26
ENDBRANCH   1  24
TORSDOF 6
