REMARK  Name = ZINC40782229
REMARK  4 active torsions:
REMARK  status: ('A' for Active; 'I' for Inactive)
REMARK    1  A    between atoms: C_6  and  N_7
REMARK    2  A    between atoms: C_9  and  N_22
REMARK    3  A    between atoms: C_10  and  O_14
REMARK    4  A    between atoms: O_14  and  C_15
REMARK                            x       y       z     vdW  Elec       q    Type
REMARK                         _______ _______ _______ _____ _____    ______ ____
ROOT
ATOM      1  N   UNL     1      -1.194  -0.721  -0.015  0.00  0.00    -0.298 N 
ATOM      2  C   UNL     1      -1.178  -2.106  -0.128  0.00  0.00    +0.151 A 
ATOM      3  C   UNL     1      -2.373  -2.825  -0.218  0.00  0.00    +0.128 A 
ATOM      4  C   UNL     1      -2.300  -4.212  -0.330  0.00  0.00    +0.246 A 
ATOM      5  N   UNL     1      -1.106  -4.796  -0.347  0.00  0.00    -0.199 NA
ATOM      6  C   UNL     1      -0.002  -4.082  -0.260  0.00  0.00    +0.227 A 
ATOM      7  N   UNL     1      -0.025  -2.768  -0.158  0.00  0.00    -0.218 NA
ATOM      8  H   UNL     1      -2.036  -0.253   0.096  0.00  0.00    +0.154 HD
ENDROOT
BRANCH   1  14
ATOM      9  C   UNL     1       1.102  -0.521  -0.736  0.00  0.00    +0.025 A 
ATOM     10  C   UNL     1       2.284   0.192  -0.779  0.00  0.00    +0.022 A 
ATOM     11  C   UNL     1       2.376   1.421  -0.151  0.00  0.00    +0.041 A 
ATOM     12  C   UNL     1       1.284   1.940   0.523  0.00  0.00    +0.022 A 
ATOM     13  C   UNL     1       0.100   1.232   0.570  0.00  0.00    +0.025 A 
ATOM     14  C   UNL     1       0.004  -0.002  -0.060  0.00  0.00    +0.032 A 
ATOM     15 CL   UNL     1       3.864   2.314  -0.207  0.00  0.00    -0.084 Cl
ENDBRANCH   1  14
BRANCH   3  16
ATOM     16  N   UNL     1      -3.613  -2.167  -0.195  0.00  0.00    -0.351 N 
ATOM     17  H   UNL     1      -3.648  -1.201  -0.117  0.00  0.00    +0.143 HD
ATOM     18  H   UNL     1      -4.435  -2.679  -0.258  0.00  0.00    +0.143 HD
ENDBRANCH   3  16
BRANCH   4  19
ATOM     19  O   UNL     1      -3.432  -4.956  -0.419  0.00  0.00    -0.436 OA
BRANCH  19  20
ATOM     20  C   UNL     1      -3.307  -6.309  -0.420  0.00  0.00    +0.130 A 
ATOM     21  C   UNL     1      -2.837  -6.964   0.709  0.00  0.00    +0.047 A 
ATOM     22  C   UNL     1      -2.712  -8.340   0.706  0.00  0.00    +0.019 A 
ATOM     23  C   UNL     1      -3.054  -9.065  -0.421  0.00  0.00    +0.018 A 
ATOM     24  C   UNL     1      -3.521  -8.413  -1.549  0.00  0.00    +0.019 A 
ATOM     25  C   UNL     1      -3.654  -7.038  -1.548  0.00  0.00    +0.047 A 
ATOM     26 BR   UNL     1      -2.881 -10.947  -0.422  0.00  0.00    -0.050 Br
ENDBRANCH  19  20
ENDBRANCH   4  19
TORSDOF 4
