REMARK  Name = ZINC61717423
REMARK  5 active torsions:
REMARK  status: ('A' for Active; 'I' for Inactive)
REMARK    1  A    between atoms: C_6  and  C_7
REMARK    2  A    between atoms: C_7  and  N_8
REMARK    3  A    between atoms: C_12  and  C_15
REMARK    4  A    between atoms: C_15  and  N_16
REMARK    5  A    between atoms: N_16  and  C_17
REMARK                            x       y       z     vdW  Elec       q    Type
REMARK                         _______ _______ _______ _____ _____    ______ ____
ROOT
ATOM      1  N   UNL     1      -1.726  -1.017  -1.368  0.00  0.00    -0.209 N 
ATOM      2  C   UNL     1      -1.411  -2.086  -2.129  0.00  0.00    +0.344 A 
ATOM      3  O   UNL     1      -0.714  -3.028  -1.797  0.00  0.00    -0.245 OA
ATOM      4  N   UNL     1      -2.010  -1.920  -3.325  0.00  0.00    -0.292 N 
ATOM      5  C   UNL     1      -2.703  -0.734  -3.301  0.00  0.00    +0.149 A 
ATOM      6  N   UNL     1      -2.549  -0.184  -2.139  0.00  0.00    -0.152 NA
ATOM      7  H   UNL     1      -1.960  -2.533  -4.075  0.00  0.00    +0.172 HD
ENDROOT
BRANCH   1   8
ATOM      8  C   UNL     1      -1.293  -0.775   0.010  0.00  0.00    +0.184 C 
BRANCH   8  14
ATOM      9  C   UNL     1      -0.017   1.378   0.010  0.00  0.00    +0.008 A 
ATOM     10  C   UNL     1       1.170   2.086   0.002  0.00  0.00    +0.038 A 
ATOM     11  C   UNL     1       2.379   1.410  -0.013  0.00  0.00    +0.123 A 
ATOM     12  C   UNL     1       2.396   0.026  -0.021  0.00  0.00    +0.038 A 
ATOM     13  C   UNL     1       1.208  -0.680  -0.013  0.00  0.00    +0.008 A 
ATOM     14  C   UNL     1       0.002  -0.004   0.002  0.00  0.00    -0.026 A 
ATOM     15  F   UNL     1       3.540   2.101  -0.021  0.00  0.00    -0.205 F 
ENDBRANCH   8  14
ENDBRANCH   1   8
BRANCH   5  16
ATOM     16  C   UNL     1      -3.514  -0.168  -4.438  0.00  0.00    +0.177 C 
BRANCH  16  17
ATOM     17  N   UNL     1      -4.101   1.111  -4.030  0.00  0.00    -0.337 N 
ATOM     18  H   UNL     1      -3.935   1.459  -3.140  0.00  0.00    +0.147 HD
BRANCH  17  19
ATOM     19  C   UNL     1      -4.900   1.829  -4.923  0.00  0.00    +0.028 A 
ATOM     20  C   UNL     1      -5.143   1.329  -6.196  0.00  0.00    +0.024 A 
ATOM     21  C   UNL     1      -5.934   2.042  -7.077  0.00  0.00    +0.017 A 
ATOM     22  C   UNL     1      -6.482   3.252  -6.692  0.00  0.00    +0.018 A 
ATOM     23  C   UNL     1      -6.242   3.752  -5.425  0.00  0.00    +0.017 A 
ATOM     24  C   UNL     1      -5.457   3.042  -4.537  0.00  0.00    +0.024 A 
ATOM     25 BR   UNL     1      -7.563   4.225  -7.901  0.00  0.00    -0.050 Br
ENDBRANCH  17  19
ENDBRANCH  16  17
ENDBRANCH   5  16
TORSDOF 5
