REMARK  Name = ZINC64541091
REMARK  5 active torsions:
REMARK  status: ('A' for Active; 'I' for Inactive)
REMARK    1  A    between atoms: C_1  and  C_2
REMARK    2  A    between atoms: C_2  and  C_4
REMARK    3  A    between atoms: C_2  and  C_23
REMARK    4  A    between atoms: C_10  and  C_12
REMARK    5  A    between atoms: N_28  and  C_31
REMARK                            x       y       z     vdW  Elec       q    Type
REMARK                         _______ _______ _______ _____ _____    ______ ____
ROOT
ATOM      1  C   UNL     1       0.736  -0.659   1.176  0.00  0.00    +0.004 C 
ATOM      2  C   UNL     1       0.132  -0.167   2.493  0.00  0.00    +0.023 C 
ATOM      3  C   UNL     1       0.893  -0.794   3.665  0.00  0.00    +0.108 C 
ATOM      4  N   UNL     1       0.884  -2.255   3.507  0.00  0.00    -0.300 N 
ATOM      5  C   UNL     1       1.360  -2.831   2.241  0.00  0.00    +0.108 C 
ATOM      6  C   UNL     1       0.594  -2.180   1.085  0.00  0.00    +0.023 C 
ATOM      7  C   UNL     1       0.449  -3.051   4.503  0.00  0.00    +0.242 C 
ATOM      8  O   UNL     1       0.060  -2.564   5.543  0.00  0.00    -0.273 OA
ENDROOT
BRANCH   7   9
ATOM      9  C   UNL     1       0.447  -4.548   4.325  0.00  0.00    +0.190 C 
ATOM     10  C   UNL     1       1.859  -5.051   4.122  0.00  0.00    +0.016 C 
ATOM     11  C   UNL     1       2.104  -5.901   5.145  0.00  0.00    -0.002 A 
ATOM     12  C   UNL     1       3.277  -6.704   5.510  0.00  0.00    +0.029 A 
ATOM     13  C   UNL     1       3.224  -7.478   6.619  0.00  0.00    +0.042 A 
ATOM     14  C   UNL     1       2.077  -7.531   7.426  0.00  0.00    +0.022 A 
ATOM     15  C   UNL     1       0.961  -6.822   7.154  0.00  0.00    +0.027 A 
ATOM     16  C   UNL     1       0.907  -5.975   6.013  0.00  0.00    +0.043 A 
ATOM     17  N   UNL     1      -0.043  -5.201   5.544  0.00  0.00    -0.370 N 
ATOM     18 CL   UNL     1       4.609  -8.429   7.054  0.00  0.00    -0.084 Cl
ATOM     19  H   UNL     1      -0.922  -5.081   5.936  0.00  0.00    +0.161 HD
ENDBRANCH   7   9
BRANCH   1  21
ATOM     20  C   UNL     1       0.143   1.513   0.094  0.00  0.00    +0.017 C 
ATOM     21  C   UNL     1       0.001  -0.008   0.003  0.00  0.00    +0.075 C 
BRANCH  21  22
ATOM     22  C   UNL     1       0.597  -0.491  -1.294  0.00  0.00    +0.219 C 
ATOM     23  O   UNL     1       1.778  -0.760  -1.356  0.00  0.00    -0.275 OA
ATOM     24  N   UNL     1      -0.183  -0.625  -2.385  0.00  0.00    -0.305 N 
ATOM     25  C   UNL     1      -1.589  -0.193  -2.368  0.00  0.00    +0.089 C 
ATOM     26  C   UNL     1      -1.838   0.700  -3.588  0.00  0.00    -0.059 C 
ATOM     27  N   UNL     1      -1.439  -0.015  -4.806  0.00  0.00    +0.384 N 
ATOM     28  C   UNL     1       0.008  -0.265  -4.788  0.00  0.00    -0.059 C 
ATOM     29  C   UNL     1       0.350  -1.201  -3.630  0.00  0.00    +0.089 C 
ATOM     30  H   UNL     1      -1.930  -0.895  -4.854  0.00  0.00    -0.081 HD
BRANCH  27  31
ATOM     31  C   UNL     1      -1.779   0.797  -5.982  0.00  0.00    -0.068 C 
ATOM     32  C   UNL     1      -3.288   1.049  -6.009  0.00  0.00    -0.015 C 
ATOM     33  C   UNL     1      -3.643   1.894  -7.234  0.00  0.00    -0.002 C 
ATOM     34  C   UNL     1      -3.228   1.150  -8.504  0.00  0.00    -0.000 C 
ATOM     35  C   UNL     1      -1.719   0.898  -8.478  0.00  0.00    -0.002 C 
ATOM     36  C   UNL     1      -1.364   0.053  -7.253  0.00  0.00    -0.015 C 
ENDBRANCH  27  31
ENDBRANCH  21  22
ENDBRANCH   1  21
TORSDOF 4
