REMARK  Name = ZINC13115601
REMARK  5 active torsions:
REMARK  status: ('A' for Active; 'I' for Inactive)
REMARK    1  A    between atoms: C_1  and  C_2
REMARK    2  A    between atoms: C_2  and  C_3
REMARK    3  A    between atoms: C_6  and  C_9
REMARK    4  A    between atoms: C_15  and  C_17
REMARK    5  A    between atoms: C_17  and  N_18
REMARK                            x       y       z     vdW  Elec       q    Type
REMARK                         _______ _______ _______ _____ _____    ______ ____
ROOT
ATOM      1  C   UNL     1      -2.085   4.451   0.037  0.00  0.00    +0.214 C 
ENDROOT
BRANCH   1   2
ATOM      2  N   UNL     1      -1.608   5.836   0.042  0.00  0.00    -0.215 N 
ATOM      3  C   UNL     1      -1.360   6.549   1.161  0.00  0.00    +0.252 C 
ATOM      4  O   UNL     1      -1.485   6.180   2.309  0.00  0.00    -0.272 OA
ATOM      5  C   UNL     1      -0.892   7.903   0.681  0.00  0.00    +0.144 C 
ATOM      6  C   UNL     1      -1.841   8.993   1.168  0.00  0.00    +0.081 C 
ATOM      7  C   UNL     1      -1.197  10.357   0.881  0.00  0.00    +0.232 C 
ATOM      8  O   UNL     1       0.004  10.460   1.647  0.00  0.00    -0.492 OA
ATOM      9  C   UNL     1       0.886   9.428   1.597  0.00  0.00    +0.126 A 
ATOM     10  C   UNL     1       0.511   8.173   1.145  0.00  0.00    +0.027 A 
ATOM     11  C   UNL     1       1.440   7.147   1.117  0.00  0.00    +0.010 A 
ATOM     12  C   UNL     1       2.739   7.370   1.533  0.00  0.00    +0.001 A 
ATOM     13  C   UNL     1       3.116   8.622   1.980  0.00  0.00    +0.004 A 
ATOM     14  C   UNL     1       2.195   9.649   2.013  0.00  0.00    +0.046 A 
ATOM     15  N   UNL     1      -0.938   7.799  -0.783  0.00  0.00    -0.281 N 
ATOM     16  C   UNL     1      -1.369   6.553  -1.063  0.00  0.00    +0.310 C 
ATOM     17  O   UNL     1      -1.522   6.129  -2.191  0.00  0.00    -0.252 OA
ATOM     18  H   UNL     1      -0.706   8.490  -1.423  0.00  0.00    +0.152 HD
ENDBRANCH   1   2
BRANCH   1  25
ATOM     19  C   UNL     1       1.143  -0.676  -0.013  0.00  0.00    +0.080 A 
ATOM     20  C   UNL     1       2.326   0.010  -0.020  0.00  0.00    +0.076 A 
ATOM     21  S   UNL     1       1.731   1.696  -0.005  0.00  0.00    -0.060 S 
ATOM     22  C   UNL     1      -0.016   1.316   0.009  0.00  0.00    +0.165 A 
ATOM     23  N   UNL     1       0.002  -0.004   0.002  0.00  0.00    -0.225 NA
ATOM     24  N   UNL     1      -1.104   2.180   0.019  0.00  0.00    -0.263 N 
ATOM     25  C   UNL     1      -0.905   3.513   0.026  0.00  0.00    +0.237 C 
ATOM     26  O   UNL     1       0.223   3.958   0.022  0.00  0.00    -0.274 OA
ATOM     27  H   UNL     1      -2.006   1.824   0.022  0.00  0.00    +0.157 HD
BRANCH  19  31
ATOM     28  C   UNL     1       1.129  -4.928  -0.035  0.00  0.00    -0.048 A 
ATOM     29  C   UNL     1      -0.068  -4.235  -0.020  0.00  0.00    +0.004 A 
ATOM     30  C   UNL     1      -0.070  -2.855  -0.012  0.00  0.00    +0.010 A 
ATOM     31  C   UNL     1       1.138  -2.159  -0.020  0.00  0.00    +0.001 A 
ATOM     32  C   UNL     1       2.341  -2.863  -0.041  0.00  0.00    +0.010 A 
ATOM     33  C   UNL     1       2.330  -4.243  -0.043  0.00  0.00    +0.004 A 
BRANCH  28  35
ATOM     34  C   UNL     1       1.108  -6.937  -1.489  0.00  0.00    +0.009 C 
ATOM     35  C   UNL     1       1.124  -6.435  -0.043  0.00  0.00    +0.032 C 
ENDBRANCH  28  35
ENDBRANCH  19  31
ENDBRANCH   1  25
TORSDOF 4
