REMARK  Name = ZINC12539667
REMARK  8 active torsions:
REMARK  status: ('A' for Active; 'I' for Inactive)
REMARK    1  A    between atoms: C_6  and  C_7
REMARK    2  A    between atoms: C_8  and  C_9
REMARK    3  A    between atoms: N_11  and  C_12
REMARK    4  A    between atoms: C_14  and  S_24
REMARK    5  A    between atoms: C_17  and  O_18
REMARK    6  A    between atoms: O_18  and  C_19
REMARK    7  A    between atoms: C_19  and  C_20
REMARK    8  A    between atoms: S_24  and  N_27
REMARK                            x       y       z     vdW  Elec       q    Type
REMARK                         _______ _______ _______ _____ _____    ______ ____
ROOT
ATOM      1  C   UNL     1      -0.000  -0.000   0.012  0.00  0.00    +0.078 A 
ATOM      2  C   UNL     1      -0.024   1.387   0.027  0.00  0.00    +0.055 A 
ATOM      3  C   UNL     1       1.161   2.098   0.029  0.00  0.00    +0.107 A 
ATOM      4  C   UNL     1       2.372   1.430   0.017  0.00  0.00    +0.032 A 
ATOM      5  C   UNL     1       2.404   0.048   0.003  0.00  0.00    +0.049 A 
ATOM      6  C   UNL     1       1.220  -0.672   0.000  0.00  0.00    +0.142 A 
ENDROOT
BRANCH   1   9
ATOM      7  C   UNL     1      -2.326  -0.158  -0.469  0.00  0.00    +0.241 C 
ATOM      8  O   UNL     1      -2.281   0.941  -0.992  0.00  0.00    -0.270 OA
ATOM      9  N   UNL     1      -1.200  -0.723   0.010  0.00  0.00    -0.279 N 
ATOM     10  H   UNL     1      -1.220  -1.629   0.353  0.00  0.00    +0.155 HD
BRANCH   7  12
ATOM     11  C   UNL     1      -4.729  -0.299  -0.841  0.00  0.00    +0.013 C 
ATOM     12  C   UNL     1      -3.601  -0.865  -0.361  0.00  0.00    +0.068 C 
BRANCH  11  18
ATOM     13  C   UNL     1      -6.066  -2.272  -0.132  0.00  0.00    +0.012 A 
ATOM     14  C   UNL     1      -7.269  -2.935  -0.032  0.00  0.00    +0.050 A 
ATOM     15  C   UNL     1      -8.430  -2.356  -0.525  0.00  0.00    +0.166 A 
ATOM     16  C   UNL     1      -8.384  -1.096  -1.126  0.00  0.00    +0.167 A 
ATOM     17  C   UNL     1      -7.183  -0.422  -1.224  0.00  0.00    +0.057 A 
ATOM     18  C   UNL     1      -6.011  -1.009  -0.733  0.00  0.00    -0.021 A 
ATOM     19  O   UNL     1      -9.646  -0.756  -1.522  0.00  0.00    -0.453 OA
ATOM     20  C   UNL     1     -10.525  -1.634  -0.794  0.00  0.00    +0.466 C 
ATOM     21  O   UNL     1      -9.720  -2.801  -0.548  0.00  0.00    -0.453 OA
ENDBRANCH  11  18
ENDBRANCH   7  12
ENDBRANCH   1   9
BRANCH   3  22
ATOM     22  S   UNL     1       1.130   3.859   0.048  0.00  0.00    +0.061 S 
ATOM     23  O   UNL     1       2.365   4.294  -0.503  0.00  0.00    -0.153 OA
ATOM     24  O   UNL     1      -0.125   4.249  -0.493  0.00  0.00    -0.153 OA
BRANCH  22  25
ATOM     25  N   UNL     1       1.128   4.332   1.635  0.00  0.00    -0.177 NA
ATOM     26  C   UNL     1      -0.138   4.529   2.356  0.00  0.00    +0.109 C 
ATOM     27  C   UNL     1      -0.103   3.689   3.642  0.00  0.00    +0.017 C 
ATOM     28  C   UNL     1       1.144   4.054   4.450  0.00  0.00    +0.003 C 
ATOM     29  C   UNL     1       2.397   3.733   3.632  0.00  0.00    +0.017 C 
ATOM     30  C   UNL     1       2.391   4.569   2.348  0.00  0.00    +0.109 C 
ENDBRANCH  22  25
ENDBRANCH   3  22
BRANCH   6  31
ATOM     31  O   UNL     1       1.249  -2.032  -0.015  0.00  0.00    -0.481 OA
BRANCH  31  32
ATOM     32  C   UNL     1       2.536  -2.653  -0.027  0.00  0.00    +0.342 C 
BRANCH  32  33
ATOM     33  C   UNL     1       2.369  -4.173  -0.043  0.00  0.00    +0.424 C 
ATOM     34  F   UNL     1       1.657  -4.552  -1.187  0.00  0.00    -0.167 F 
ATOM     35  F   UNL     1       3.628  -4.782  -0.055  0.00  0.00    -0.167 F 
ATOM     36  F   UNL     1       1.666  -4.577   1.098  0.00  0.00    -0.167 F 
ENDBRANCH  32  33
ENDBRANCH  31  32
ENDBRANCH   6  31
TORSDOF 8
