REMARK  Name = ZINC09789248
REMARK  10 active torsions:
REMARK  status: ('A' for Active; 'I' for Inactive)
REMARK    1  A    between atoms: C_1  and  C_2
REMARK    2  A    between atoms: C_2  and  C_3
REMARK    3  A    between atoms: C_3  and  N_4
REMARK    4  A    between atoms: C_5  and  C_28
REMARK    5  A    between atoms: C_8  and  S_9
REMARK    6  A    between atoms: S_9  and  C_10
REMARK    7  A    between atoms: C_10  and  C_12
REMARK    8  A    between atoms: C_10  and  C_13
REMARK    9  A    between atoms: N_15  and  C_16
REMARK   10  A    between atoms: C_17  and  C_26
REMARK                            x       y       z     vdW  Elec       q    Type
REMARK                         _______ _______ _______ _____ _____    ______ ____
ROOT
ATOM      1  C   UNL     1       4.048  -3.876   0.156  0.00  0.00    +0.137 C 
ATOM      2  C   UNL     1       3.240  -4.428   1.332  0.00  0.00    +0.029 C 
ENDROOT
BRANCH   1   3
ATOM      3  C   UNL     1       5.486  -3.703   0.573  0.00  0.00    +0.231 C 
ATOM      4  O   UNL     1       5.877  -2.626   0.971  0.00  0.00    -0.274 OA
ATOM      5  N   UNL     1       6.339  -4.744   0.502  0.00  0.00    -0.278 N 
ATOM      6  H   UNL     1       6.027  -5.606   0.183  0.00  0.00    +0.155 HD
BRANCH   5   7
ATOM      7  C   UNL     1       7.663  -4.585   0.885  0.00  0.00    +0.090 A 
ATOM      8  C   UNL     1       8.679  -5.526   0.884  0.00  0.00    +0.084 A 
ATOM      9  C   UNL     1       9.997  -5.102   1.336  0.00  0.00    -0.018 A 
ATOM     10  C   UNL     1      10.078  -3.811   1.724  0.00  0.00    -0.004 A 
ATOM     11  S   UNL     1       8.449  -3.158   1.474  0.00  0.00    -0.077 S 
ATOM     12  C   UNL     1      11.277  -3.085   2.248  0.00  0.00    +0.043 C 
ATOM     13  C   UNL     1      12.471  -3.346   1.320  0.00  0.00    +0.005 C 
ATOM     14  C   UNL     1      13.197  -4.597   1.807  0.00  0.00    +0.001 C 
ATOM     15  C   UNL     1      12.198  -5.583   2.410  0.00  0.00    +0.005 C 
ATOM     16  C   UNL     1      11.197  -6.041   1.356  0.00  0.00    +0.037 C 
BRANCH   8  17
ATOM     17  C   UNL     1       8.442  -6.870   0.452  0.00  0.00    +0.102 C 
ATOM     18  N   UNL     1       8.254  -7.937   0.109  0.00  0.00    -0.191 NA
ENDBRANCH   8  17
ENDBRANCH   5   7
ENDBRANCH   1   3
BRANCH   1  19
ATOM     19  S   UNL     1       3.368  -2.275  -0.345  0.00  0.00    -0.074 S 
BRANCH  19  24
ATOM     20  N   UNL     1       0.803  -1.972  -1.415  0.00  0.00    -0.302 N 
ATOM     21  C   UNL     1      -0.249  -2.805  -1.724  0.00  0.00    +0.165 A 
ATOM     22  N   UNL     1       0.117  -4.024  -1.401  0.00  0.00    -0.128 NA
ATOM     23  N   UNL     1       1.308  -4.011  -0.918  0.00  0.00    -0.122 NA
ATOM     24  C   UNL     1       1.778  -2.782  -0.909  0.00  0.00    +0.193 A 
BRANCH  21  25
ATOM     25  C   UNL     1      -1.545  -2.402  -2.308  0.00  0.00    +0.022 A 
ATOM     26  C   UNL     1      -1.978  -1.072  -2.252  0.00  0.00    +0.031 A 
ATOM     27  C   UNL     1      -3.192  -0.740  -2.815  0.00  0.00    +0.111 A 
ATOM     28  N   UNL     1      -3.947  -1.657  -3.389  0.00  0.00    -0.263 NA
ATOM     29  C   UNL     1      -3.580  -2.923  -3.458  0.00  0.00    +0.111 A 
ATOM     30  C   UNL     1      -2.379  -3.342  -2.927  0.00  0.00    +0.031 A 
ENDBRANCH  21  25
BRANCH  20  31
ATOM     31  C   UNL     1       0.865  -0.520  -1.597  0.00  0.00    +0.125 C 
BRANCH  31  33
ATOM     32  C   UNL     1       0.487   1.692  -0.499  0.00  0.00    +0.005 C 
ATOM     33  C   UNL     1       0.422   0.175  -0.308  0.00  0.00    +0.018 C 
ENDBRANCH  31  33
ENDBRANCH  20  31
ENDBRANCH  19  24
ENDBRANCH   1  19
TORSDOF 8
