REMARK  Name = ZINC32600612
REMARK  6 active torsions:
REMARK  status: ('A' for Active; 'I' for Inactive)
REMARK    1  A    between atoms: C_4  and  C_7
REMARK    2  A    between atoms: C_10  and  C_30
REMARK    3  A    between atoms: N_12  and  C_13
REMARK    4  A    between atoms: C_16  and  C_19
REMARK    5  A    between atoms: N_20  and  N_21
REMARK    6  A    between atoms: C_22  and  C_24
REMARK                            x       y       z     vdW  Elec       q    Type
REMARK                         _______ _______ _______ _____ _____    ______ ____
ROOT
ATOM      1  C   UNL     1      -4.718  -2.848  -0.065  0.00  0.00    +0.052 A 
ATOM      2  C   UNL     1      -4.695  -4.225   0.137  0.00  0.00    +0.025 A 
ATOM      3  C   UNL     1      -3.497  -4.904   0.122  0.00  0.00    +0.011 A 
ATOM      4  C   UNL     1      -2.304  -4.210  -0.096  0.00  0.00    -0.005 A 
ATOM      5  C   UNL     1      -2.330  -2.826  -0.293  0.00  0.00    +0.011 A 
ATOM      6  C   UNL     1      -3.532  -2.153  -0.282  0.00  0.00    +0.025 A 
ENDROOT
BRANCH   1  11
ATOM      7  C   UNL     1      -6.100  -0.716  -0.246  0.00  0.00    +0.134 C 
ATOM      8  C   UNL     1      -7.623  -0.510  -0.130  0.00  0.00    +0.087 C 
ATOM      9  C   UNL     1      -8.160  -1.899   0.127  0.00  0.00    +0.069 C 
ATOM     10  N   UNL     1      -7.184  -2.740   0.152  0.00  0.00    -0.183 NA
ATOM     11  N   UNL     1      -5.931  -2.164  -0.048  0.00  0.00    -0.216 N 
BRANCH   7  15
ATOM     12  C   UNL     1      -4.051   1.466   2.801  0.00  0.00    +0.000 A 
ATOM     13  C   UNL     1      -4.052   1.932   1.500  0.00  0.00    +0.000 A 
ATOM     14  C   UNL     1      -4.715   1.226   0.513  0.00  0.00    +0.005 A 
ATOM     15  C   UNL     1      -5.377   0.054   0.829  0.00  0.00    -0.025 A 
ATOM     16  C   UNL     1      -5.381  -0.408   2.132  0.00  0.00    +0.005 A 
ATOM     17  C   UNL     1      -4.714   0.295   3.117  0.00  0.00    +0.000 A 
ENDBRANCH   7  15
BRANCH   9  18
ATOM     18  C   UNL     1      -9.582  -2.241   0.315  0.00  0.00    -0.002 A 
ATOM     19  C   UNL     1     -10.556  -1.240   0.268  0.00  0.00    +0.010 A 
ATOM     20  C   UNL     1     -11.885  -1.568   0.439  0.00  0.00    +0.001 A 
ATOM     21  C   UNL     1     -12.254  -2.882   0.669  0.00  0.00    +0.000 A 
ATOM     22  C   UNL     1     -11.294  -3.877   0.723  0.00  0.00    +0.001 A 
ATOM     23  C   UNL     1      -9.962  -3.565   0.548  0.00  0.00    +0.010 A 
ENDBRANCH   9  18
ENDBRANCH   1  11
BRANCH   4  24
ATOM     24  C   UNL     1      -1.020  -4.933  -0.112  0.00  0.00    +0.138 C 
ATOM     25  N   UNL     1      -1.006  -6.229  -0.188  0.00  0.00    -0.187 NA
BRANCH  25  26
ATOM     26  N   UNL     1      -2.118  -6.913  -0.698  0.00  0.00    -0.203 N 
ATOM     27  C   UNL     1      -2.155  -8.260  -0.663  0.00  0.00    +0.265 C 
ATOM     28  O   UNL     1      -1.223  -8.881  -0.190  0.00  0.00    -0.268 OA
ATOM     29  H   UNL     1      -2.961  -6.351  -1.126  0.00  0.00    +0.178 HD
BRANCH  27  30
ATOM     30  C   UNL     1      -3.327  -8.981  -1.201  0.00  0.00    +0.056 A 
ATOM     31  C   UNL     1      -3.378 -10.380  -1.172  0.00  0.00    +0.016 A 
ATOM     32  C   UNL     1      -4.498 -11.007  -1.688  0.00  0.00    +0.020 A 
ATOM     33  C   UNL     1      -5.522 -10.239  -2.212  0.00  0.00    +0.111 A 
ATOM     34  N   UNL     1      -5.448  -8.922  -2.226  0.00  0.00    -0.263 NA
ATOM     35  C   UNL     1      -4.403  -8.279  -1.747  0.00  0.00    +0.123 A 
ENDBRANCH  27  30
ENDBRANCH  25  26
ENDBRANCH   4  24
TORSDOF 6
