REMARK  Name = ZINC05006909
REMARK  5 active torsions:
REMARK  status: ('A' for Active; 'I' for Inactive)
REMARK    1  A    between atoms: C_1  and  C_2
REMARK    2  A    between atoms: C_11  and  C_12
REMARK    3  A    between atoms: N_13  and  N_14
REMARK    4  A    between atoms: C_15  and  C_16
REMARK    5  A    between atoms: C_17  and  C_26
REMARK                            x       y       z     vdW  Elec       q    Type
REMARK                         _______ _______ _______ _____ _____    ______ ____
ROOT
ATOM      1  C   UNL     1      -1.291  -0.778   0.011  0.00  0.00    +0.046 C 
ATOM      2  C   UNL     1       0.002  -0.004   0.002  0.00  0.00    -0.024 A 
ATOM      3  C   UNL     1       1.193  -0.664  -0.013  0.00  0.00    +0.005 A 
ATOM      4  C   UNL     1       2.399   0.032  -0.020  0.00  0.00    +0.001 A 
ATOM      5  C   UNL     1       2.420   1.395  -0.013  0.00  0.00    +0.010 A 
ATOM      6  C   UNL     1       1.211   2.107   0.002  0.00  0.00    +0.004 A 
ATOM      7  C   UNL     1      -0.017   1.401   0.010  0.00  0.00    +0.076 A 
ATOM      8  N   UNL     1      -1.173   2.074   0.019  0.00  0.00    -0.230 NA
ATOM      9  C   UNL     1      -1.197   3.392   0.032  0.00  0.00    +0.139 A 
ATOM     10  C   UNL     1      -0.015   4.147   0.024  0.00  0.00    +0.049 A 
ATOM     11  C   UNL     1       1.193   3.517   0.009  0.00  0.00    -0.038 A 
ATOM     12  C   UNL     1       2.476   4.307   0.002  0.00  0.00    +0.044 C 
ATOM     13  N   UNL     1      -2.418   4.046   0.047  0.00  0.00    -0.221 N 
ATOM     14  H   UNL     1      -2.448   5.016   0.053  0.00  0.00    +0.176 HD
ENDROOT
BRANCH  13  15
ATOM     15  N   UNL     1      -3.608   3.308   0.055  0.00  0.00    -0.189 NA
ATOM     16  C   UNL     1      -4.753   3.921   0.069  0.00  0.00    +0.140 C 
BRANCH  16  17
ATOM     17  C   UNL     1      -6.005   3.146   0.077  0.00  0.00    +0.023 A 
ATOM     18  C   UNL     1      -6.121   1.791   0.065  0.00  0.00    +0.023 A 
ATOM     19  N   UNL     1      -7.440   1.442   0.082  0.00  0.00    -0.358 N 
ATOM     20  H   UNL     1      -7.773   0.531   0.080  0.00  0.00    +0.166 HD
ATOM     21  C   UNL     1      -8.231   2.571   0.096  0.00  0.00    +0.047 A 
ATOM     22  C   UNL     1      -7.375   3.685   0.094  0.00  0.00    +0.009 A 
ATOM     23  C   UNL     1      -7.907   4.973   0.107  0.00  0.00    +0.010 A 
ATOM     24  C   UNL     1      -9.273   5.147   0.122  0.00  0.00    +0.001 A 
ATOM     25  C   UNL     1     -10.120   4.047   0.123  0.00  0.00    +0.002 A 
ATOM     26  C   UNL     1      -9.608   2.768   0.111  0.00  0.00    +0.026 A 
ATOM     27  C   UNL     1      -4.967   0.821   0.040  0.00  0.00    +0.064 C 
ENDBRANCH  16  17
ENDBRANCH  13  15
TORSDOF 2
