REMARK  Name = ZINC63153332
REMARK  7 active torsions:
REMARK  status: ('A' for Active; 'I' for Inactive)
REMARK    1  A    between atoms: C_3  and  N_11
REMARK    2  A    between atoms: C_5  and  S_7
REMARK    3  A    between atoms: S_7  and  N_10
REMARK    4  A    between atoms: C_12  and  C_14
REMARK    5  A    between atoms: C_14  and  C_15
REMARK    6  A    between atoms: C_15  and  C_16
REMARK    7  A    between atoms: C_24  and  C_26
REMARK                            x       y       z     vdW  Elec       q    Type
REMARK                         _______ _______ _______ _____ _____    ______ ____
ROOT
ATOM      1  C   UNL     1       4.567   5.728  -0.329  0.00  0.00    +0.043 C 
ENDROOT
BRANCH   1   2
ATOM      2  C   UNL     1       5.862   6.489  -0.452  0.00  0.00    -0.034 C 
ATOM      3  C   UNL     1       7.110   5.970  -0.486  0.00  0.00    +0.002 A 
ATOM      4  C   UNL     1       7.616   4.594  -0.423  0.00  0.00    +0.048 A 
ATOM      5  C   UNL     1       8.953   4.383  -0.482  0.00  0.00    +0.124 A 
ATOM      6  C   UNL     1       9.862   5.445  -0.603  0.00  0.00    +0.040 A 
ATOM      7  C   UNL     1       9.472   6.735  -0.667  0.00  0.00    +0.029 A 
ATOM      8  C   UNL     1       8.091   7.072  -0.614  0.00  0.00    +0.043 A 
ATOM      9  N   UNL     1       7.472   8.227  -0.656  0.00  0.00    -0.374 N 
ATOM     10  C   UNL     1       6.027   7.988  -0.567  0.00  0.00    +0.137 C 
ATOM     11  F   UNL     1       9.422   3.117  -0.423  0.00  0.00    -0.205 F 
ATOM     12  H   UNL     1       7.898   9.095  -0.737  0.00  0.00    +0.161 HD
BRANCH  10  13
ATOM     13  C   UNL     1       5.337   8.493  -1.807  0.00  0.00    -0.021 A 
ATOM     14  C   UNL     1       5.951   8.368  -3.040  0.00  0.00    +0.009 A 
ATOM     15  C   UNL     1       5.318   8.831  -4.178  0.00  0.00    +0.039 A 
ATOM     16  C   UNL     1       4.068   9.419  -4.084  0.00  0.00    +0.123 A 
ATOM     17  C   UNL     1       3.454   9.544  -2.849  0.00  0.00    +0.039 A 
ATOM     18  C   UNL     1       4.086   9.076  -1.713  0.00  0.00    +0.009 A 
ATOM     19  F   UNL     1       3.449   9.872  -5.196  0.00  0.00    -0.205 F 
ENDBRANCH  10  13
ENDBRANCH   1   2
BRANCH   1  20
ATOM     20  C   UNL     1       4.863   4.229  -0.238  0.00  0.00    +0.100 C 
BRANCH  20  22
ATOM     21  N   UNL     1       3.584   2.123  -0.021  0.00  0.00    -0.285 N 
ATOM     22  C   UNL     1       3.569   3.468  -0.116  0.00  0.00    +0.217 C 
ATOM     23  O   UNL     1       2.513   4.065  -0.103  0.00  0.00    -0.275 OA
ATOM     24  H   UNL     1       4.429   1.652   0.045  0.00  0.00    +0.155 HD
BRANCH  21  27
ATOM     25  C   UNL     1       0.112   1.159  -0.752  0.00  0.00    +0.004 A 
ATOM     26  C   UNL     1       1.298   1.867  -0.756  0.00  0.00    +0.023 A 
ATOM     27  C   UNL     1       2.381   1.409  -0.019  0.00  0.00    +0.035 A 
ATOM     28  C   UNL     1       2.269   0.238   0.720  0.00  0.00    +0.051 A 
ATOM     29  C   UNL     1       1.081  -0.466   0.720  0.00  0.00    +0.107 A 
ATOM     30  C   UNL     1       0.003  -0.006  -0.015  0.00  0.00    +0.028 A 
BRANCH  29  31
ATOM     31  S   UNL     1       0.937  -1.951   1.657  0.00  0.00    +0.056 S 
ATOM     32  O   UNL     1      -0.102  -2.711   1.056  0.00  0.00    -0.153 OA
ATOM     33  O   UNL     1       2.255  -2.457   1.820  0.00  0.00    -0.153 OA
BRANCH  31  34
ATOM     34  N   UNL     1       0.402  -1.528   3.166  0.00  0.00    -0.204 NA
ATOM     35  H   UNL     1      -0.141  -2.147   3.679  0.00  0.00    +0.144 HD
ATOM     36  H   UNL     1       0.633  -0.662   3.537  0.00  0.00    +0.144 HD
ENDBRANCH  31  34
ENDBRANCH  29  31
ENDBRANCH  21  27
ENDBRANCH  20  22
ENDBRANCH   1  20
TORSDOF 7
