REMARK  Name = ZINC28054102
REMARK  3 active torsions:
REMARK  status: ('A' for Active; 'I' for Inactive)
REMARK    1  A    between atoms: C_1  and  C_2
REMARK    2  A    between atoms: C_5  and  C_8
REMARK    3  A    between atoms: C_19  and  C_21
REMARK                            x       y       z     vdW  Elec       q    Type
REMARK                         _______ _______ _______ _____ _____    ______ ____
ROOT
ATOM      1  C   UNL     1       2.569  -0.352  -2.202  0.00  0.00    +0.174 C 
ATOM      2  C   UNL     1       2.958   0.895  -1.446  0.00  0.00    +0.025 C 
ATOM      3  C   UNL     1       3.699   1.860  -1.995  0.00  0.00    +0.050 C 
ATOM      4  C   UNL     1       4.050   3.038  -1.165  0.00  0.00    +0.039 A 
ATOM      5  C   UNL     1       4.514   4.216  -1.737  0.00  0.00    +0.033 A 
ATOM      6  C   UNL     1       4.830   5.289  -0.924  0.00  0.00    +0.042 A 
ATOM      7  C   UNL     1       4.685   5.191   0.450  0.00  0.00    +0.023 A 
ATOM      8  C   UNL     1       4.224   4.021   1.026  0.00  0.00    +0.048 A 
ATOM      9  C   UNL     1       3.904   2.941   0.225  0.00  0.00    +0.131 A 
ATOM     10  O   UNL     1       3.447   1.776   0.751  0.00  0.00    -0.479 OA
ATOM     11  C   UNL     1       2.490   1.047  -0.017  0.00  0.00    +0.234 C 
ATOM     12 CL   UNL     1       5.410   6.766  -1.628  0.00  0.00    -0.084 Cl
ATOM     13  N   UNL     1       4.146   1.798  -3.320  0.00  0.00    -0.282 N 
ATOM     14  C   UNL     1       3.580   0.834  -4.137  0.00  0.00    +0.240 A 
ATOM     15  N   UNL     1       2.832  -0.178  -3.623  0.00  0.00    -0.201 N 
ATOM     16  N   UNL     1       2.427  -0.935  -4.722  0.00  0.00    -0.042 NA
ATOM     17  N   UNL     1       2.933  -0.366  -5.768  0.00  0.00    -0.021 NA
ATOM     18  N   UNL     1       3.614   0.675  -5.429  0.00  0.00    -0.092 NA
ATOM     19  H   UNL     1       4.917   2.498  -3.673  0.00  0.00    +0.155 HD
ENDROOT
BRANCH   1  24
ATOM     20  C   UNL     1       5.637  -4.830  -0.220  0.00  0.00    +0.044 C 
ATOM     21  C   UNL     1       4.837  -3.662  -0.736  0.00  0.00    -0.050 A 
ATOM     22  C   UNL     1       3.457  -3.676  -0.649  0.00  0.00    +0.004 A 
ATOM     23  C   UNL     1       2.724  -2.605  -1.124  0.00  0.00    +0.006 A 
ATOM     24  C   UNL     1       3.369  -1.519  -1.685  0.00  0.00    -0.019 A 
ATOM     25  C   UNL     1       4.748  -1.507  -1.776  0.00  0.00    +0.006 A 
ATOM     26  C   UNL     1       5.483  -2.576  -1.297  0.00  0.00    +0.004 A 
ENDBRANCH   1  24
BRANCH  11  27
ATOM     27  C   UNL     1       1.175   1.783   0.000  0.00  0.00    -0.003 A 
ATOM     28  C   UNL     1      -0.003   1.089   0.204  0.00  0.00    +0.009 A 
ATOM     29  C   UNL     1      -1.210   1.763   0.214  0.00  0.00    +0.020 A 
ATOM     30  C   UNL     1      -1.238   3.134   0.031  0.00  0.00    +0.041 A 
ATOM     31  C   UNL     1      -0.058   3.828  -0.173  0.00  0.00    +0.020 A 
ATOM     32  C   UNL     1       1.147   3.152  -0.189  0.00  0.00    +0.009 A 
ATOM     33 CL   UNL     1      -2.752   3.982   0.050  0.00  0.00    -0.084 Cl
ENDBRANCH  11  27
TORSDOF 2
