REMARK  Name = ZINC22479750
REMARK  4 active torsions:
REMARK  status: ('A' for Active; 'I' for Inactive)
REMARK    1  A    between atoms: C_1  and  O_2
REMARK    2  A    between atoms: O_2  and  C_3
REMARK    3  A    between atoms: C_10  and  C_12
REMARK    4  A    between atoms: N_20  and  C_21
REMARK                            x       y       z     vdW  Elec       q    Type
REMARK                         _______ _______ _______ _____ _____    ______ ____
ROOT
ATOM      1  C   UNL     1      -8.087   3.179   0.057  0.00  0.00    +0.115 A 
ATOM      2  C   UNL     1      -7.671   4.484   0.062  0.00  0.00    +0.080 A 
ATOM      3  S   UNL     1      -5.896   4.268   0.061  0.00  0.00    -0.060 S 
ATOM      4  C   UNL     1      -5.886   2.481   0.043  0.00  0.00    +0.166 A 
ATOM      5  N   UNL     1      -7.177   2.208   0.047  0.00  0.00    -0.221 NA
ATOM      6  N   UNL     1      -4.805   1.609   0.033  0.00  0.00    -0.248 N 
ATOM      7  C   UNL     1      -3.547   2.095   0.030  0.00  0.00    +0.310 C 
ATOM      8  O   UNL     1      -3.360   3.296   0.036  0.00  0.00    -0.252 OA
ATOM      9  N   UNL     1      -2.498   1.249   0.020  0.00  0.00    -0.263 N 
ATOM     10  H   UNL     1      -4.974   0.522   0.028  0.00  0.00    +0.158 HD
ATOM     11  H   UNL     1      -2.668   0.162   0.015  0.00  0.00    +0.157 HD
ENDROOT
BRANCH   1  19
ATOM     12  C   UNL     1     -13.040   3.621   0.082  0.00  0.00    +0.163 A 
ATOM     13  C   UNL     1     -14.096   2.727   0.081  0.00  0.00    +0.049 A 
ATOM     14  C   UNL     1     -13.865   1.359   0.072  0.00  0.00    +0.004 A 
ATOM     15  C   UNL     1     -12.577   0.872   0.064  0.00  0.00    +0.012 A 
ATOM     16  C   UNL     1     -11.500   1.762   0.065  0.00  0.00    +0.024 A 
ATOM     17  C   UNL     1     -11.730   3.147   0.073  0.00  0.00    +0.177 A 
ATOM     18  O   UNL     1     -10.527   3.759   0.071  0.00  0.00    -0.450 OA
ATOM     19  C   UNL     1      -9.528   2.854   0.062  0.00  0.00    +0.155 A 
ATOM     20  C   UNL     1     -10.044   1.601   0.052  0.00  0.00    +0.060 A 
BRANCH  12  22
ATOM     21  C   UNL     1     -14.648   5.372   0.099  0.00  0.00    +0.277 C 
ATOM     22  O   UNL     1     -13.280   4.959   0.091  0.00  0.00    -0.491 OA
ENDBRANCH  12  22
ENDBRANCH   1  19
BRANCH   9  23
ATOM     23  C   UNL     1      -1.194   1.753   0.017  0.00  0.00    +0.073 A 
ATOM     24  C   UNL     1      -0.013   1.076   0.008  0.00  0.00    +0.031 A 
ATOM     25  C   UNL     1       1.168   1.796   0.001  0.00  0.00    +0.009 A 
ATOM     26  C   UNL     1       1.114   3.149   0.008  0.00  0.00    +0.047 A 
ATOM     27  S   UNL     1      -0.645   3.452   0.026  0.00  0.00    -0.082 S 
ENDBRANCH   9  23
TORSDOF 3
