REMARK  Name = ZINC08756979
REMARK  5 active torsions:
REMARK  status: ('A' for Active; 'I' for Inactive)
REMARK    1  A    between atoms: C_1  and  C_2
REMARK    2  A    between atoms: C_5  and  N_9
REMARK    3  A    between atoms: C_10  and  C_12
REMARK    4  A    between atoms: C_12  and  S_13
REMARK    5  A    between atoms: S_13  and  C_14
REMARK                            x       y       z     vdW  Elec       q    Type
REMARK                         _______ _______ _______ _____ _____    ______ ____
ROOT
ATOM      1  C   UNL     1       0.011  -0.003  -0.035  0.00  0.00    +0.103 C 
ATOM      2  N   UNL     1       1.102  -0.635   0.298  0.00  0.00    -0.251 NA
ATOM      3  C   UNL     1       2.326   0.080   0.693  0.00  0.00    +0.126 C 
ATOM      4  C   UNL     1       3.526  -0.764   0.198  0.00  0.00    +0.050 C 
ATOM      5  C   UNL     1       4.740   0.115   0.098  0.00  0.00    +0.004 C 
ATOM      6  C   UNL     1       5.615   0.075   1.367  0.00  0.00    +0.000 C 
ATOM      7  C   UNL     1       4.785   0.102   2.664  0.00  0.00    +0.000 C 
ATOM      8  C   UNL     1       3.636   1.071   2.579  0.00  0.00    +0.004 C 
ATOM      9  C   UNL     1       2.384   0.297   2.135  0.00  0.00    +0.050 C 
ATOM     10  N   UNL     1       2.381   1.363  -0.043  0.00  0.00    -0.320 N 
ATOM     11  C   UNL     1       1.229   2.145  -0.054  0.00  0.00    +0.039 A 
ATOM     12  C   UNL     1      -0.007   1.474  -0.035  0.00  0.00    +0.027 A 
ATOM     13  C   UNL     1      -1.189   2.202  -0.024  0.00  0.00    +0.012 A 
ATOM     14  C   UNL     1      -1.137   3.583  -0.029  0.00  0.00    +0.001 A 
ATOM     15  C   UNL     1       0.082   4.241  -0.059  0.00  0.00    +0.002 A 
ATOM     16  C   UNL     1       1.266   3.526  -0.072  0.00  0.00    +0.023 A 
ATOM     17  H   UNL     1       3.188   1.649  -0.500  0.00  0.00    +0.148 HD
ENDROOT
BRANCH   1  18
ATOM     18  S   UNL     1      -1.434  -0.906  -0.481  0.00  0.00    -0.096 S 
BRANCH  18  19
ATOM     19  C   UNL     1      -0.817  -2.598  -0.298  0.00  0.00    +0.171 C 
BRANCH  19  21
ATOM     20  N   UNL     1      -1.682  -4.899  -0.572  0.00  0.00    -0.284 N 
ATOM     21  C   UNL     1      -1.914  -3.573  -0.638  0.00  0.00    +0.227 C 
ATOM     22  O   UNL     1      -3.006  -3.164  -0.972  0.00  0.00    -0.275 OA
ATOM     23  H   UNL     1      -0.792  -5.226  -0.369  0.00  0.00    +0.155 HD
BRANCH  20  28
ATOM     24  C   UNL     1      -5.913  -8.569  -1.484  0.00  0.00    +0.044 C 
ATOM     25  C   UNL     1      -4.789  -7.594  -1.241  0.00  0.00    -0.049 A 
ATOM     26  C   UNL     1      -4.745  -6.403  -1.942  0.00  0.00    +0.005 A 
ATOM     27  C   UNL     1      -3.717  -5.508  -1.723  0.00  0.00    +0.025 A 
ATOM     28  C   UNL     1      -2.726  -5.804  -0.796  0.00  0.00    +0.052 A 
ATOM     29  C   UNL     1      -2.769  -7.004  -0.097  0.00  0.00    +0.062 A 
ATOM     30  C   UNL     1      -3.804  -7.893  -0.318  0.00  0.00    +0.025 A 
ATOM     31 CL   UNL     1      -1.529  -7.383   1.058  0.00  0.00    -0.082 Cl
ENDBRANCH  20  28
ENDBRANCH  19  21
ENDBRANCH  18  19
ENDBRANCH   1  18
TORSDOF 4
