REMARK  Name = ZINC39665565
REMARK  10 active torsions:
REMARK  status: ('A' for Active; 'I' for Inactive)
REMARK    1  A    between atoms: C_1  and  C_2
REMARK    2  A    between atoms: C_2  and  C_4
REMARK    3  A    between atoms: C_2  and  O_31
REMARK    4  A    between atoms: C_4  and  N_5
REMARK    5  A    between atoms: C_6  and  C_8
REMARK    6  A    between atoms: C_19  and  C_21
REMARK    7  A    between atoms: C_26  and  C_27
REMARK    8  A    between atoms: O_31  and  C_32
REMARK    9  A    between atoms: C_35  and  O_38
REMARK   10  A    between atoms: O_38  and  C_39
REMARK                            x       y       z     vdW  Elec       q    Type
REMARK                         _______ _______ _______ _____ _____    ______ ____
ROOT
ATOM      1  C   UNL     1       1.769  -5.512   3.279  0.00  0.00    +0.100 C 
ATOM      2  C   UNL     1       0.323  -6.045   3.389  0.00  0.00    +0.121 C 
ATOM      3  N   UNL     1       0.335  -6.917   4.588  0.00  0.00    -0.296 N 
ATOM      4  C   UNL     1       1.193  -6.196   5.559  0.00  0.00    +0.115 C 
ATOM      5  C   UNL     1       2.336  -5.612   4.705  0.00  0.00    -0.004 C 
ATOM      6  C   UNL     1       2.723  -4.228   5.218  0.00  0.00    -0.010 C 
ATOM      7  C   UNL     1       3.338  -4.360   6.614  0.00  0.00    -0.082 C 
ATOM      8  N   UNL     1       4.520  -5.228   6.550  0.00  0.00    +0.379 N 
ATOM      9  C   UNL     1       4.125  -6.583   6.145  0.00  0.00    -0.082 C 
ATOM     10  C   UNL     1       3.543  -6.545   4.729  0.00  0.00    -0.010 C 
ATOM     11  C   UNL     1      -0.291  -8.098   4.756  0.00  0.00    +0.247 C 
ATOM     12  O   UNL     1      -0.257  -8.655   5.836  0.00  0.00    -0.270 OA
ATOM     13  H   UNL     1       5.174  -4.855   5.878  0.00  0.00    -0.086 HD
ATOM     14  H   UNL     1       4.959  -5.265   7.458  0.00  0.00    -0.086 HD
ENDROOT
BRANCH  11  15
ATOM     15  C   UNL     1      -1.020  -8.716   3.628  0.00  0.00    +0.049 A 
ATOM     16  C   UNL     1      -1.891  -7.949   2.852  0.00  0.00    +0.013 A 
ATOM     17  C   UNL     1      -2.568  -8.532   1.801  0.00  0.00    +0.001 A 
ATOM     18  C   UNL     1      -2.385  -9.873   1.515  0.00  0.00    +0.001 A 
ATOM     19  C   UNL     1      -1.524 -10.639   2.280  0.00  0.00    +0.013 A 
ATOM     20  C   UNL     1      -0.837 -10.067   3.331  0.00  0.00    +0.067 A 
BRANCH  20  21
ATOM     21  C   UNL     1       0.106 -10.901   4.160  0.00  0.00    +0.418 C 
ATOM     22  F   UNL     1       0.121 -12.212   3.671  0.00  0.00    -0.166 F 
ATOM     23  F   UNL     1       1.395 -10.361   4.086  0.00  0.00    -0.166 F 
ATOM     24  F   UNL     1      -0.322 -10.904   5.492  0.00  0.00    -0.166 F 
ENDBRANCH  20  21
ENDBRANCH  11  15
BRANCH   1  26
ATOM     25  N   UNL     1       2.803  -3.599   2.101  0.00  0.00    -0.312 N 
ATOM     26  C   UNL     1       1.766  -4.078   2.815  0.00  0.00    +0.218 C 
ATOM     27  O   UNL     1       0.829  -3.356   3.084  0.00  0.00    -0.275 OA
ATOM     28  H   UNL     1       3.552  -4.176   1.887  0.00  0.00    +0.149 HD
BRANCH  25  29
ATOM     29  C   UNL     1       2.800  -2.205   1.650  0.00  0.00    +0.148 C 
BRANCH  29  31
ATOM     30  C   UNL     1       4.080  -0.464   0.397  0.00  0.00    +0.053 C 
ATOM     31  C   UNL     1       4.084  -1.919   0.868  0.00  0.00    +0.187 C 
BRANCH  31  32
ATOM     32  O   UNL     1       5.215  -2.145   1.710  0.00  0.00    -0.488 OA
BRANCH  32  33
ATOM     33  C   UNL     1       6.378  -2.501   1.101  0.00  0.00    +0.121 A 
ATOM     34  C   UNL     1       7.491  -2.821   1.864  0.00  0.00    +0.049 A 
ATOM     35  C   UNL     1       8.671  -3.183   1.245  0.00  0.00    +0.049 A 
ATOM     36  C   UNL     1       8.743  -3.228  -0.140  0.00  0.00    +0.120 A 
ATOM     37  C   UNL     1       7.630  -2.909  -0.902  0.00  0.00    +0.049 A 
ATOM     38  C   UNL     1       6.448  -2.551  -0.283  0.00  0.00    +0.049 A 
BRANCH  36  39
ATOM     39  O   UNL     1       9.906  -3.584  -0.749  0.00  0.00    -0.495 OA
ATOM     40  C   UNL     1       9.908  -3.608  -2.178  0.00  0.00    +0.277 C 
ENDBRANCH  36  39
ENDBRANCH  32  33
ENDBRANCH  31  32
ENDBRANCH  29  31
ENDBRANCH  25  29
ENDBRANCH   1  26
TORSDOF 8
