REMARK  Name = ZINC05028290
REMARK  9 active torsions:
REMARK  status: ('A' for Active; 'I' for Inactive)
REMARK    1  A    between atoms: C_6  and  C_7
REMARK    2  A    between atoms: C_8  and  C_13
REMARK    3  A    between atoms: C_14  and  C_15
REMARK    4  A    between atoms: C_14  and  C_17
REMARK    5  A    between atoms: C_18  and  C_26
REMARK    6  A    between atoms: C_19  and  N_25
REMARK    7  A    between atoms: N_20  and  C_22
REMARK    8  A    between atoms: C_22  and  C_23
REMARK    9  A    between atoms: C_23  and  O_24
REMARK                            x       y       z     vdW  Elec       q    Type
REMARK                         _______ _______ _______ _____ _____    ______ ____
ROOT
ATOM      1  C   UNL     1       1.489   4.269   0.011  0.00  0.00    +0.032 C 
ATOM      2  C   UNL     1       2.844   4.151   0.101  0.00  0.00    +0.081 C 
ENDROOT
BRANCH   1   4
ATOM      3  C   UNL     1      -0.781   2.954  -0.037  0.00  0.00    +0.100 A 
ATOM      4  C   UNL     1       0.665   3.084  -0.249  0.00  0.00    +0.021 A 
ATOM      5  C   UNL     1       1.097   1.867  -0.742  0.00  0.00    +0.113 A 
ATOM      6  N   UNL     1       0.029   1.056  -0.830  0.00  0.00    -0.284 N 
ATOM      7  H   UNL     1       0.049   0.110  -1.154  0.00  0.00    +0.188 HD
ATOM      8  N   UNL     1      -1.114   1.736  -0.401  0.00  0.00    -0.173 NA
BRANCH   3  14
ATOM      9  C   UNL     1      -1.251   4.893   1.457  0.00  0.00    +0.011 A 
ATOM     10  C   UNL     1      -2.103   5.868   1.934  0.00  0.00    +0.020 A 
ATOM     11  C   UNL     1      -3.399   5.952   1.455  0.00  0.00    +0.041 A 
ATOM     12  C   UNL     1      -3.846   5.064   0.492  0.00  0.00    +0.020 A 
ATOM     13  C   UNL     1      -3.000   4.089   0.004  0.00  0.00    +0.011 A 
ATOM     14  C   UNL     1      -1.694   3.999   0.483  0.00  0.00    +0.003 A 
ATOM     15 CL   UNL     1      -4.469   7.176   2.066  0.00  0.00    -0.084 Cl
ENDBRANCH   3  14
ENDBRANCH   1   4
BRANCH   2  16
ATOM     16  C   UNL     1       3.686   5.363   0.212  0.00  0.00    +0.122 A 
ATOM     17  C   UNL     1       5.150   5.401   0.316  0.00  0.00    +0.119 A 
ATOM     18  C   UNL     1       5.499   6.746   0.397  0.00  0.00    +0.133 A 
ATOM     19  N   UNL     1       4.361   7.466   0.348  0.00  0.00    -0.247 N 
ATOM     20  N   UNL     1       3.265   6.608   0.230  0.00  0.00    -0.167 NA
BRANCH  18  21
ATOM     21  N   UNL     1       6.780   7.250   0.509  0.00  0.00    -0.342 N 
ATOM     22  H   UNL     1       7.539   6.647   0.536  0.00  0.00    +0.144 HD
ATOM     23  H   UNL     1       6.921   8.209   0.559  0.00  0.00    +0.144 HD
ENDBRANCH  18  21
BRANCH  17  24
ATOM     24  C   UNL     1       6.040   4.279   0.331  0.00  0.00    +0.105 C 
ATOM     25  N   UNL     1       6.746   3.389   0.343  0.00  0.00    -0.191 NA
ENDBRANCH  17  24
BRANCH  19  26
ATOM     26  C   UNL     1       4.285   8.928   0.405  0.00  0.00    +0.173 C 
BRANCH  26  27
ATOM     27  C   UNL     1       4.359   9.498  -1.013  0.00  0.00    +0.179 C 
BRANCH  27  28
ATOM     28  O   UNL     1       4.285  10.924  -0.958  0.00  0.00    -0.393 OA
ATOM     29  H   UNL     1       4.326  11.354  -1.823  0.00  0.00    +0.209 HD
ENDBRANCH  27  28
ENDBRANCH  26  27
ENDBRANCH  19  26
ENDBRANCH   2  16
BRANCH   2  30
ATOM     30  C   UNL     1       3.452   2.855   0.088  0.00  0.00    +0.101 C 
ATOM     31  N   UNL     1       3.935   1.827   0.078  0.00  0.00    -0.191 NA
ENDBRANCH   2  30
TORSDOF 9
