REMARK  Name = ZINC32586918
REMARK  6 active torsions:
REMARK  status: ('A' for Active; 'I' for Inactive)
REMARK    1  A    between atoms: C_3  and  O_25
REMARK    2  A    between atoms: C_6  and  S_7
REMARK    3  A    between atoms: S_7  and  N_10
REMARK    4  A    between atoms: N_10  and  N_11
REMARK    5  A    between atoms: C_12  and  C_14
REMARK    6  A    between atoms: O_25  and  C_26
REMARK                            x       y       z     vdW  Elec       q    Type
REMARK                         _______ _______ _______ _____ _____    ______ ____
ROOT
ATOM      1  N   UNL     1      -3.221   4.237  -1.528  0.00  0.00    -0.108 NA
ATOM      2  H   UNL     1      -3.346   5.139  -1.861  0.00  0.00    +0.172 HD
ENDROOT
BRANCH   1   3
ATOM      3  N   UNL     1      -3.414   3.142  -2.380  0.00  0.00    -0.231 N 
ATOM      4  C   UNL     1      -4.582   2.998  -3.038  0.00  0.00    +0.234 C 
ATOM      5  O   UNL     1      -5.465   3.817  -2.891  0.00  0.00    -0.274 OA
ATOM      6  H   UNL     1      -2.614   2.400  -2.513  0.00  0.00    +0.171 HD
BRANCH   4   7
ATOM      7  C   UNL     1      -4.791   1.821  -3.955  0.00  0.00    +0.049 C 
ATOM      8  C   UNL     1      -3.741   1.849  -5.067  0.00  0.00    +0.019 C 
ATOM      9  C   UNL     1      -3.953   0.654  -5.999  0.00  0.00    -0.009 C 
ATOM     10  C   UNL     1      -5.351   0.728  -6.614  0.00  0.00    +0.007 C 
ATOM     11  C   UNL     1      -6.401   0.700  -5.502  0.00  0.00    -0.009 C 
ATOM     12  C   UNL     1      -6.189   1.896  -4.571  0.00  0.00    +0.019 C 
ATOM     13  C   UNL     1      -6.264  -0.598  -4.704  0.00  0.00    +0.007 C 
ATOM     14  C   UNL     1      -4.865  -0.673  -4.088  0.00  0.00    -0.009 C 
ATOM     15  C   UNL     1      -3.816  -0.645  -5.201  0.00  0.00    +0.007 C 
ATOM     16  C   UNL     1      -4.654   0.523  -3.157  0.00  0.00    +0.019 C 
ENDBRANCH   4   7
ENDBRANCH   1   3
BRANCH   1  17
ATOM     17  S   UNL     1      -2.778   3.990   0.049  0.00  0.00    +0.074 S 
ATOM     18  O   UNL     1      -3.733   3.097   0.604  0.00  0.00    -0.152 OA
ATOM     19  O   UNL     1      -2.522   5.273   0.604  0.00  0.00    -0.152 OA
BRANCH  17  25
ATOM     20  C   UNL     1      -1.218   1.751   0.017  0.00  0.00    +0.032 A 
ATOM     21  C   UNL     1      -0.013   1.076   0.008  0.00  0.00    +0.049 A 
ATOM     22  C   UNL     1       1.179   1.786   0.000  0.00  0.00    +0.145 A 
ATOM     23  C   UNL     1       1.156   3.174   0.008  0.00  0.00    +0.085 A 
ATOM     24  C   UNL     1      -0.052   3.844   0.022  0.00  0.00    +0.052 A 
ATOM     25  C   UNL     1      -1.238   3.133   0.030  0.00  0.00    +0.108 A 
ATOM     26 CL   UNL     1       2.645   4.067  -0.001  0.00  0.00    -0.080 Cl
BRANCH  22  27
ATOM     27  O   UNL     1       2.366   1.124  -0.015  0.00  0.00    -0.433 OA
BRANCH  27  28
ATOM     28  C   UNL     1       2.312  -0.304  -0.022  0.00  0.00    +0.541 C 
ATOM     29  F   UNL     1       1.647  -0.751   1.125  0.00  0.00    -0.166 F 
ATOM     30  F   UNL     1       1.625  -0.739  -1.160  0.00  0.00    -0.166 F 
ENDBRANCH  27  28
ENDBRANCH  22  27
ENDBRANCH  17  25
ENDBRANCH   1  17
TORSDOF 6
