REMARK  Name = ZINC12532389
REMARK  7 active torsions:
REMARK  status: ('A' for Active; 'I' for Inactive)
REMARK    1  A    between atoms: C_4  and  C_7
REMARK    2  A    between atoms: C_7  and  C_9
REMARK    3  A    between atoms: C_7  and  O_22
REMARK    4  A    between atoms: N_11  and  C_12
REMARK    5  A    between atoms: C_15  and  N_19
REMARK    6  A    between atoms: O_22  and  C_23
REMARK    7  A    between atoms: C_23  and  C_25
REMARK                            x       y       z     vdW  Elec       q    Type
REMARK                         _______ _______ _______ _____ _____    ______ ____
ROOT
ATOM      1  C   UNL     1      -5.978   4.747   0.068  0.00  0.00    +0.292 C 
ENDROOT
BRANCH   1   5
ATOM      2  C   UNL     1      -7.431   4.514  -3.943  0.00  0.00    +0.000 A 
ATOM      3  C   UNL     1      -7.964   3.694  -2.966  0.00  0.00    +0.000 A 
ATOM      4  C   UNL     1      -7.494   3.769  -1.668  0.00  0.00    +0.008 A 
ATOM      5  C   UNL     1      -6.491   4.664  -1.347  0.00  0.00    +0.002 A 
ATOM      6  C   UNL     1      -5.961   5.488  -2.323  0.00  0.00    +0.008 A 
ATOM      7  C   UNL     1      -6.428   5.410  -3.622  0.00  0.00    +0.000 A 
ENDBRANCH   1   5
BRANCH   1   8
ATOM      8  C   UNL     1      -6.701   5.847   0.801  0.00  0.00    +0.263 C 
ATOM      9  O   UNL     1      -6.090   6.823   1.184  0.00  0.00    -0.271 OA
ATOM     10  N   UNL     1      -8.025   5.748   1.030  0.00  0.00    -0.281 N 
ATOM     11  H   UNL     1      -8.525   5.000   0.667  0.00  0.00    +0.155 HD
BRANCH  10  12
ATOM     12  C   UNL     1      -8.679   6.724   1.791  0.00  0.00    +0.048 A 
ATOM     13  C   UNL     1      -8.274   8.050   1.718  0.00  0.00    +0.026 A 
ATOM     14  C   UNL     1      -8.921   9.011   2.470  0.00  0.00    +0.034 A 
ATOM     15  C   UNL     1      -9.971   8.653   3.297  0.00  0.00    +0.127 A 
ATOM     16  C   UNL     1     -10.377   7.334   3.373  0.00  0.00    +0.049 A 
ATOM     17  C   UNL     1      -9.737   6.368   2.618  0.00  0.00    +0.041 A 
ATOM     18 BR   UNL     1     -10.298   4.565   2.716  0.00  0.00    -0.048 Br
BRANCH  15  19
ATOM     19  N   UNL     1     -10.662   9.686   4.102  0.00  0.00    +0.056 N 
ATOM     20  O   UNL     1     -10.306  10.848   4.036  0.00  0.00    -0.126 OA
ATOM     21  O   UNL     1     -11.586   9.372   4.830  0.00  0.00    -0.126 OA
ENDBRANCH  15  19
ENDBRANCH  10  12
ENDBRANCH   1   8
BRANCH   1  22
ATOM     22  O   UNL     1      -4.554   5.030   0.051  0.00  0.00    -0.442 OA
BRANCH  22  23
ATOM     23  C   UNL     1      -3.720   3.971   0.028  0.00  0.00    +0.361 C 
ATOM     24  O   UNL     1      -4.171   2.842   0.021  0.00  0.00    -0.243 OA
BRANCH  23  25
ATOM     25  C   UNL     1      -2.263   4.182   0.010  0.00  0.00    +0.177 A 
ATOM     26  C   UNL     1      -1.223   3.145  -0.016  0.00  0.00    +0.034 A 
ATOM     27  C   UNL     1      -1.208   1.753  -0.037  0.00  0.00    +0.012 A 
ATOM     28  C   UNL     1      -0.011   1.093  -0.056  0.00  0.00    +0.001 A 
ATOM     29  C   UNL     1       1.185   1.800  -0.064  0.00  0.00    +0.002 A 
ATOM     30  C   UNL     1       1.192   3.167  -0.049  0.00  0.00    +0.028 A 
ATOM     31  C   UNL     1      -0.012   3.864  -0.024  0.00  0.00    +0.067 A 
ATOM     32  N   UNL     1      -0.358   5.190  -0.004  0.00  0.00    -0.276 N 
ATOM     33  H   UNL     1       0.298   5.944  -0.005  0.00  0.00    +0.189 HD
ATOM     34  N   UNL     1      -1.633   5.338   0.015  0.00  0.00    -0.166 NA
ENDBRANCH  23  25
ENDBRANCH  22  23
ENDBRANCH   1  22
TORSDOF 7
