REMARK  Name = ZINC19006856
REMARK  10 active torsions:
REMARK  status: ('A' for Active; 'I' for Inactive)
REMARK    1  A    between atoms: C_1  and  C_2
REMARK    2  A    between atoms: C_2  and  N_3
REMARK    3  A    between atoms: C_7  and  C_8
REMARK    4  A    between atoms: C_12  and  N_14
REMARK    5  A    between atoms: C_19  and  C_20
REMARK    6  A    between atoms: C_19  and  C_22
REMARK    7  A    between atoms: C_22  and  C_24
REMARK    8  A    between atoms: C_24  and  C_25
REMARK    9  A    between atoms: C_24  and  C_26
REMARK   10  A    between atoms: C_24  and  C_27
REMARK                            x       y       z     vdW  Elec       q    Type
REMARK                         _______ _______ _______ _____ _____    ______ ____
ROOT
ATOM      1  N   UNL     1       2.511   0.969  -0.173  0.00  0.00    -0.301 N 
ATOM      2  C   UNL     1       1.373   1.629  -0.317  0.00  0.00    +0.266 A 
ATOM      3  O   UNL     1       1.324   2.845  -0.329  0.00  0.00    -0.266 OA
ATOM      4  C   UNL     1       0.165   0.792  -0.463  0.00  0.00    +0.079 A 
ATOM      5  C   UNL     1      -1.129   1.165  -0.629  0.00  0.00    +0.028 C 
ATOM      6  S   UNL     1       0.870  -0.846  -0.367  0.00  0.00    -0.065 S 
ATOM      7  C   UNL     1       2.532  -0.397  -0.164  0.00  0.00    +0.105 A 
ATOM      8  C   UNL     1       3.643  -1.242  -0.022  0.00  0.00    +0.125 C 
ENDROOT
BRANCH   5   9
ATOM      9  C   UNL     1      -1.506   2.581  -0.513  0.00  0.00    -0.022 A 
ATOM     10  C   UNL     1      -2.470   3.126  -1.370  0.00  0.00    +0.008 A 
ATOM     11  C   UNL     1      -2.817   4.454  -1.255  0.00  0.00    +0.003 A 
ATOM     12  C   UNL     1      -2.217   5.250  -0.294  0.00  0.00    +0.033 A 
ATOM     13  C   UNL     1      -1.264   4.720   0.558  0.00  0.00    +0.127 A 
ATOM     14  C   UNL     1      -0.907   3.391   0.458  0.00  0.00    +0.040 A 
BRANCH  13  15
ATOM     15  N   UNL     1      -0.629   5.579   1.582  0.00  0.00    +0.056 N 
ATOM     16  O   UNL     1      -0.946   6.752   1.674  0.00  0.00    -0.126 OA
ATOM     17  O   UNL     1       0.210   5.114   2.332  0.00  0.00    -0.126 OA
ENDBRANCH  13  15
ENDBRANCH   5   9
BRANCH   1  19
ATOM     18  C   UNL     1       4.300   2.097  -1.402  0.00  0.00    +0.027 C 
ATOM     19  C   UNL     1       3.764   1.713  -0.021  0.00  0.00    +0.122 C 
ENDBRANCH   1  19
BRANCH   8  20
ATOM     20  C   UNL     1       3.456  -2.656   0.098  0.00  0.00    +0.105 C 
ATOM     21  N   UNL     1       3.307  -3.779   0.193  0.00  0.00    -0.191 NA
ENDBRANCH   8  20
BRANCH   8  22
ATOM     22  C   UNL     1       4.941  -0.699   0.003  0.00  0.00    +0.181 C 
ATOM     23  O   UNL     1       5.400  -0.175  -0.994  0.00  0.00    -0.291 OA
BRANCH  22  24
ATOM     24  C   UNL     1       5.762  -0.767   1.264  0.00  0.00    +0.026 C 
ATOM     25  C   UNL     1       7.123  -0.110   1.023  0.00  0.00    +0.019 C 
ATOM     26  C   UNL     1       5.032  -0.029   2.389  0.00  0.00    +0.019 C 
ATOM     27  C   UNL     1       5.966  -2.230   1.662  0.00  0.00    +0.019 C 
ENDBRANCH  22  24
ENDBRANCH   8  22
TORSDOF 6
