REMARK  Name = ZINC12810956
REMARK  7 active torsions:
REMARK  status: ('A' for Active; 'I' for Inactive)
REMARK    1  A    between atoms: C_1  and  C_2
REMARK    2  A    between atoms: C_6  and  N_11
REMARK    3  A    between atoms: N_11  and  C_12
REMARK    4  A    between atoms: C_12  and  C_14
REMARK    5  A    between atoms: C_12  and  C_15
REMARK    6  A    between atoms: N_17  and  C_18
REMARK    7  A    between atoms: C_19  and  C_23
REMARK                            x       y       z     vdW  Elec       q    Type
REMARK                         _______ _______ _______ _____ _____    ______ ____
ROOT
ATOM      1  C   UNL     1       5.248   4.577  -0.026  0.00  0.00    +0.154 C 
ATOM      2  C   UNL     1       5.753   4.510  -1.469  0.00  0.00    +0.038 C 
ENDROOT
BRANCH   1   3
ATOM      3  C   UNL     1       5.627   5.905   0.577  0.00  0.00    +0.238 C 
ATOM      4  O   UNL     1       4.764   6.657   0.979  0.00  0.00    -0.273 OA
ATOM      5  N   UNL     1       6.924   6.258   0.670  0.00  0.00    -0.278 N 
ATOM      6  H   UNL     1       7.614   5.657   0.348  0.00  0.00    +0.155 HD
BRANCH   5   7
ATOM      7  C   UNL     1       7.273   7.480   1.225  0.00  0.00    +0.084 A 
ATOM      8  C   UNL     1       8.543   8.013   1.410  0.00  0.00    +0.065 A 
ATOM      9  C   UNL     1       8.616   9.321   2.016  0.00  0.00    +0.022 A 
ATOM     10  C   UNL     1       7.453   9.906   2.357  0.00  0.00    +0.048 A 
ATOM     11  S   UNL     1       6.232   8.708   1.862  0.00  0.00    -0.081 S 
BRANCH   8  12
ATOM     12  C   UNL     1       9.750   7.284   1.008  0.00  0.00    +0.244 C 
ATOM     13  O   UNL     1       9.653   6.183   0.496  0.00  0.00    -0.270 OA
ATOM     14  N   UNL     1      10.965   7.832   1.203  0.00  0.00    -0.325 N 
ATOM     15  H   UNL     1      11.042   8.709   1.610  0.00  0.00    +0.145 HD
ATOM     16  H   UNL     1      11.763   7.349   0.936  0.00  0.00    +0.145 HD
ENDBRANCH   8  12
ENDBRANCH   5   7
ENDBRANCH   1   3
BRANCH   1  17
ATOM     17  N   UNL     1       3.790   4.433  -0.012  0.00  0.00    -0.333 N 
ATOM     18  H   UNL     1       3.225   5.221  -0.002  0.00  0.00    +0.147 HD
BRANCH  17  24
ATOM     19  C   UNL     1      -1.223  -0.882   0.009  0.00  0.00    +0.109 C 
ATOM     20  C   UNL     1       0.002  -0.004   0.002  0.00  0.00    +0.194 A 
ATOM     21  N   UNL     1      -0.015   1.295   0.009  0.00  0.00    -0.213 NA
ATOM     22  C   UNL     1       1.266   1.751  -0.001  0.00  0.00    +0.111 A 
ATOM     23  C   UNL     1       1.837   3.025   0.000  0.00  0.00    +0.054 A 
ATOM     24  C   UNL     1       3.214   3.158  -0.013  0.00  0.00    +0.030 A 
ATOM     25  C   UNL     1       4.028   2.028  -0.026  0.00  0.00    +0.026 A 
ATOM     26  C   UNL     1       3.472   0.767  -0.027  0.00  0.00    +0.050 A 
ATOM     27  C   UNL     1       2.093   0.618  -0.015  0.00  0.00    +0.155 A 
ATOM     28  O   UNL     1       1.267  -0.452  -0.013  0.00  0.00    -0.440 OA
ENDBRANCH  17  24
ENDBRANCH   1  17
TORSDOF 5
