REMARK  Name = ZINC63042109
REMARK  6 active torsions:
REMARK  status: ('A' for Active; 'I' for Inactive)
REMARK    1  A    between atoms: C_1  and  C_2
REMARK    2  A    between atoms: C_2  and  C_3
REMARK    3  A    between atoms: C_3  and  C_5
REMARK    4  A    between atoms: C_3  and  C_15
REMARK    5  A    between atoms: C_10  and  N_11
REMARK    6  A    between atoms: C_15  and  C_17
REMARK                            x       y       z     vdW  Elec       q    Type
REMARK                         _______ _______ _______ _____ _____    ______ ____
ROOT
ATOM      1  C   UNL     1      -0.735  -2.249  -1.649  0.00  0.00    -0.013 A 
ATOM      2  C   UNL     1      -0.296  -3.203  -0.749  0.00  0.00    +0.007 A 
ATOM      3  C   UNL     1      -0.158  -4.518  -1.149  0.00  0.00    +0.016 A 
ATOM      4  C   UNL     1      -0.460  -4.881  -2.449  0.00  0.00    +0.020 A 
ATOM      5  C   UNL     1      -0.899  -3.927  -3.349  0.00  0.00    +0.048 A 
ATOM      6  C   UNL     1      -1.041  -2.612  -2.947  0.00  0.00    +0.131 A 
ATOM      7 BR   UNL     1      -0.271  -6.681  -2.997  0.00  0.00    -0.050 Br
ENDROOT
BRANCH   6   8
ATOM      8  N   UNL     1      -1.516  -1.591  -3.908  0.00  0.00    +0.057 N 
ATOM      9  O   UNL     1      -2.304  -1.896  -4.773  0.00  0.00    -0.126 OA
ATOM     10  O   UNL     1      -1.117  -0.453  -3.828  0.00  0.00    -0.126 OA
ENDBRANCH   6   8
BRANCH   1  11
ATOM     11  C   UNL     1      -0.885  -0.814  -1.212  0.00  0.00    +0.038 C 
BRANCH  11  12
ATOM     12  C   UNL     1       0.494  -0.226  -0.908  0.00  0.00    +0.085 C 
ATOM     13  C   UNL     1       1.163  -1.041   0.201  0.00  0.00    +0.025 C 
ATOM     14 CL   UNL     1       1.513  -0.284  -2.394  0.00  0.00    -0.121 Cl
ENDBRANCH  11  12
BRANCH  11  16
ATOM     15  C   UNL     1      -1.984   0.709   0.436  0.00  0.00    +0.004 C 
ATOM     16  C   UNL     1      -1.754  -0.752   0.046  0.00  0.00    +0.006 C 
ENDBRANCH  11  16
ENDBRANCH   1  11
TORSDOF 4
