REMARK  Name = ZINC00126770
REMARK  7 active torsions:
REMARK  status: ('A' for Active; 'I' for Inactive)
REMARK    1  A    between atoms: C_1  and  C_2
REMARK    2  A    between atoms: C_2  and  N_9
REMARK    3  A    between atoms: C_3  and  C_4
REMARK    4  A    between atoms: C_3  and  C_6
REMARK    5  A    between atoms: C_6  and  N_8
REMARK    6  A    between atoms: N_9  and  N_10
REMARK    7  A    between atoms: C_14  and  C_17
REMARK                            x       y       z     vdW  Elec       q    Type
REMARK                         _______ _______ _______ _____ _____    ______ ____
ROOT
ATOM      1  N   UNL     1       0.123  -2.096  -1.110  0.00  0.00    -0.250 N 
ATOM      2  C   UNL     1       0.333  -2.815  -2.281  0.00  0.00    +0.153 A 
ATOM      3  C   UNL     1       0.345  -4.207  -2.243  0.00  0.00    +0.083 A 
ATOM      4  C   UNL     1       0.554  -4.910  -3.417  0.00  0.00    +0.037 A 
ATOM      5  C   UNL     1       0.746  -4.195  -4.592  0.00  0.00    +0.074 A 
ATOM      6  C   UNL     1       0.722  -2.816  -4.556  0.00  0.00    +0.125 A 
ATOM      7  N   UNL     1       0.515  -2.171  -3.423  0.00  0.00    -0.237 NA
ATOM      8 CL   UNL     1       0.100  -5.049  -0.745  0.00  0.00    -0.080 Cl
ATOM      9  H   UNL     1      -0.011  -2.564  -0.271  0.00  0.00    +0.171 HD
ENDROOT
BRANCH   5  10
ATOM     10  C   UNL     1       0.979  -4.918  -5.894  0.00  0.00    +0.419 C 
ATOM     11  F   UNL     1      -0.249  -5.159  -6.519  0.00  0.00    -0.166 F 
ATOM     12  F   UNL     1       1.780  -4.132  -6.728  0.00  0.00    -0.166 F 
ATOM     13  F   UNL     1       1.621  -6.136  -5.642  0.00  0.00    -0.166 F 
ENDBRANCH   5  10
BRANCH   1  14
ATOM     14  N   UNL     1       0.105  -0.695  -1.142  0.00  0.00    -0.268 N 
ATOM     15  H   UNL     1       0.163  -0.229  -1.990  0.00  0.00    +0.170 HD
BRANCH  14  17
ATOM     16  C   UNL     1       0.040  -0.709   1.340  0.00  0.00    +0.063 C 
ATOM     17  C   UNL     1       0.005   0.009   0.015  0.00  0.00    +0.038 C 
ATOM     18  C   UNL     1      -0.127   1.380  -0.022  0.00  0.00    +0.097 C 
BRANCH  18  19
ATOM     19  C   UNL     1      -0.269   2.052  -1.278  0.00  0.00    +0.103 C 
ATOM     20  N   UNL     1      -0.383   2.585  -2.275  0.00  0.00    -0.191 NA
ENDBRANCH  18  19
BRANCH  18  21
ATOM     21  C   UNL     1      -0.121   2.152   1.226  0.00  0.00    +0.089 C 
ATOM     22  S   UNL     1       1.335   2.850   1.795  0.00  0.00    -0.034 S 
BRANCH  21  23
ATOM     23  N   UNL     1      -1.263   2.311   1.925  0.00  0.00    -0.351 N 
ATOM     24  H   UNL     1      -2.088   1.916   1.602  0.00  0.00    +0.143 HD
ATOM     25  H   UNL     1      -1.260   2.821   2.750  0.00  0.00    +0.143 HD
ENDBRANCH  21  23
ENDBRANCH  18  21
ENDBRANCH  14  17
ENDBRANCH   1  14
TORSDOF 6
