REMARK  Name = ZINC36024514
REMARK  9 active torsions:
REMARK  status: ('A' for Active; 'I' for Inactive)
REMARK    1  A    between atoms: C_1  and  C_2
REMARK    2  A    between atoms: C_2  and  C_3
REMARK    3  A    between atoms: C_3  and  C_5
REMARK    4  A    between atoms: C_3  and  N_6
REMARK    5  A    between atoms: C_9  and  C_28
REMARK    6  A    between atoms: N_15  and  S_18
REMARK    7  A    between atoms: S_18  and  C_21
REMARK    8  A    between atoms: C_28  and  C_29
REMARK    9  A    between atoms: C_28  and  C_30
REMARK                            x       y       z     vdW  Elec       q    Type
REMARK                         _______ _______ _______ _____ _____    ______ ____
ROOT
ATOM      1  N   UNL     1       2.115  -0.118  -1.482  0.00  0.00    -0.311 N 
ATOM      2  C   UNL     1       3.171  -0.584  -0.784  0.00  0.00    +0.201 C 
ATOM      3  O   UNL     1       3.122  -1.385   0.125  0.00  0.00    -0.277 OA
ATOM      4  C   UNL     1       4.428   0.061  -1.327  0.00  0.00    +0.022 C 
ATOM      5  N   UNL     1       3.948   1.227  -2.107  0.00  0.00    +0.401 N 
ATOM      6  C   UNL     1       2.582   0.822  -2.506  0.00  0.00    +0.006 C 
ATOM      7  C   UNL     1       1.674   2.049  -2.550  0.00  0.00    +0.023 C 
ATOM      8  C   UNL     1       0.252   1.616  -2.921  0.00  0.00    +0.109 C 
ATOM      9  N   UNL     1       0.303   0.847  -4.172  0.00  0.00    -0.177 NA
ATOM     10  C   UNL     1       1.205  -0.310  -4.254  0.00  0.00    +0.109 C 
ATOM     11  C   UNL     1       2.619   0.139  -3.872  0.00  0.00    +0.023 C 
ATOM     12  H   UNL     1       3.925   2.055  -1.532  0.00  0.00    -0.082 HD
ATOM     13  H   UNL     1       4.526   1.372  -2.922  0.00  0.00    -0.082 HD
ENDROOT
BRANCH   9  14
ATOM     14  S   UNL     1      -0.636   1.277  -5.466  0.00  0.00    +0.061 S 
ATOM     15  O   UNL     1      -0.801   0.107  -6.256  0.00  0.00    -0.153 OA
ATOM     16  O   UNL     1      -1.739   2.004  -4.943  0.00  0.00    -0.153 OA
BRANCH  14  17
ATOM     17  C   UNL     1       0.300   2.412  -6.436  0.00  0.00    +0.107 A 
ATOM     18  C   UNL     1       0.221   3.768  -6.182  0.00  0.00    +0.028 A 
ATOM     19  C   UNL     1       0.955   4.659  -6.943  0.00  0.00    +0.003 A 
ATOM     20  C   UNL     1       1.769   4.193  -7.958  0.00  0.00    +0.020 A 
ATOM     21  C   UNL     1       1.849   2.836  -8.213  0.00  0.00    +0.043 A 
ATOM     22  C   UNL     1       1.118   1.944  -7.447  0.00  0.00    +0.048 A 
ATOM     23 CL   UNL     1       2.871   2.251  -9.488  0.00  0.00    -0.083 Cl
ENDBRANCH  14  17
ENDBRANCH   9  14
BRANCH   4  24
ATOM     24  C   UNL     1       5.330   0.520  -0.179  0.00  0.00    -0.023 C 
ATOM     25  C   UNL     1       5.748  -0.692   0.657  0.00  0.00    +0.006 C 
ATOM     26  C   UNL     1       6.576   1.200  -0.750  0.00  0.00    +0.006 C 
ENDBRANCH   4  24
BRANCH   1  27
ATOM     27  C   UNL     1       0.718  -0.497  -1.257  0.00  0.00    +0.071 C 
ATOM     28  C   UNL     1       0.621  -2.017  -1.102  0.00  0.00    +0.028 C 
BRANCH  27  30
ATOM     29  C   UNL     1       0.185   1.696  -0.185  0.00  0.00    +0.005 C 
ATOM     30  C   UNL     1       0.205   0.179   0.016  0.00  0.00    +0.019 C 
ENDBRANCH  27  30
ENDBRANCH   1  27
TORSDOF 5
