REMARK  Name = ZINC11763078
REMARK  11 active torsions:
REMARK  status: ('A' for Active; 'I' for Inactive)
REMARK    1  A    between atoms: C_1  and  C_2
REMARK    2  A    between atoms: C_7  and  C_8
REMARK    3  A    between atoms: C_8  and  N_65
REMARK    4  A    between atoms: C_11  and  C_14
REMARK    5  A    between atoms: C_14  and  N_67
REMARK    6  A    between atoms: C_15  and  C_16
REMARK    7  A    between atoms: C_15  and  N_67
REMARK    8  A    between atoms: C_19  and  C_21
REMARK    9  A    between atoms: C_21  and  O_22
REMARK   10  A    between atoms: C_23  and  C_24
REMARK   11  A    between atoms: C_23  and  N_67
REMARK                            x       y       z     vdW  Elec       q    Type
REMARK                         _______ _______ _______ _____ _____    ______ ____
ROOT
ATOM      1  N   UNL     1      -0.850   0.868  -0.576  0.00  0.00    +0.386 N 
ATOM      2  H   UNL     1      -1.809   0.661  -0.273  0.00  0.00    -0.081 HD
ENDROOT
BRANCH   1   3
ATOM      3  C   UNL     1      -0.770   2.288  -0.979  0.00  0.00    -0.075 C 
BRANCH   3   6
ATOM      4  C   UNL     1      -2.478   5.404   0.501  0.00  0.00    -0.078 C 
ATOM      5  C   UNL     1      -1.603   4.585  -0.451  0.00  0.00    -0.017 C 
ATOM      6  C   UNL     1      -1.595   3.123   0.003  0.00  0.00    -0.031 C 
ATOM      7  C   UNL     1      -3.033   2.598   0.039  0.00  0.00    -0.017 C 
ATOM      8  C   UNL     1      -3.867   3.476   0.975  0.00  0.00    -0.078 C 
ATOM      9  N   UNL     1      -3.855   4.865   0.470  0.00  0.00    +0.382 N 
ATOM     10  H   UNL     1      -4.193   4.870  -0.499  0.00  0.00    -0.081 HD
BRANCH   9  11
ATOM     11  C   UNL     1      -4.745   5.709   1.293  0.00  0.00    -0.043 C 
BRANCH  11  18
ATOM     12  C   UNL     1      -6.129   6.569  -1.093  0.00  0.00    +0.044 C 
ATOM     13  C   UNL     1      -6.833   5.696  -0.086  0.00  0.00    -0.049 A 
ATOM     14  C   UNL     1      -8.141   5.304  -0.307  0.00  0.00    +0.003 A 
ATOM     15  C   UNL     1      -8.789   4.507   0.618  0.00  0.00    +0.000 A 
ATOM     16  C   UNL     1      -8.128   4.100   1.763  0.00  0.00    +0.000 A 
ATOM     17  C   UNL     1      -6.820   4.489   1.981  0.00  0.00    +0.002 A 
ATOM     18  C   UNL     1      -6.172   5.285   1.055  0.00  0.00    -0.061 A 
ENDBRANCH  11  18
ENDBRANCH   9  11
ENDBRANCH   3   6
ENDBRANCH   1   3
BRANCH   1  19
ATOM     19  C   UNL     1      -0.509  -0.002  -1.721  0.00  0.00    -0.003 C 
BRANCH  19  20
ATOM     20  C   UNL     1      -0.810  -1.432  -1.351  0.00  0.00    +0.089 A 
ATOM     21  C   UNL     1      -1.987  -2.059  -1.525  0.00  0.00    +0.043 A 
ATOM     22  C   UNL     1      -1.824  -3.378  -1.045  0.00  0.00    +0.047 A 
ATOM     23  C   UNL     1      -0.559  -3.477  -0.598  0.00  0.00    +0.130 A 
ATOM     24  O   UNL     1       0.051  -2.295  -0.786  0.00  0.00    -0.464 OA
BRANCH  23  25
ATOM     25  C   UNL     1       0.068  -4.705   0.009  0.00  0.00    +0.230 C 
BRANCH  25  26
ATOM     26  O   UNL     1       0.667  -5.493  -1.021  0.00  0.00    -0.387 OA
ATOM     27  H   UNL     1       1.091  -6.301  -0.702  0.00  0.00    +0.210 HD
ENDBRANCH  25  26
ENDBRANCH  23  25
ENDBRANCH  19  20
ENDBRANCH   1  19
BRANCH   1  28
ATOM     28  C   UNL     1       0.075   0.610   0.548  0.00  0.00    -0.046 C 
BRANCH  28  29
ATOM     29  C   UNL     1      -0.688   0.805   1.860  0.00  0.00    +0.102 C 
ATOM     30  C   UNL     1       0.211   0.442   3.063  0.00  0.00    +0.032 C 
ATOM     31  C   UNL     1      -0.754  -0.236   4.061  0.00  0.00    +0.030 C 
ATOM     32  C   UNL     1      -2.121  -0.203   3.343  0.00  0.00    +0.160 C 
ATOM     33  O   UNL     1      -1.800  -0.113   1.937  0.00  0.00    -0.378 OA
ENDBRANCH  28  29
ENDBRANCH   1  28
TORSDOF 10
