REMARK  Name = ZINC24971472
REMARK  11 active torsions:
REMARK  status: ('A' for Active; 'I' for Inactive)
REMARK    1  A    between atoms: C_1  and  C_2
REMARK    2  A    between atoms: C_3  and  C_16
REMARK    3  A    between atoms: C_4  and  C_15
REMARK    4  A    between atoms: N_5  and  C_7
REMARK    5  A    between atoms: C_16  and  N_17
REMARK    6  A    between atoms: N_17  and  C_18
REMARK    7  A    between atoms: N_17  and  C_19
REMARK    8  A    between atoms: C_19  and  C_20
REMARK    9  A    between atoms: N_25  and  C_26
REMARK   10  A    between atoms: C_29  and  O_32
REMARK   11  A    between atoms: O_32  and  C_33
REMARK                            x       y       z     vdW  Elec       q    Type
REMARK                         _______ _______ _______ _____ _____    ______ ____
ROOT
ATOM      1  N   UNL     1       4.388   7.452  -0.568  0.00  0.00    +0.384 N 
ATOM      2  C   UNL     1       4.548   7.644  -2.015  0.00  0.00    -0.095 C 
ATOM      3  H   UNL     1       4.854   6.492  -0.300  0.00  0.00    -0.081 HD
ENDROOT
BRANCH   1   4
ATOM      4  C   UNL     1       2.967   7.381  -0.200  0.00  0.00    -0.039 C 
BRANCH   4   7
ATOM      5  C   UNL     1       1.598   7.163  -3.050  0.00  0.00    +0.068 C 
ATOM      6  C   UNL     1       1.751   6.043  -2.054  0.00  0.00    +0.062 A 
ATOM      7  C   UNL     1       2.355   6.140  -0.796  0.00  0.00    -0.021 A 
ATOM      8  C   UNL     1       2.293   4.922  -0.210  0.00  0.00    +0.038 A 
ATOM      9  N   UNL     1       1.672   4.084  -1.066  0.00  0.00    -0.263 N 
ATOM     10  N   UNL     1       1.346   4.809  -2.219  0.00  0.00    -0.176 NA
ATOM     11  C   UNL     1       2.823   4.565   1.155  0.00  0.00    +0.065 C 
BRANCH   9  12
ATOM     12  C   UNL     1       1.393   2.665  -0.833  0.00  0.00    +0.130 C 
ATOM     13  C   UNL     1       2.061   1.818  -1.929  0.00  0.00    +0.051 C 
ATOM     14  C   UNL     1       1.516   0.369  -1.881  0.00  0.00    +0.168 C 
ATOM     15  S   UNL     1      -0.173   0.596  -1.191  0.00  0.00    -0.029 S 
ATOM     16  O   UNL     1      -0.256  -0.076   0.058  0.00  0.00    -0.174 OA
ATOM     17  O   UNL     1      -1.129   0.310  -2.203  0.00  0.00    -0.174 OA
ATOM     18  C   UNL     1      -0.141   2.414  -0.894  0.00  0.00    +0.192 C 
ENDBRANCH   9  12
ENDBRANCH   4   7
ENDBRANCH   1   4
BRANCH   1  19
ATOM     19  C   UNL     1       5.073   8.512   0.183  0.00  0.00    -0.022 C 
BRANCH  19  20
ATOM     20  C   UNL     1       6.561   8.398  -0.031  0.00  0.00    +0.034 A 
ATOM     21  C   UNL     1       7.181   9.128  -0.989  0.00  0.00    +0.070 A 
ATOM     22  S   UNL     1       8.871   8.589  -0.776  0.00  0.00    -0.060 S 
ATOM     23  C   UNL     1       8.592   7.478   0.529  0.00  0.00    +0.162 A 
ATOM     24  N   UNL     1       7.290   7.588   0.714  0.00  0.00    -0.232 NA
ATOM     25  N   UNL     1       9.503   6.683   1.207  0.00  0.00    -0.294 N 
ATOM     26  H   UNL     1       9.182   6.106   2.086  0.00  0.00    +0.154 HD
BRANCH  25  27
ATOM     27  C   UNL     1      10.832   6.616   0.772  0.00  0.00    +0.033 A 
ATOM     28  C   UNL     1      11.125   6.701  -0.583  0.00  0.00    +0.027 A 
ATOM     29  C   UNL     1      12.437   6.640  -1.010  0.00  0.00    +0.047 A 
ATOM     30  C   UNL     1      13.461   6.482  -0.087  0.00  0.00    +0.120 A 
ATOM     31  C   UNL     1      13.169   6.391   1.266  0.00  0.00    +0.047 A 
ATOM     32  C   UNL     1      11.858   6.458   1.695  0.00  0.00    +0.027 A 
BRANCH  30  33
ATOM     33  O   UNL     1      14.752   6.417  -0.510  0.00  0.00    -0.495 OA
ATOM     34  C   UNL     1      14.980   6.518  -1.917  0.00  0.00    +0.277 C 
ENDBRANCH  30  33
ENDBRANCH  25  27
ENDBRANCH  19  20
ENDBRANCH   1  19
TORSDOF 7
