REMARK  Name = ZINC38752725
REMARK  8 active torsions:
REMARK  status: ('A' for Active; 'I' for Inactive)
REMARK    1  A    between atoms: C_1  and  C_2
REMARK    2  A    between atoms: C_5  and  C_8
REMARK    3  A    between atoms: C_8  and  C_10
REMARK    4  A    between atoms: C_10  and  S_11
REMARK    5  A    between atoms: S_11  and  C_12
REMARK    6  A    between atoms: C_16  and  C_20
REMARK    7  A    between atoms: N_18  and  N_19
REMARK    8  A    between atoms: C_23  and  C_26
REMARK                            x       y       z     vdW  Elec       q    Type
REMARK                         _______ _______ _______ _____ _____    ______ ____
ROOT
ATOM      1  C   UNL     1       0.114  -7.549   2.584  0.00  0.00    +0.214 C 
ATOM      2  N   UNL     1      -1.042  -7.082   3.394  0.00  0.00    -0.228 NA
ATOM      3  N   UNL     1      -0.613  -7.263   4.783  0.00  0.00    -0.234 NA
ATOM      4  C   UNL     1       0.864  -7.255   4.781  0.00  0.00    +0.185 C 
ATOM      5  N   UNL     1       1.285  -7.077   3.370  0.00  0.00    -0.197 NA
ATOM      6  H   UNL     1      -1.249  -6.113   3.202  0.00  0.00    +0.143 HD
ATOM      7  H   UNL     1      -0.978  -6.529   5.372  0.00  0.00    +0.143 HD
ENDROOT
BRANCH   4   8
ATOM      8  C   UNL     1       1.383  -6.098   5.637  0.00  0.00    +0.187 C 
ATOM      9  C   UNL     1       0.988  -6.287   7.091  0.00  0.00    +0.034 C 
ATOM     10  C   UNL     1       0.215  -5.216   7.356  0.00  0.00    +0.091 C 
ATOM     11  N   UNL     1       0.105  -4.426   6.256  0.00  0.00    -0.154 NA
ATOM     12  N   UNL     1       0.719  -4.838   5.265  0.00  0.00    -0.176 NA
BRANCH  10  13
ATOM     13  C   UNL     1      -0.425  -4.938   8.666  0.00  0.00    +0.002 A 
ATOM     14  C   UNL     1      -0.242  -5.815   9.734  0.00  0.00    +0.010 A 
ATOM     15  C   UNL     1      -0.840  -5.551  10.949  0.00  0.00    +0.001 A 
ATOM     16  C   UNL     1      -1.619  -4.420  11.109  0.00  0.00    +0.000 A 
ATOM     17  C   UNL     1      -1.804  -3.546  10.052  0.00  0.00    +0.001 A 
ATOM     18  C   UNL     1      -1.207  -3.797   8.834  0.00  0.00    +0.010 A 
ENDBRANCH  10  13
ENDBRANCH   4   8
BRANCH   5  19
ATOM     19  N   UNL     1       2.467  -7.870   3.071  0.00  0.00    -0.264 NA
ATOM     20  H   UNL     1       2.704  -7.811   2.092  0.00  0.00    +0.137 HD
ATOM     21  H   UNL     1       3.245  -7.591   3.650  0.00  0.00    +0.137 HD
ENDBRANCH   5  19
BRANCH   1  22
ATOM     22  S   UNL     1       0.096  -6.787   0.938  0.00  0.00    -0.116 S 
BRANCH  22  23
ATOM     23  C   UNL     1       0.075  -5.006   1.280  0.00  0.00    +0.151 C 
BRANCH  23  24
ATOM     24  C   UNL     1       0.058  -4.245  -0.021  0.00  0.00    +0.173 C 
ATOM     25  O   UNL     1       0.060  -4.846  -1.075  0.00  0.00    -0.291 OA
BRANCH  24  30
ATOM     26  C   UNL     1      -0.018   1.503   0.010  0.00  0.00    +0.044 C 
ATOM     27  C   UNL     1       0.002  -0.004   0.002  0.00  0.00    -0.050 A 
ATOM     28  C   UNL     1       0.006  -0.686  -1.202  0.00  0.00    +0.004 A 
ATOM     29  C   UNL     1       0.024  -2.064  -1.218  0.00  0.00    +0.011 A 
ATOM     30  C   UNL     1       0.039  -2.774  -0.013  0.00  0.00    +0.018 A 
ATOM     31  C   UNL     1       0.036  -2.078   1.200  0.00  0.00    +0.011 A 
ATOM     32  C   UNL     1       0.023  -0.699   1.199  0.00  0.00    +0.004 A 
ENDBRANCH  24  30
ENDBRANCH  23  24
ENDBRANCH  22  23
ENDBRANCH   1  22
TORSDOF 7
