REMARK  Name = ZINC31637252
REMARK  12 active torsions:
REMARK  status: ('A' for Active; 'I' for Inactive)
REMARK    1  A    between atoms: C_1  and  O_2
REMARK    2  A    between atoms: O_2  and  C_3
REMARK    3  A    between atoms: C_6  and  C_9
REMARK    4  A    between atoms: C_9  and  C_30
REMARK    5  A    between atoms: N_12  and  C_16
REMARK    6  A    between atoms: C_16  and  C_17
REMARK    7  A    between atoms: N_19  and  C_20
REMARK    8  A    between atoms: N_19  and  C_24
REMARK    9  A    between atoms: C_20  and  C_21
REMARK   10  A    between atoms: C_21  and  C_22
REMARK   11  A    between atoms: C_33  and  O_36
REMARK   12  A    between atoms: O_36  and  C_37
REMARK                            x       y       z     vdW  Elec       q    Type
REMARK                         _______ _______ _______ _____ _____    ______ ____
ROOT
ATOM      1  C   UNL     1      -1.187   2.589   0.353  0.00  0.00    +0.164 C 
ATOM      2  C   UNL     1      -0.151   1.668  -0.260  0.00  0.00    +0.256 C 
ATOM      3  O   UNL     1      -0.266   0.483  -0.486  0.00  0.00    -0.272 OA
ATOM      4  N   UNL     1       0.924   2.443  -0.508  0.00  0.00    -0.215 N 
ATOM      5  C   UNL     1       0.715   3.711  -0.135  0.00  0.00    +0.310 C 
ATOM      6  O   UNL     1       1.538   4.596  -0.259  0.00  0.00    -0.252 OA
ATOM      7  N   UNL     1      -0.509   3.897   0.391  0.00  0.00    -0.278 N 
ATOM      8  H   UNL     1      -1.030   4.774   0.801  0.00  0.00    +0.152 HD
ENDROOT
BRANCH   1  12
ATOM      9  C   UNL     1      -4.681   2.768  -2.101  0.00  0.00    +0.120 A 
ATOM     10  C   UNL     1      -4.026   1.559  -1.910  0.00  0.00    +0.046 A 
ATOM     11  C   UNL     1      -2.897   1.504  -1.117  0.00  0.00    +0.010 A 
ATOM     12  C   UNL     1      -2.419   2.652  -0.512  0.00  0.00    -0.011 A 
ATOM     13  C   UNL     1      -3.073   3.857  -0.696  0.00  0.00    +0.010 A 
ATOM     14  C   UNL     1      -4.199   3.918  -1.493  0.00  0.00    +0.046 A 
BRANCH   9  16
ATOM     15  C   UNL     1      -6.414   4.102  -3.032  0.00  0.00    +0.277 C 
ATOM     16  O   UNL     1      -5.792   2.824  -2.880  0.00  0.00    -0.495 OA
ENDBRANCH   9  16
ENDBRANCH   1  12
BRANCH   1  17
ATOM     17  C   UNL     1      -1.539   2.137   1.747  0.00  0.00    -0.011 A 
ATOM     18  C   UNL     1      -2.381   1.056   1.930  0.00  0.00    +0.010 A 
ATOM     19  C   UNL     1      -2.701   0.636   3.207  0.00  0.00    +0.046 A 
ATOM     20  C   UNL     1      -2.185   1.307   4.306  0.00  0.00    +0.120 A 
ATOM     21  C   UNL     1      -1.345   2.396   4.120  0.00  0.00    +0.046 A 
ATOM     22  C   UNL     1      -1.024   2.808   2.841  0.00  0.00    +0.010 A 
BRANCH  20  23
ATOM     23  O   UNL     1      -2.504   0.900   5.563  0.00  0.00    -0.495 OA
ATOM     24  C   UNL     1      -3.374  -0.227   5.679  0.00  0.00    +0.277 C 
ENDBRANCH  20  23
ENDBRANCH   1  17
BRANCH   4  25
ATOM     25  C   UNL     1       2.168   1.957  -1.110  0.00  0.00    +0.214 C 
BRANCH  25  26
ATOM     26  C   UNL     1       2.084   2.084  -2.609  0.00  0.00    +0.238 C 
ATOM     27  O   UNL     1       1.084   2.537  -3.124  0.00  0.00    -0.274 OA
ATOM     28  N   UNL     1       3.121   1.696  -3.377  0.00  0.00    -0.269 N 
BRANCH  28  29
ATOM     29  C   UNL     1       3.086   1.910  -4.760  0.00  0.00    +0.036 A 
ATOM     30  C   UNL     1       2.229   1.164  -5.558  0.00  0.00    +0.023 A 
ATOM     31  C   UNL     1       2.193   1.382  -6.921  0.00  0.00    +0.002 A 
ATOM     32  C   UNL     1       3.018   2.333  -7.493  0.00  0.00    +0.000 A 
ATOM     33  C   UNL     1       3.877   3.073  -6.702  0.00  0.00    +0.002 A 
ATOM     34  C   UNL     1       3.913   2.865  -5.337  0.00  0.00    +0.023 A 
ENDBRANCH  28  29
BRANCH  28  35
ATOM     35  C   UNL     1       4.284   1.049  -2.765  0.00  0.00    +0.128 C 
BRANCH  35  36
ATOM     36  C   UNL     1       4.069  -0.466  -2.736  0.00  0.00    +0.138 C 
BRANCH  36  37
ATOM     37  C   UNL     1       5.238  -1.116  -2.122  0.00  0.00    +0.064 C 
ATOM     38  N   UNL     1       6.140  -1.617  -1.647  0.00  0.00    -0.197 NA
ENDBRANCH  36  37
ENDBRANCH  35  36
ENDBRANCH  28  35
ENDBRANCH  25  26
ENDBRANCH   4  25
TORSDOF 10
