REMARK  Name = ZINC21233088
REMARK  8 active torsions:
REMARK  status: ('A' for Active; 'I' for Inactive)
REMARK    1  A    between atoms: C_1  and  N_2
REMARK    2  A    between atoms: N_2  and  C_3
REMARK    3  A    between atoms: N_2  and  C_4
REMARK    4  A    between atoms: C_7  and  C_10
REMARK    5  A    between atoms: C_15  and  C_25
REMARK    6  A    between atoms: C_29  and  O_31
REMARK    7  A    between atoms: O_31  and  C_32
REMARK    8  A    between atoms: C_32  and  C_33
REMARK                            x       y       z     vdW  Elec       q    Type
REMARK                         _______ _______ _______ _____ _____    ______ ____
ROOT
ATOM      1  C   UNL     1       3.436   3.113   3.046  0.00  0.00    +0.032 C 
ATOM      2  C   UNL     1       3.029   3.232   1.579  0.00  0.00    +0.059 C 
ATOM      3  C   UNL     1       2.318   1.965   1.131  0.00  0.00    +0.017 C 
ATOM      4  C   UNL     1       2.644   0.776   1.666  0.00  0.00    +0.036 C 
ATOM      5  C   UNL     1       2.023  -0.555   1.311  0.00  0.00    +0.136 C 
ATOM      6  N   UNL     1       1.188  -0.530   0.129  0.00  0.00    -0.331 N 
ATOM      7  C   UNL     1       0.014   0.219   0.100  0.00  0.00    +0.049 A 
ATOM      8  C   UNL     1      -1.229  -0.391   0.021  0.00  0.00    +0.025 A 
ATOM      9  C   UNL     1      -2.372   0.388   0.063  0.00  0.00    +0.002 A 
ATOM     10  C   UNL     1      -2.281   1.762   0.183  0.00  0.00    +0.002 A 
ATOM     11  C   UNL     1      -1.041   2.376   0.243  0.00  0.00    +0.025 A 
ATOM     12  C   UNL     1       0.103   1.600   0.182  0.00  0.00    +0.052 A 
ATOM     13  N   UNL     1       1.379   2.154   0.168  0.00  0.00    -0.316 N 
ATOM     14  C   UNL     1       3.648   0.692   2.659  0.00  0.00    +0.163 C 
ATOM     15  O   UNL     1       3.937  -0.400   3.110  0.00  0.00    -0.292 OA
ATOM     16  C   UNL     1       4.368   1.902   3.174  0.00  0.00    +0.088 C 
ATOM     17  H   UNL     1       1.477  -1.108  -0.761  0.00  0.00    +0.147 HD
ATOM     18  H   UNL     1       1.604   2.785  -0.704  0.00  0.00    +0.152 HD
ENDROOT
BRANCH   1  22
ATOM     19  C   UNL     1       5.488   6.656   4.272  0.00  0.00    +0.029 A 
ATOM     20  C   UNL     1       4.314   6.275   4.910  0.00  0.00    +0.023 A 
ATOM     21  C   UNL     1       3.654   5.130   4.511  0.00  0.00    +0.006 A 
ATOM     22  C   UNL     1       4.160   4.362   3.478  0.00  0.00    -0.043 A 
ATOM     23  C   UNL     1       5.331   4.735   2.845  0.00  0.00    +0.006 A 
ATOM     24  C   UNL     1       5.993   5.883   3.235  0.00  0.00    +0.023 A 
BRANCH  19  26
ATOM     25  C   UNL     1       5.623   8.629   5.767  0.00  0.00    +0.129 C 
ATOM     26  N   UNL     1       6.158   7.814   4.673  0.00  0.00    -0.336 N 
ATOM     27  C   UNL     1       7.396   8.214   3.999  0.00  0.00    +0.129 C 
ENDBRANCH  19  26
ENDBRANCH   1  22
BRANCH   5  28
ATOM     28  C   UNL     1       1.189  -1.019   2.476  0.00  0.00    -0.019 A 
ATOM     29  C   UNL     1       1.550  -2.156   3.175  0.00  0.00    +0.006 A 
ATOM     30  C   UNL     1       0.787  -2.585   4.245  0.00  0.00    +0.004 A 
ATOM     31  C   UNL     1      -0.339  -1.877   4.619  0.00  0.00    +0.045 A 
ATOM     32  C   UNL     1      -0.704  -0.736   3.920  0.00  0.00    +0.121 A 
ATOM     33  C   UNL     1       0.067  -0.305   2.850  0.00  0.00    +0.051 A 
BRANCH  32  34
ATOM     34  O   UNL     1      -1.811  -0.038   4.286  0.00  0.00    -0.487 OA
BRANCH  34  35
ATOM     35  C   UNL     1      -2.554  -0.537   5.400  0.00  0.00    +0.264 C 
BRANCH  35  36
ATOM     36  C   UNL     1      -3.738   0.359   5.657  0.00  0.00    -0.010 A 
ATOM     37  C   UNL     1      -3.618   1.432   6.519  0.00  0.00    +0.007 A 
ATOM     38  C   UNL     1      -4.703   2.257   6.751  0.00  0.00    +0.000 A 
ATOM     39  C   UNL     1      -5.910   2.002   6.128  0.00  0.00    +0.000 A 
ATOM     40  C   UNL     1      -6.031   0.926   5.269  0.00  0.00    +0.000 A 
ATOM     41  C   UNL     1      -4.945   0.104   5.034  0.00  0.00    +0.007 A 
ENDBRANCH  35  36
ENDBRANCH  34  35
ENDBRANCH  32  34
ENDBRANCH   5  28
TORSDOF 6
