REMARK  Name = ZINC34789380
REMARK  6 active torsions:
REMARK  status: ('A' for Active; 'I' for Inactive)
REMARK    1  A    between atoms: C_1  and  N_2
REMARK    2  A    between atoms: C_7  and  S_18
REMARK    3  A    between atoms: C_9  and  C_12
REMARK    4  A    between atoms: S_18  and  C_19
REMARK    5  A    between atoms: C_19  and  C_20
REMARK    6  A    between atoms: N_28  and  C_31
REMARK                            x       y       z     vdW  Elec       q    Type
REMARK                         _______ _______ _______ _____ _____    ______ ____
ROOT
ATOM      1  C   UNL     1      -0.018   1.461   0.010  0.00  0.00    +0.135 C 
ATOM      2  N   UNL     1       0.002  -0.004   0.002  0.00  0.00    -0.268 N 
ATOM      3  C   UNL     1      -1.252  -0.777   0.004  0.00  0.00    +0.185 C 
ATOM      4  C   UNL     1      -1.099  -2.282   0.113  0.00  0.00    +0.077 C 
ATOM      5  H   UNL     1      -4.196  -2.429  -0.111  0.00  0.00    +0.148 HD
ATOM      6  C   UNL     1      -2.250  -3.023   0.293  0.00  0.00    +0.074 C 
ATOM      7  N   UNL     1      -3.392  -2.229   0.393  0.00  0.00    -0.319 N 
ATOM      8  C   UNL     1      -3.315  -1.077   1.297  0.00  0.00    +0.172 C 
ATOM      9  N   UNL     1      -2.077  -0.317   1.117  0.00  0.00    -0.273 NA
ATOM     10  C   UNL     1       0.180  -2.829   0.062  0.00  0.00    +0.255 C 
ATOM     11  O   UNL     1       0.332  -4.037   0.106  0.00  0.00    -0.270 OA
ATOM     12  N   UNL     1       1.248  -2.015  -0.037  0.00  0.00    -0.225 N 
ATOM     13  C   UNL     1       1.168  -0.680  -0.013  0.00  0.00    +0.312 C 
ATOM     14  O   UNL     1       2.202  -0.041  -0.039  0.00  0.00    -0.252 OA
ATOM     15  C   UNL     1       2.574  -2.626  -0.162  0.00  0.00    +0.143 C 
ATOM     16  H   UNL     1      -1.549  -0.302   1.976  0.00  0.00    +0.126 HD
ENDROOT
BRANCH   8  17
ATOM     17  C   UNL     1      -4.474  -0.155   1.015  0.00  0.00    -0.013 A 
ATOM     18  C   UNL     1      -4.340   1.205   1.221  0.00  0.00    +0.007 A 
ATOM     19  C   UNL     1      -5.403   2.051   0.963  0.00  0.00    +0.000 A 
ATOM     20  C   UNL     1      -6.598   1.536   0.498  0.00  0.00    +0.000 A 
ATOM     21  C   UNL     1      -6.732   0.176   0.291  0.00  0.00    +0.000 A 
ATOM     22  C   UNL     1      -5.668  -0.669   0.546  0.00  0.00    +0.007 A 
ENDBRANCH   8  17
BRANCH   6  23
ATOM     23  S   UNL     1      -2.274  -4.782   0.386  0.00  0.00    -0.105 S 
BRANCH  23  24
ATOM     24  C   UNL     1      -4.026  -5.186   0.623  0.00  0.00    +0.110 C 
BRANCH  24  25
ATOM     25  C   UNL     1      -4.189  -6.681   0.720  0.00  0.00    -0.037 A 
ATOM     26  C   UNL     1      -4.404  -7.428  -0.423  0.00  0.00    +0.004 A 
ATOM     27  C   UNL     1      -4.553  -8.799  -0.334  0.00  0.00    +0.000 A 
ATOM     28  C   UNL     1      -4.487  -9.423   0.897  0.00  0.00    +0.000 A 
ATOM     29  C   UNL     1      -4.271  -8.676   2.040  0.00  0.00    +0.000 A 
ATOM     30  C   UNL     1      -4.117  -7.305   1.951  0.00  0.00    +0.004 A 
ENDBRANCH  24  25
ENDBRANCH  23  24
ENDBRANCH   6  23
TORSDOF 4
