REMARK  Name = ZINC63234730
REMARK  8 active torsions:
REMARK  status: ('A' for Active; 'I' for Inactive)
REMARK    1  A    between atoms: C_1  and  C_2
REMARK    2  A    between atoms: C_2  and  C_3
REMARK    3  A    between atoms: C_3  and  N_4
REMARK    4  A    between atoms: C_13  and  C_16
REMARK    5  A    between atoms: N_18  and  C_19
REMARK    6  A    between atoms: C_19  and  C_20
REMARK    7  A    between atoms: C_20  and  C_22
REMARK    8  A    between atoms: C_20  and  C_29
REMARK                            x       y       z     vdW  Elec       q    Type
REMARK                         _______ _______ _______ _____ _____    ______ ____
ROOT
ATOM      1  C   UNL     1       2.769  -4.543  -0.428  0.00  0.00    +0.236 C 
ATOM      2  O   UNL     1       3.778  -4.367   0.221  0.00  0.00    -0.274 OA
ATOM      3  N   UNL     1       2.778  -5.403  -1.467  0.00  0.00    -0.313 N 
ATOM      4  H   UNL     1       1.971  -5.543  -1.986  0.00  0.00    +0.149 HD
ENDROOT
BRANCH   1  14
ATOM      5  N   UNL     1       0.762  -1.976   1.234  0.00  0.00    -0.232 N 
ATOM      6  C   UNL     1      -0.296  -2.650   1.734  0.00  0.00    +0.260 C 
ATOM      7  O   UNL     1      -1.218  -2.062   2.264  0.00  0.00    -0.269 OA
ATOM      8  C   UNL     1      -0.300  -4.125   1.616  0.00  0.00    +0.043 A 
ATOM      9  C   UNL     1      -1.156  -4.924   2.364  0.00  0.00    +0.013 A 
ATOM     10  C   UNL     1      -1.111  -6.297   2.209  0.00  0.00    +0.001 A 
ATOM     11  C   UNL     1      -0.221  -6.868   1.317  0.00  0.00    +0.000 A 
ATOM     12  C   UNL     1       0.634  -6.075   0.569  0.00  0.00    +0.006 A 
ATOM     13  C   UNL     1       0.598  -4.707   0.715  0.00  0.00    -0.008 A 
ATOM     14  C   UNL     1       1.506  -3.802  -0.075  0.00  0.00    +0.189 C 
ATOM     15  N   UNL     1       1.842  -2.620   0.718  0.00  0.00    -0.221 NA
ATOM     16  H   UNL     1       2.505  -2.851   1.443  0.00  0.00    +0.146 HD
BRANCH   5  17
ATOM     17  C   UNL     1       0.742  -0.511   1.242  0.00  0.00    +0.127 C 
BRANCH  17  19
ATOM     18  C   UNL     1      -0.019   1.526   0.010  0.00  0.00    +0.005 C 
ATOM     19  C   UNL     1       0.002  -0.004   0.002  0.00  0.00    +0.017 C 
ENDBRANCH  17  19
ENDBRANCH   5  17
ENDBRANCH   1  14
BRANCH   3  20
ATOM     20  C   UNL     1       4.006  -6.124  -1.811  0.00  0.00    +0.116 C 
BRANCH  20  21
ATOM     21  C   UNL     1       3.746  -7.027  -3.018  0.00  0.00    +0.066 C 
BRANCH  21  22
ATOM     22  C   UNL     1       5.037  -7.674  -3.448  0.00  0.00    -0.033 C 
ATOM     23  C   UNL     1       5.645  -7.556  -4.651  0.00  0.00    -0.000 A 
ATOM     24  C   UNL     1       5.299  -6.819  -5.872  0.00  0.00    +0.010 A 
ATOM     25  C   UNL     1       6.123  -6.897  -6.941  0.00  0.00    +0.001 A 
ATOM     26  C   UNL     1       7.297  -7.663  -6.913  0.00  0.00    +0.002 A 
ATOM     27  C   UNL     1       7.681  -8.368  -5.828  0.00  0.00    +0.026 A 
ATOM     28  C   UNL     1       6.889  -8.358  -4.646  0.00  0.00    +0.043 A 
ATOM     29  N   UNL     1       7.045  -8.948  -3.486  0.00  0.00    -0.380 N 
ATOM     30  C   UNL     1       5.918  -8.583  -2.621  0.00  0.00    +0.145 C 
ATOM     31  H   UNL     1       7.783  -9.527  -3.240  0.00  0.00    +0.160 HD
ENDBRANCH  21  22
BRANCH  21  32
ATOM     32  C   UNL     1       2.749  -8.093  -2.643  0.00  0.00    -0.020 A 
ATOM     33  C   UNL     1       3.033  -8.974  -1.617  0.00  0.00    +0.006 A 
ATOM     34  C   UNL     1       2.119  -9.952  -1.272  0.00  0.00    +0.000 A 
ATOM     35  C   UNL     1       0.921 -10.050  -1.954  0.00  0.00    +0.001 A 
ATOM     36  C   UNL     1       0.635  -9.169  -2.981  0.00  0.00    +0.020 A 
ATOM     37  C   UNL     1       1.548  -8.187  -3.322  0.00  0.00    +0.045 A 
ATOM     38 CL   UNL     1       1.188  -7.076  -4.607  0.00  0.00    -0.083 Cl
ENDBRANCH  21  32
ENDBRANCH  20  21
ENDBRANCH   3  20
TORSDOF 7
