REMARK  Name = ZINC39544695
REMARK  9 active torsions:
REMARK  status: ('A' for Active; 'I' for Inactive)
REMARK    1  A    between atoms: C_1  and  C_2
REMARK    2  A    between atoms: C_2  and  C_3
REMARK    3  A    between atoms: C_3  and  N_4
REMARK    4  A    between atoms: N_4  and  S_29
REMARK    5  A    between atoms: C_5  and  C_7
REMARK    6  A    between atoms: C_10  and  C_22
REMARK    7  A    between atoms: C_27  and  O_28
REMARK    8  A    between atoms: S_29  and  O_32
REMARK    9  A    between atoms: O_32  and  C_33
REMARK                            x       y       z     vdW  Elec       q    Type
REMARK                         _______ _______ _______ _____ _____    ______ ____
ROOT
ATOM      1  C   UNL     1       0.392  -4.627  -0.387  0.00  0.00    +0.172 C 
ATOM      2  C   UNL     1       0.365  -4.382   1.139  0.00  0.00    +0.050 C 
ATOM      3  C   UNL     1      -1.113  -4.707   1.464  0.00  0.00    +0.086 C 
ATOM      4  C   UNL     1      -1.536  -5.625   0.343  0.00  0.00    +0.083 C 
ATOM      5  N   UNL     1      -2.650  -6.437   0.350  0.00  0.00    -0.304 N 
ATOM      6  C   UNL     1      -2.720  -7.457  -0.609  0.00  0.00    +0.037 A 
ATOM      7  C   UNL     1      -3.648  -8.479  -0.460  0.00  0.00    +0.023 A 
ATOM      8  C   UNL     1      -3.719  -9.488  -1.399  0.00  0.00    +0.002 A 
ATOM      9  C   UNL     1      -2.864  -9.478  -2.487  0.00  0.00    +0.000 A 
ATOM     10  C   UNL     1      -1.941  -8.461  -2.637  0.00  0.00    +0.007 A 
ATOM     11  C   UNL     1      -1.865  -7.445  -1.701  0.00  0.00    -0.007 A 
ATOM     12  C   UNL     1      -0.858  -6.342  -1.891  0.00  0.00    +0.155 C 
ATOM     13  N   UNL     1      -0.706  -5.567  -0.654  0.00  0.00    -0.346 N 
ATOM     14  H   UNL     1      -3.361  -6.307   0.998  0.00  0.00    +0.153 HD
ENDROOT
BRANCH   3  15
ATOM     15  C   UNL     1      -1.220  -5.406   2.794  0.00  0.00    +0.004 A 
ATOM     16  C   UNL     1      -0.504  -6.564   3.026  0.00  0.00    +0.008 A 
ATOM     17  C   UNL     1      -0.603  -7.207   4.247  0.00  0.00    +0.001 A 
ATOM     18  C   UNL     1      -1.418  -6.692   5.237  0.00  0.00    +0.004 A 
ATOM     19  C   UNL     1      -2.136  -5.534   5.010  0.00  0.00    +0.046 A 
ATOM     20  C   UNL     1      -2.035  -4.885   3.788  0.00  0.00    +0.121 A 
BRANCH  20  21
ATOM     21  O   UNL     1      -2.736  -3.742   3.565  0.00  0.00    -0.506 OA
ATOM     22  H   UNL     1      -3.644  -3.890   3.267  0.00  0.00    +0.292 HD
ENDBRANCH  20  21
ENDBRANCH   3  15
BRANCH   1  24
ATOM     23  N   UNL     1       1.165  -2.441  -1.248  0.00  0.00    -0.141 N 
ATOM     24  C   UNL     1       0.163  -3.334  -1.127  0.00  0.00    +0.259 C 
ATOM     25  O   UNL     1      -0.923  -3.098  -1.612  0.00  0.00    -0.272 OA
BRANCH  23  26
ATOM     26  S   UNL     1       2.651  -2.770  -0.597  0.00  0.00    +0.212 S 
ATOM     27  O   UNL     1       2.539  -4.027   0.057  0.00  0.00    -0.115 OA
ATOM     28  O   UNL     1       3.606  -2.526  -1.620  0.00  0.00    -0.115 OA
BRANCH  26  29
ATOM     29  O   UNL     1       2.905  -1.736   0.491  0.00  0.00    -0.331 OA
BRANCH  29  30
ATOM     30  C   UNL     1       2.240  -1.979   1.651  0.00  0.00    +0.158 A 
ATOM     31  C   UNL     1       1.025  -1.357   1.900  0.00  0.00    +0.048 A 
ATOM     32  C   UNL     1       0.352  -1.607   3.080  0.00  0.00    +0.004 A 
ATOM     33  C   UNL     1       0.888  -2.475   4.013  0.00  0.00    +0.000 A 
ATOM     34  C   UNL     1       2.099  -3.096   3.767  0.00  0.00    +0.004 A 
ATOM     35  C   UNL     1       2.773  -2.854   2.586  0.00  0.00    +0.048 A 
ENDBRANCH  29  30
ENDBRANCH  26  29
ENDBRANCH  23  26
BRANCH  23  36
ATOM     36  C   UNL     1       0.939  -1.179  -1.957  0.00  0.00    +0.137 C 
BRANCH  36  38
ATOM     37  C   UNL     1      -0.047   1.109  -1.769  0.00  0.00    +0.005 C 
ATOM     38  C   UNL     1       0.329  -0.156  -0.996  0.00  0.00    +0.018 C 
ENDBRANCH  36  38
ENDBRANCH  23  36
ENDBRANCH   1  24
TORSDOF 8
