REMARK  Name = ZINC36167897
REMARK  13 active torsions:
REMARK  status: ('A' for Active; 'I' for Inactive)
REMARK    1  A    between atoms: C_1  and  C_2
REMARK    2  A    between atoms: C_2  and  C_3
REMARK    3  A    between atoms: C_3  and  C_4
REMARK    4  A    between atoms: C_3  and  C_6
REMARK    5  A    between atoms: C_3  and  O_24
REMARK    6  A    between atoms: C_4  and  C_5
REMARK    7  A    between atoms: C_9  and  C_11
REMARK    8  A    between atoms: C_11  and  N_12
REMARK    9  A    between atoms: N_12  and  C_13
REMARK   10  A    between atoms: N_12  and  C_21
REMARK   11  A    between atoms: C_13  and  C_14
REMARK   12  A    between atoms: C_21  and  C_22
REMARK   13  A    between atoms: C_21  and  C_23
REMARK                            x       y       z     vdW  Elec       q    Type
REMARK                         _______ _______ _______ _____ _____    ______ ____
ROOT
ATOM      1  C   UNL     1      -0.892  -6.035   1.001  0.00  0.00    -0.002 C 
ENDROOT
BRANCH   1   5
ATOM      2  C   UNL     1      -2.935  -3.025   1.310  0.00  0.00    +0.136 A 
ATOM      3  C   UNL     1      -3.915  -3.945   1.275  0.00  0.00    +0.048 A 
ATOM      4  C   UNL     1      -3.288  -5.207   1.153  0.00  0.00    +0.043 A 
ATOM      5  C   UNL     1      -1.962  -4.981   1.122  0.00  0.00    +0.089 A 
ATOM      6  O   UNL     1      -1.755  -3.658   1.212  0.00  0.00    -0.464 OA
BRANCH   2   7
ATOM      7  C   UNL     1      -3.129  -1.535   1.434  0.00  0.00    +0.123 C 
BRANCH   7   9
ATOM      8  C   UNL     1      -2.131   0.587   2.296  0.00  0.00    +0.007 C 
ATOM      9  C   UNL     1      -1.926  -0.922   2.155  0.00  0.00    +0.039 C 
ENDBRANCH   7   9
BRANCH   7  10
ATOM     10  C   UNL     1      -3.254  -0.920   0.038  0.00  0.00    +0.039 C 
ATOM     11  C   UNL     1      -4.461  -1.528  -0.680  0.00  0.00    +0.007 C 
ENDBRANCH   7  10
BRANCH   7  12
ATOM     12  O   UNL     1      -4.318  -1.270   2.180  0.00  0.00    -0.381 OA
ATOM     13  H   UNL     1      -4.308  -1.631   3.077  0.00  0.00    +0.211 HD
ENDBRANCH   7  12
ENDBRANCH   2   7
ENDBRANCH   1   5
BRANCH   1  14
ATOM     14  N   UNL     1      -0.721  -6.400  -0.412  0.00  0.00    +0.389 N 
ATOM     15  H   UNL     1      -1.583  -6.232  -0.909  0.00  0.00    -0.080 HD
BRANCH  14  16
ATOM     16  C   UNL     1       0.350  -5.586  -1.001  0.00  0.00    -0.074 C 
ATOM     17  C   UNL     1      -0.013  -4.104  -0.887  0.00  0.00    -0.013 C 
ATOM     18  C   UNL     1       1.660  -5.849  -0.255  0.00  0.00    -0.013 C 
ENDBRANCH  14  16
BRANCH  14  19
ATOM     19  C   UNL     1      -0.367  -7.822  -0.511  0.00  0.00    -0.039 C 
BRANCH  19  20
ATOM     20  C   UNL     1      -0.378  -8.242  -1.958  0.00  0.00    -0.029 A 
ATOM     21  C   UNL     1      -1.512  -8.817  -2.503  0.00  0.00    +0.004 A 
ATOM     22  C   UNL     1      -1.522  -9.203  -3.830  0.00  0.00    +0.000 A 
ATOM     23  C   UNL     1      -0.399  -9.014  -4.615  0.00  0.00    +0.003 A 
ATOM     24  C   UNL     1       0.735  -8.440  -4.073  0.00  0.00    +0.038 A 
ATOM     25  C   UNL     1       0.745  -8.048  -2.744  0.00  0.00    +0.125 A 
ATOM     26  F   UNL     1       1.851  -7.482  -2.215  0.00  0.00    -0.205 F 
ENDBRANCH  19  20
ENDBRANCH  14  19
ENDBRANCH   1  14
TORSDOF 9
