REMARK  Name = ZINC38701408
REMARK  12 active torsions:
REMARK  status: ('A' for Active; 'I' for Inactive)
REMARK    1  A    between atoms: C_1  and  C_2
REMARK    2  A    between atoms: C_2  and  O_3
REMARK    3  A    between atoms: O_3  and  C_4
REMARK    4  A    between atoms: C_7  and  C_10
REMARK    5  A    between atoms: C_15  and  O_24
REMARK    6  A    between atoms: C_19  and  N_23
REMARK    7  A    between atoms: C_20  and  C_21
REMARK    8  A    between atoms: O_24  and  C_25
REMARK    9  A    between atoms: C_25  and  C_27
REMARK   10  A    between atoms: C_28  and  C_38
REMARK   11  A    between atoms: C_30  and  C_37
REMARK   12  A    between atoms: C_32  and  C_36
REMARK                            x       y       z     vdW  Elec       q    Type
REMARK                         _______ _______ _______ _____ _____    ______ ____
ROOT
ATOM      1  C   UNL     1      -1.819  -5.970   0.072  0.00  0.00    +0.098 C 
ATOM      2  C   UNL     1      -2.586  -6.404   1.293  0.00  0.00    +0.008 A 
ATOM      3  C   UNL     1      -1.933  -6.497   2.509  0.00  0.00    +0.012 A 
ATOM      4  C   UNL     1      -2.620  -6.894   3.639  0.00  0.00    +0.047 A 
ATOM      5  C   UNL     1      -3.971  -7.202   3.558  0.00  0.00    +0.136 A 
ATOM      6  C   UNL     1      -4.628  -7.110   2.342  0.00  0.00    +0.093 A 
ATOM      7  C   UNL     1      -3.935  -6.710   1.206  0.00  0.00    +0.138 A 
ATOM      8  O   UNL     1      -4.593  -6.625   0.023  0.00  0.00    -0.441 OA
ATOM      9  C   UNL     1      -3.902  -6.626  -1.129  0.00  0.00    +0.199 C 
ATOM     10  C   UNL     1      -2.586  -6.324  -1.172  0.00  0.00    +0.098 C 
ENDROOT
BRANCH   1  14
ATOM     11  C   UNL     1      -1.216  -1.742   0.208  0.00  0.00    +0.121 A 
ATOM     12  C   UNL     1      -0.125  -2.599   0.180  0.00  0.00    +0.046 A 
ATOM     13  C   UNL     1      -0.323  -3.965   0.136  0.00  0.00    +0.008 A 
ATOM     14  C   UNL     1      -1.607  -4.479   0.120  0.00  0.00    -0.034 A 
ATOM     15  C   UNL     1      -2.695  -3.627   0.148  0.00  0.00    +0.008 A 
ATOM     16  C   UNL     1      -2.503  -2.260   0.198  0.00  0.00    +0.046 A 
BRANCH  11  17
ATOM     17  O   UNL     1      -1.024  -0.397   0.252  0.00  0.00    -0.492 OA
BRANCH  17  19
ATOM     18  C   UNL     1       0.344   1.594   0.311  0.00  0.00    +0.048 C 
ATOM     19  C   UNL     1       0.328   0.065   0.260  0.00  0.00    +0.225 C 
ENDBRANCH  17  19
ENDBRANCH  11  17
ENDBRANCH   1  14
BRANCH   9  20
ATOM     20  N   UNL     1      -4.552  -6.943  -2.296  0.00  0.00    -0.328 N 
ATOM     21  H   UNL     1      -5.497  -7.162  -2.280  0.00  0.00    +0.145 HD
ATOM     22  H   UNL     1      -4.067  -6.948  -3.135  0.00  0.00    +0.145 HD
ENDBRANCH   9  20
BRANCH  10  23
ATOM     23  C   UNL     1      -1.907  -6.341  -2.433  0.00  0.00    +0.101 C 
ATOM     24  N   UNL     1      -1.369  -6.356  -3.433  0.00  0.00    -0.191 NA
ENDBRANCH  10  23
BRANCH   5  25
ATOM     25  O   UNL     1      -4.648  -7.594   4.669  0.00  0.00    -0.420 OA
BRANCH  25  26
ATOM     26  C   UNL     1      -5.101  -8.863   4.720  0.00  0.00    +0.380 C 
ATOM     27  O   UNL     1      -4.818  -9.646   3.834  0.00  0.00    -0.241 OA
BRANCH  26  28
ATOM     28  C   UNL     1      -5.938  -9.299   5.844  0.00  0.00    +0.216 A 
ATOM     29  C   UNL     1      -6.445 -10.550   6.003  0.00  0.00    +0.010 A 
ATOM     30  C   UNL     1      -7.206 -10.523   7.251  0.00  0.00    +0.027 A 
ATOM     31  C   UNL     1      -7.953 -11.469   7.957  0.00  0.00    -0.039 A 
ATOM     32  C   UNL     1      -8.560 -11.116   9.129  0.00  0.00    +0.007 A 
ATOM     33  C   UNL     1      -8.441  -9.823   9.621  0.00  0.00    -0.047 A 
ATOM     34  C   UNL     1      -7.709  -8.875   8.940  0.00  0.00    +0.050 A 
ATOM     35  C   UNL     1      -7.082  -9.211   7.746  0.00  0.00    +0.137 A 
ATOM     36  O   UNL     1      -6.315  -8.520   6.880  0.00  0.00    -0.448 OA
ATOM     37  C   UNL     1      -9.119  -9.453  10.915  0.00  0.00    +0.044 C 
ATOM     38  C   UNL     1      -8.087 -12.874   7.429  0.00  0.00    +0.044 C 
ATOM     39  C   UNL     1      -6.261 -11.726   5.079  0.00  0.00    +0.048 C 
ENDBRANCH  26  28
ENDBRANCH  25  26
ENDBRANCH   5  25
TORSDOF 8
