REMARK  Name = ZINC48997137
REMARK  7 active torsions:
REMARK  status: ('A' for Active; 'I' for Inactive)
REMARK    1  A    between atoms: C_1  and  C_2
REMARK    2  A    between atoms: C_7  and  N_10
REMARK    3  A    between atoms: N_10  and  C_11
REMARK    4  A    between atoms: N_14  and  C_15
REMARK    5  A    between atoms: C_18  and  C_21
REMARK    6  A    between atoms: C_21  and  C_23
REMARK    7  A    between atoms: C_21  and  O_24
REMARK                            x       y       z     vdW  Elec       q    Type
REMARK                         _______ _______ _______ _____ _____    ______ ____
ROOT
ATOM      1  N   UNL     1      -0.495  -2.594   1.086  0.00  0.00    -0.285 N 
ATOM      2  C   UNL     1      -1.711  -2.212   0.363  0.00  0.00    +0.134 C 
ATOM      3  C   UNL     1      -0.572  -3.436   2.135  0.00  0.00    +0.306 C 
ATOM      4  O   UNL     1       0.438  -3.753   2.734  0.00  0.00    -0.252 OA
ATOM      5  N   UNL     1      -1.766  -3.928   2.519  0.00  0.00    -0.269 N 
ATOM      6  H   UNL     1      -2.561  -3.733   1.998  0.00  0.00    +0.156 HD
ENDROOT
BRANCH   1  12
ATOM      7  C   UNL     1      -0.083  -1.392  -3.019  0.00  0.00    +0.007 C 
ATOM      8  C   UNL     1       0.086  -2.185  -1.722  0.00  0.00    -0.012 C 
ATOM      9  C   UNL     1       1.062  -3.341  -1.954  0.00  0.00    +0.003 C 
ATOM     10  C   UNL     1       1.230  -4.134  -0.657  0.00  0.00    +0.002 C 
ATOM     11  C   UNL     1       1.779  -3.215   0.436  0.00  0.00    +0.022 C 
ATOM     12  C   UNL     1       0.803  -2.059   0.668  0.00  0.00    +0.077 C 
ATOM     13  C   UNL     1       0.635  -1.266  -0.629  0.00  0.00    +0.025 C 
ENDBRANCH   1  12
BRANCH   5  14
ATOM     14  C   UNL     1      -1.860  -4.718   3.670  0.00  0.00    +0.035 A 
ATOM     15  C   UNL     1      -2.798  -5.740   3.738  0.00  0.00    +0.024 A 
ATOM     16  C   UNL     1      -2.888  -6.519   4.875  0.00  0.00    +0.008 A 
ATOM     17  C   UNL     1      -2.045  -6.282   5.945  0.00  0.00    -0.019 A 
ATOM     18  C   UNL     1      -1.110  -5.265   5.881  0.00  0.00    +0.008 A 
ATOM     19  C   UNL     1      -1.012  -4.486   4.745  0.00  0.00    +0.024 A 
BRANCH  17  20
ATOM     20  C   UNL     1      -2.146  -7.133   7.185  0.00  0.00    +0.141 C 
ATOM     21  C   UNL     1      -1.046  -8.197   7.163  0.00  0.00    +0.043 C 
BRANCH  20  22
ATOM     22  O   UNL     1      -1.990  -6.310   8.342  0.00  0.00    -0.387 OA
ATOM     23  H   UNL     1      -2.044  -6.793   9.178  0.00  0.00    +0.210 HD
ENDBRANCH  20  22
ENDBRANCH  17  20
ENDBRANCH   5  14
TORSDOF 4
