REMARK  Name = ZINC39565767
REMARK  12 active torsions:
REMARK  status: ('A' for Active; 'I' for Inactive)
REMARK    1  A    between atoms: C_1  and  C_2
REMARK    2  A    between atoms: C_4  and  C_15
REMARK    3  A    between atoms: C_5  and  C_14
REMARK    4  A    between atoms: N_6  and  C_7
REMARK    5  A    between atoms: C_16  and  C_17
REMARK    6  A    between atoms: C_16  and  C_19
REMARK    7  A    between atoms: C_19  and  O_21
REMARK    8  A    between atoms: O_21  and  C_22
REMARK    9  A    between atoms: C_22  and  C_24
REMARK   10  A    between atoms: C_22  and  C_27
REMARK   11  A    between atoms: C_24  and  C_25
REMARK   12  A    between atoms: C_24  and  C_26
REMARK                            x       y       z     vdW  Elec       q    Type
REMARK                         _______ _______ _______ _____ _____    ______ ____
ROOT
ATOM      1  C   UNL     1      -0.955  -4.594  -1.059  0.00  0.00    +0.035 C 
ATOM      2  C   UNL     1      -0.957  -4.168  -2.374  0.00  0.00    +0.136 C 
ENDROOT
BRANCH   1   6
ATOM      3  C   UNL     1      -1.573  -0.293   1.516  0.00  0.00    +0.064 C 
ATOM      4  C   UNL     1      -1.488  -1.746   1.124  0.00  0.00    +0.022 A 
ATOM      5  C   UNL     1      -1.176  -2.205  -0.099  0.00  0.00    +0.031 A 
ATOM      6  C   UNL     1      -1.214  -3.672  -0.015  0.00  0.00    -0.003 A 
ATOM      7  C   UNL     1      -1.557  -3.968   1.295  0.00  0.00    +0.028 A 
ATOM      8  N   UNL     1      -1.710  -2.806   1.960  0.00  0.00    -0.317 N 
ATOM      9  C   UNL     1      -1.724  -5.348   1.876  0.00  0.00    +0.064 C 
BRANCH   8  10
ATOM     10  C   UNL     1      -2.053  -2.699   3.314  0.00  0.00    +0.047 A 
ATOM     11  C   UNL     1      -1.178  -3.157   4.291  0.00  0.00    +0.027 A 
ATOM     12  C   UNL     1      -1.518  -3.050   5.625  0.00  0.00    +0.017 A 
ATOM     13  C   UNL     1      -2.728  -2.487   5.989  0.00  0.00    +0.018 A 
ATOM     14  C   UNL     1      -3.602  -2.030   5.018  0.00  0.00    +0.017 A 
ATOM     15  C   UNL     1      -3.264  -2.129   3.683  0.00  0.00    +0.027 A 
ATOM     16 BR   UNL     1      -3.190  -2.343   7.817  0.00  0.00    -0.050 Br
ENDBRANCH   8  10
ENDBRANCH   1   6
BRANCH   2  17
ATOM     17  C   UNL     1      -1.242  -2.799  -2.683  0.00  0.00    +0.106 C 
ATOM     18  N   UNL     1      -1.467  -1.713  -2.927  0.00  0.00    -0.191 NA
ENDBRANCH   2  17
BRANCH   2  19
ATOM     19  C   UNL     1      -0.668  -5.119  -3.454  0.00  0.00    +0.350 C 
ATOM     20  O   UNL     1      -0.426  -6.282  -3.192  0.00  0.00    -0.244 OA
BRANCH  19  21
ATOM     21  O   UNL     1      -0.670  -4.703  -4.737  0.00  0.00    -0.448 OA
BRANCH  21  22
ATOM     22  C   UNL     1      -0.380  -5.682  -5.737  0.00  0.00    +0.265 C 
BRANCH  22  23
ATOM     23  C   UNL     1      -1.099  -5.326  -7.012  0.00  0.00    +0.261 C 
ATOM     24  O   UNL     1      -1.595  -4.227  -7.142  0.00  0.00    -0.271 OA
ATOM     25  N   UNL     1      -1.192  -6.229  -8.009  0.00  0.00    -0.237 N 
ATOM     26  C   UNL     1      -1.757  -5.882  -9.182  0.00  0.00    +0.303 C 
ATOM     27  O   UNL     1      -2.185  -4.756  -9.341  0.00  0.00    -0.253 OA
ATOM     28  N   UNL     1      -1.849  -6.785 -10.178  0.00  0.00    -0.313 N 
ATOM     29  H   UNL     1      -0.850  -7.128  -7.882  0.00  0.00    +0.159 HD
ATOM     30  H   UNL     1      -1.508  -7.684 -10.051  0.00  0.00    +0.146 HD
ATOM     31  H   UNL     1      -2.257  -6.536 -11.023  0.00  0.00    +0.146 HD
ENDBRANCH  22  23
BRANCH  22  32
ATOM     32  C   UNL     1       1.128  -5.717  -5.994  0.00  0.00    +0.033 C 
ATOM     33  C   UNL     1       1.607  -4.324  -6.405  0.00  0.00    +0.011 C 
ATOM     34  C   UNL     1       1.853  -6.151  -4.719  0.00  0.00    +0.011 C 
ENDBRANCH  22  32
ENDBRANCH  21  22
ENDBRANCH  19  21
ENDBRANCH   2  19
TORSDOF 8
