REMARK  Name = ZINC13499428
REMARK  15 active torsions:
REMARK  status: ('A' for Active; 'I' for Inactive)
REMARK    1  A    between atoms: C_1  and  C_2
REMARK    2  A    between atoms: C_2  and  C_3
REMARK    3  A    between atoms: C_3  and  C_4
REMARK    4  A    between atoms: C_4  and  C_6
REMARK    5  A    between atoms: C_4  and  N_15
REMARK    6  A    between atoms: N_10  and  C_11
REMARK    7  A    between atoms: C_11  and  C_12
REMARK    8  A    between atoms: C_11  and  C_13
REMARK    9  A    between atoms: C_11  and  C_14
REMARK   10  A    between atoms: N_15  and  C_16
REMARK   11  A    between atoms: N_15  and  C_23
REMARK   12  A    between atoms: C_16  and  C_17
REMARK   13  A    between atoms: C_23  and  C_24
REMARK   14  A    between atoms: C_28  and  C_37
REMARK   15  A    between atoms: C_29  and  C_36
REMARK                            x       y       z     vdW  Elec       q    Type
REMARK                         _______ _______ _______ _____ _____    ______ ____
ROOT
ATOM      1  N   UNL     1      -0.132  -3.042  -0.949  0.00  0.00    -0.284 NA
ENDROOT
BRANCH   1   2
ATOM      2  C   UNL     1      -1.077  -2.394  -1.868  0.00  0.00    +0.127 C 
BRANCH   2   3
ATOM      3  C   UNL     1      -2.122  -1.653  -1.075  0.00  0.00    +0.169 A 
ATOM      4  N   UNL     1      -2.568  -1.966   0.117  0.00  0.00    -0.112 NA
ATOM      5  N   UNL     1      -3.452  -1.091   0.454  0.00  0.00    -0.023 NA
ATOM      6  N   UNL     1      -3.580  -0.227  -0.491  0.00  0.00    -0.043 NA
ATOM      7  N   UNL     1      -2.773  -0.536  -1.449  0.00  0.00    -0.222 N 
BRANCH   7   8
ATOM      8  C   UNL     1      -2.600   0.191  -2.710  0.00  0.00    +0.059 C 
ATOM      9  C   UNL     1      -2.640  -0.797  -3.877  0.00  0.00    +0.036 C 
ATOM     10  C   UNL     1      -3.728   1.213  -2.868  0.00  0.00    +0.036 C 
ATOM     11  C   UNL     1      -1.253   0.915  -2.700  0.00  0.00    +0.036 C 
ENDBRANCH   7   8
ENDBRANCH   2   3
BRANCH   2  12
ATOM     12  C   UNL     1      -1.755  -3.457  -2.736  0.00  0.00    +0.026 C 
BRANCH  12  14
ATOM     13  C   UNL     1      -1.395  -5.158  -4.530  0.00  0.00    +0.004 C 
ATOM     14  C   UNL     1      -0.709  -4.132  -3.625  0.00  0.00    -0.001 C 
ENDBRANCH  12  14
ENDBRANCH   2  12
ENDBRANCH   1   2
BRANCH   1  15
ATOM     15  C   UNL     1      -0.595  -4.387  -0.580  0.00  0.00    +0.120 C 
BRANCH  15  16
ATOM     16  C   UNL     1      -1.730  -4.274   0.406  0.00  0.00    -0.033 A 
ATOM     17  C   UNL     1      -1.463  -4.163   1.757  0.00  0.00    +0.005 A 
ATOM     18  C   UNL     1      -2.503  -4.060   2.661  0.00  0.00    +0.000 A 
ATOM     19  C   UNL     1      -3.811  -4.068   2.213  0.00  0.00    +0.000 A 
ATOM     20  C   UNL     1      -4.078  -4.178   0.862  0.00  0.00    +0.000 A 
ATOM     21  C   UNL     1      -3.038  -4.277  -0.043  0.00  0.00    +0.005 A 
ENDBRANCH  15  16
ENDBRANCH   1  15
BRANCH   1  22
ATOM     22  C   UNL     1       1.217  -3.091  -1.528  0.00  0.00    +0.126 C 
BRANCH  22  23
ATOM     23  C   UNL     1       1.872  -1.741  -1.389  0.00  0.00    +0.031 A 
ATOM     24  C   UNL     1       2.662  -1.481  -0.318  0.00  0.00    +0.020 A 
ATOM     25  C   UNL     1       3.284  -0.160  -0.212  0.00  0.00    -0.001 A 
ATOM     26  C   UNL     1       4.110   0.167   0.869  0.00  0.00    +0.013 A 
ATOM     27  C   UNL     1       4.676   1.408   0.938  0.00  0.00    -0.047 A 
ATOM     28  C   UNL     1       4.439   2.349  -0.055  0.00  0.00    -0.046 A 
ATOM     29  C   UNL     1       3.628   2.050  -1.129  0.00  0.00    +0.030 A 
ATOM     30  C   UNL     1       3.042   0.791  -1.221  0.00  0.00    +0.049 A 
ATOM     31  N   UNL     1       2.228   0.464  -2.285  0.00  0.00    -0.322 N 
ATOM     32  H   UNL     1       2.062   1.121  -2.979  0.00  0.00    +0.169 HD
ATOM     33  C   UNL     1       1.665  -0.753  -2.376  0.00  0.00    +0.254 A 
ATOM     34  O   UNL     1       0.955  -1.010  -3.333  0.00  0.00    -0.268 OA
ATOM     35  C   UNL     1       5.073   3.712   0.042  0.00  0.00    +0.044 C 
ATOM     36  C   UNL     1       5.566   1.760   2.102  0.00  0.00    +0.044 C 
ENDBRANCH  22  23
ENDBRANCH   1  22
TORSDOF 9
