REMARK  Name = ZINC40497501
REMARK  4 active torsions:
REMARK  status: ('A' for Active; 'I' for Inactive)
REMARK    1  A    between atoms: C_1  and  C_2
REMARK    2  A    between atoms: C_2  and  C_3
REMARK    3  A    between atoms: C_10  and  C_12
REMARK    4  A    between atoms: C_12  and  C_17
REMARK                            x       y       z     vdW  Elec       q    Type
REMARK                         _______ _______ _______ _____ _____    ______ ____
ROOT
ATOM      1  C   UNL     1       0.329  -0.196  -2.157  0.00  0.00    +0.135 C 
ATOM      2  C   UNL     1       0.384  -1.710  -1.925  0.00  0.00    +0.139 C 
ATOM      3  N   UNL     1       1.155  -2.320  -3.020  0.00  0.00    -0.296 N 
ATOM      4  C   UNL     1       0.787  -1.972  -4.402  0.00  0.00    +0.136 C 
ATOM      5  C   UNL     1       0.713  -0.445  -4.513  0.00  0.00    +0.179 C 
ATOM      6  O   UNL     1      -0.139   0.062  -3.483  0.00  0.00    -0.373 OA
ATOM      7  C   UNL     1       2.168  -3.171  -2.764  0.00  0.00    +0.225 C 
ATOM      8  O   UNL     1       2.516  -3.374  -1.621  0.00  0.00    -0.275 OA
ENDROOT
BRANCH   7   9
ATOM      9  C   UNL     1       2.868  -3.871  -3.901  0.00  0.00    +0.080 C 
ATOM     10  C   UNL     1       3.135  -5.370  -3.749  0.00  0.00    +0.058 C 
ATOM     11  C   UNL     1       2.056  -4.879  -4.717  0.00  0.00    +0.133 C 
ATOM     12 CL   UNL     1       0.336  -5.139  -4.246  0.00  0.00    -0.100 Cl
ATOM     13 CL   UNL     1       2.406  -4.995  -6.482  0.00  0.00    -0.100 Cl
ATOM     14  C   UNL     1       3.913  -3.038  -4.645  0.00  0.00    +0.024 C 
ENDBRANCH   7   9
BRANCH   1  16
ATOM     15  C   UNL     1      -0.586   1.965  -1.297  0.00  0.00    +0.006 C 
ATOM     16  C   UNL     1      -0.625   0.443  -1.145  0.00  0.00    +0.030 C 
ENDBRANCH   1  16
TORSDOF 2
