REMARK  Name = ZINC11632182
REMARK  4 active torsions:
REMARK  status: ('A' for Active; 'I' for Inactive)
REMARK    1  A    between atoms: C_3  and  N_13
REMARK    2  A    between atoms: C_6  and  N_7
REMARK    3  A    between atoms: C_17  and  C_20
REMARK    4  A    between atoms: C_20  and  N_45
REMARK                            x       y       z     vdW  Elec       q    Type
REMARK                         _______ _______ _______ _____ _____    ______ ____
ROOT
ATOM      1  C   UNL     1       0.159   1.118   4.764  0.00  0.00    +0.025 A 
ATOM      2  C   UNL     1      -0.513   1.511   3.623  0.00  0.00    +0.025 A 
ATOM      3  C   UNL     1      -0.021   1.161   2.373  0.00  0.00    +0.030 A 
ATOM      4  C   UNL     1       1.142   0.411   2.269  0.00  0.00    +0.025 A 
ATOM      5  C   UNL     1       1.817   0.022   3.409  0.00  0.00    +0.025 A 
ATOM      6  C   UNL     1       1.326   0.372   4.660  0.00  0.00    +0.030 A 
ENDROOT
BRANCH   6   7
ATOM      7  N   UNL     1       2.007  -0.026   5.816  0.00  0.00    -0.330 N 
ATOM      8  C   UNL     1       2.341   1.131   6.655  0.00  0.00    +0.105 C 
ATOM      9  C   UNL     1       2.952   0.648   7.973  0.00  0.00    +0.019 C 
ATOM     10  C   UNL     1       4.212  -0.170   7.676  0.00  0.00    +0.003 C 
ATOM     11  C   UNL     1       3.845  -1.342   6.760  0.00  0.00    +0.019 C 
ATOM     12  C   UNL     1       3.208  -0.801   5.478  0.00  0.00    +0.105 C 
ENDBRANCH   6   7
BRANCH   3  13
ATOM     13  N   UNL     1      -0.703   1.561   1.216  0.00  0.00    -0.325 N 
ATOM     14  C   UNL     1      -2.097   1.094   1.236  0.00  0.00    +0.133 C 
ATOM     15  C   UNL     1      -2.819   1.602  -0.015  0.00  0.00    +0.179 C 
ATOM     16  O   UNL     1      -2.115   1.157  -1.178  0.00  0.00    -0.375 OA
ATOM     17  C   UNL     1      -0.755   1.594  -1.231  0.00  0.00    +0.118 C 
ATOM     18  C   UNL     1      -0.013   1.086   0.008  0.00  0.00    +0.134 C 
BRANCH  17  19
ATOM     19  C   UNL     1      -0.088   1.037  -2.490  0.00  0.00    -0.053 C 
BRANCH  19  22
ATOM     20  H   UNL     1      -0.301   1.266  -4.525  0.00  0.00    -0.090 HD
ATOM     21  H   UNL     1      -1.719   1.450  -3.676  0.00  0.00    -0.090 HD
ATOM     22  N   UNL     1      -0.719   1.643  -3.676  0.00  0.00    +0.380 N 
ATOM     23  H   UNL     1      -0.574   2.659  -3.653  0.00  0.00    -0.090 HD
ENDBRANCH  19  22
ENDBRANCH  17  19
ENDBRANCH   3  13
TORSDOF 4
