REMARK  Name = ZINC13500067
REMARK  12 active torsions:
REMARK  status: ('A' for Active; 'I' for Inactive)
REMARK    1  A    between atoms: C_1  and  C_2
REMARK    2  A    between atoms: C_2  and  C_3
REMARK    3  A    between atoms: C_3  and  C_4
REMARK    4  A    between atoms: C_4  and  C_6
REMARK    5  A    between atoms: C_4  and  N_72
REMARK    6  A    between atoms: N_10  and  C_11
REMARK    7  A    between atoms: C_11  and  C_12
REMARK    8  A    between atoms: C_18  and  C_19
REMARK    9  A    between atoms: C_18  and  N_72
REMARK   10  A    between atoms: C_23  and  C_32
REMARK   11  A    between atoms: C_25  and  C_31
REMARK   12  A    between atoms: C_33  and  N_72
REMARK                            x       y       z     vdW  Elec       q    Type
REMARK                         _______ _______ _______ _____ _____    ______ ____
ROOT
ATOM      1  N   UNL     1      -1.235   0.940   2.285  0.00  0.00    +0.391 N 
ATOM      2  H   UNL     1      -1.323   1.593   3.072  0.00  0.00    -0.080 HD
ENDROOT
BRANCH   1   3
ATOM      3  C   UNL     1      -0.203   1.446   1.355  0.00  0.00    -0.067 C 
ATOM      4  C   UNL     1      -0.717   2.709   0.621  0.00  0.00    -0.015 C 
ATOM      5  C   UNL     1       0.595   3.435   0.231  0.00  0.00    -0.002 C 
ATOM      6  C   UNL     1       1.527   3.207   1.439  0.00  0.00    -0.002 C 
ATOM      7  C   UNL     1       1.019   1.943   2.154  0.00  0.00    -0.015 C 
ENDBRANCH   1   3
BRANCH   1   8
ATOM      8  C   UNL     1      -2.537   0.844   1.592  0.00  0.00    +0.003 C 
BRANCH   8   9
ATOM      9  C   UNL     1      -2.436  -0.075   0.402  0.00  0.00    +0.138 A 
ATOM     10  N   UNL     1      -1.564  -1.038   0.229  0.00  0.00    -0.115 NA
ATOM     11  N   UNL     1      -1.804  -1.593  -0.909  0.00  0.00    -0.023 NA
ATOM     12  N   UNL     1      -2.808  -1.009  -1.465  0.00  0.00    -0.044 NA
ATOM     13  N   UNL     1      -3.229  -0.071  -0.685  0.00  0.00    -0.226 N 
BRANCH  13  14
ATOM     14  C   UNL     1      -4.356   0.830  -0.938  0.00  0.00    +0.182 C 
BRANCH  14  15
ATOM     15  C   UNL     1      -3.891   1.991  -1.780  0.00  0.00    -0.026 A 
ATOM     16  C   UNL     1      -3.516   3.176  -1.176  0.00  0.00    +0.005 A 
ATOM     17  C   UNL     1      -3.085   4.239  -1.947  0.00  0.00    +0.000 A 
ATOM     18  C   UNL     1      -3.040   4.120  -3.324  0.00  0.00    +0.000 A 
ATOM     19  C   UNL     1      -3.421   2.937  -3.928  0.00  0.00    +0.000 A 
ATOM     20  C   UNL     1      -3.846   1.872  -3.156  0.00  0.00    +0.005 A 
ENDBRANCH  14  15
ENDBRANCH  13  14
ENDBRANCH   8   9
BRANCH   8  21
ATOM     21  C   UNL     1      -3.582   0.302   2.569  0.00  0.00    -0.008 C 
BRANCH  21  23
ATOM     22  C   UNL     1      -4.683   0.661   4.783  0.00  0.00    +0.004 C 
ATOM     23  C   UNL     1      -3.687   1.238   3.775  0.00  0.00    -0.005 C 
ENDBRANCH  21  23
ENDBRANCH   8  21
ENDBRANCH   1   8
BRANCH   1  24
ATOM     24  C   UNL     1      -0.840  -0.387   2.803  0.00  0.00    -0.036 C 
BRANCH  24  25
ATOM     25  C   UNL     1       0.191  -0.195   3.885  0.00  0.00    +0.001 A 
ATOM     26  C   UNL     1      -0.190   0.238   5.113  0.00  0.00    +0.017 A 
ATOM     27  C   UNL     1       0.836   0.414   6.142  0.00  0.00    -0.001 A 
ATOM     28  C   UNL     1       0.504   0.857   7.426  0.00  0.00    +0.013 A 
ATOM     29  C   UNL     1       1.485   1.011   8.364  0.00  0.00    -0.050 A 
ATOM     30  C   UNL     1       2.809   0.732   8.054  0.00  0.00    +0.008 A 
ATOM     31  C   UNL     1       3.160   0.293   6.795  0.00  0.00    -0.026 A 
ATOM     32  C   UNL     1       2.178   0.130   5.824  0.00  0.00    +0.052 A 
ATOM     33  N   UNL     1       2.499  -0.308   4.556  0.00  0.00    -0.322 N 
ATOM     34  H   UNL     1       3.424  -0.503   4.339  0.00  0.00    +0.169 HD
ATOM     35  C   UNL     1       1.549  -0.472   3.619  0.00  0.00    +0.251 A 
ATOM     36  O   UNL     1       1.869  -0.865   2.511  0.00  0.00    -0.268 OA
ATOM     37  C   UNL     1       4.601  -0.006   6.472  0.00  0.00    +0.046 C 
ATOM     38  C   UNL     1       1.127   1.489   9.748  0.00  0.00    +0.044 C 
ENDBRANCH  24  25
ENDBRANCH   1  24
TORSDOF 9
