REMARK  Name = ZINC01888977
REMARK  9 active torsions:
REMARK  status: ('A' for Active; 'I' for Inactive)
REMARK    1  A    between atoms: C_4  and  C_7
REMARK    2  A    between atoms: C_9  and  C_31
REMARK    3  A    between atoms: C_11  and  S_15
REMARK    4  A    between atoms: C_12  and  C_13
REMARK    5  A    between atoms: S_15  and  C_16
REMARK    6  A    between atoms: C_16  and  C_17
REMARK    7  A    between atoms: N_19  and  N_20
REMARK    8  A    between atoms: C_21  and  C_22
REMARK    9  A    between atoms: C_24  and  N_28
REMARK                            x       y       z     vdW  Elec       q    Type
REMARK                         _______ _______ _______ _____ _____    ______ ____
ROOT
ATOM      1  C   UNL     1       4.104  -2.700   2.063  0.00  0.00    +0.004 A 
ATOM      2  C   UNL     1       3.595  -3.514   3.074  0.00  0.00    +0.038 A 
ATOM      3  C   UNL     1       3.388  -4.867   2.820  0.00  0.00    +0.073 A 
ATOM      4  N   UNL     1       3.677  -5.395   1.636  0.00  0.00    -0.239 NA
ATOM      5  C   UNL     1       4.167  -4.668   0.646  0.00  0.00    +0.116 A 
ATOM      6  C   UNL     1       4.401  -3.291   0.816  0.00  0.00    +0.091 A 
ENDROOT
BRANCH   1  10
ATOM      7  C   UNL     1       4.758   1.447   2.724  0.00  0.00    +0.000 A 
ATOM      8  C   UNL     1       3.538   0.882   3.049  0.00  0.00    +0.001 A 
ATOM      9  C   UNL     1       3.320  -0.464   2.837  0.00  0.00    +0.008 A 
ATOM     10  C   UNL     1       4.332  -1.254   2.293  0.00  0.00    -0.017 A 
ATOM     11  C   UNL     1       5.559  -0.679   1.967  0.00  0.00    +0.008 A 
ATOM     12  C   UNL     1       5.766   0.668   2.184  0.00  0.00    +0.001 A 
ENDBRANCH   1  10
BRANCH   3  13
ATOM     13  C   UNL     1       2.842  -5.734   3.890  0.00  0.00    +0.000 A 
ATOM     14  C   UNL     1       2.538  -5.196   5.140  0.00  0.00    +0.010 A 
ATOM     15  C   UNL     1       2.025  -6.007   6.132  0.00  0.00    +0.001 A 
ATOM     16  C   UNL     1       1.822  -7.354   5.891  0.00  0.00    +0.000 A 
ATOM     17  C   UNL     1       2.126  -7.895   4.654  0.00  0.00    +0.001 A 
ATOM     18  C   UNL     1       2.635  -7.092   3.654  0.00  0.00    +0.010 A 
ENDBRANCH   3  13
BRANCH   6  19
ATOM     19  C   UNL     1       4.931  -2.504  -0.256  0.00  0.00    +0.102 C 
ATOM     20  N   UNL     1       5.352  -1.879  -1.106  0.00  0.00    -0.191 NA
ENDBRANCH   6  19
BRANCH   5  21
ATOM     21  S   UNL     1       4.530  -5.430  -0.901  0.00  0.00    -0.095 S 
BRANCH  21  22
ATOM     22  C   UNL     1       4.044  -7.134  -0.533  0.00  0.00    +0.173 C 
BRANCH  22  23
ATOM     23  C   UNL     1       4.274  -7.996  -1.748  0.00  0.00    +0.242 C 
ATOM     24  O   UNL     1       4.722  -7.505  -2.764  0.00  0.00    -0.273 OA
ATOM     25  N   UNL     1       3.982  -9.311  -1.707  0.00  0.00    -0.206 N 
ATOM     26  H   UNL     1       3.623  -9.703  -0.895  0.00  0.00    +0.177 HD
BRANCH  25  27
ATOM     27  N   UNL     1       4.195 -10.111  -2.837  0.00  0.00    -0.188 NA
ATOM     28  C   UNL     1       3.814 -11.352  -2.834  0.00  0.00    +0.142 C 
BRANCH  28  29
ATOM     29  C   UNL     1       2.938 -11.852  -1.760  0.00  0.00    +0.043 A 
ATOM     30  C   UNL     1       2.093 -10.974  -1.077  0.00  0.00    +0.046 A 
ATOM     31  C   UNL     1       1.272 -11.449  -0.076  0.00  0.00    +0.127 A 
ATOM     32  C   UNL     1       1.290 -12.791   0.263  0.00  0.00    +0.036 A 
ATOM     33  C   UNL     1       2.125 -13.669  -0.401  0.00  0.00    +0.054 A 
ATOM     34  C   UNL     1       2.953 -13.210  -1.413  0.00  0.00    +0.188 A 
ATOM     35  O   UNL     1       3.775 -14.072  -2.066  0.00  0.00    -0.287 OA
BRANCH  31  36
ATOM     36  N   UNL     1       0.373 -10.519   0.643  0.00  0.00    +0.056 N 
ATOM     37  O   UNL     1      -0.349 -10.935   1.532  0.00  0.00    -0.126 OA
ATOM     38  O   UNL     1       0.356  -9.338   0.347  0.00  0.00    -0.126 OA
ENDBRANCH  31  36
ENDBRANCH  28  29
ENDBRANCH  25  27
ENDBRANCH  22  23
ENDBRANCH  21  22
ENDBRANCH   5  21
TORSDOF 9
