REMARK  Name = ZINC44138005
REMARK  2 active torsions:
REMARK  status: ('A' for Active; 'I' for Inactive)
REMARK    1  A    between atoms: C_8  and  C_12
REMARK    2  A    between atoms: C_15  and  N_24
REMARK                            x       y       z     vdW  Elec       q    Type
REMARK                         _______ _______ _______ _____ _____    ______ ____
ROOT
ATOM      1  C   UNL     1       2.887  -3.946  -0.389  0.00  0.00    +0.106 C 
ATOM      2  C   UNL     1       3.027  -4.690  -1.724  0.00  0.00    +0.054 C 
ATOM      3  C   UNL     1       3.078  -6.192  -1.448  0.00  0.00    +0.110 C 
ATOM      4  C   UNL     1       1.924  -6.608  -0.574  0.00  0.00    -0.006 A 
ATOM      5  C   UNL     1       1.539  -7.938  -0.561  0.00  0.00    +0.007 A 
ATOM      6  C   UNL     1       0.486  -8.350   0.233  0.00  0.00    +0.000 A 
ATOM      7  C   UNL     1      -0.191  -7.436   1.019  0.00  0.00    +0.002 A 
ATOM      8  C   UNL     1       0.186  -6.109   1.011  0.00  0.00    +0.023 A 
ATOM      9  C   UNL     1       1.245  -5.691   0.212  0.00  0.00    +0.033 A 
ATOM     10  N   UNL     1       1.606  -4.339   0.213  0.00  0.00    -0.337 N 
ATOM     11  H   UNL     1       1.020  -3.672   0.605  0.00  0.00    +0.147 HD
ENDROOT
BRANCH   1  19
ATOM     12  C   UNL     1       0.725   1.750  -1.176  0.00  0.00    +0.001 A 
ATOM     13  C   UNL     1       1.968   2.356  -1.349  0.00  0.00    +0.002 A 
ATOM     14  C   UNL     1       3.116   1.628  -1.301  0.00  0.00    +0.028 A 
ATOM     15  C   UNL     1       3.055   0.242  -1.074  0.00  0.00    +0.073 A 
ATOM     16  C   UNL     1       1.790  -0.372  -0.899  0.00  0.00    +0.001 A 
ATOM     17  C   UNL     1       0.625   0.411  -0.954  0.00  0.00    +0.010 A 
ATOM     18  C   UNL     1       1.730  -1.760  -0.672  0.00  0.00    +0.018 A 
ATOM     19  C   UNL     1       2.902  -2.458  -0.630  0.00  0.00    +0.010 A 
ATOM     20  C   UNL     1       4.115  -1.793  -0.811  0.00  0.00    +0.135 A 
ATOM     21  N   UNL     1       4.167  -0.499  -1.022  0.00  0.00    -0.235 NA
ATOM     22 CL   UNL     1       5.594  -2.700  -0.754  0.00  0.00    -0.062 Cl
ENDBRANCH   1  19
BRANCH   3  23
ATOM     23  N   UNL     1       4.335  -6.517  -0.770  0.00  0.00    -0.294 N 
ATOM     24  C   UNL     1       4.685  -6.072   0.584  0.00  0.00    +0.109 C 
ATOM     25  C   UNL     1       5.849  -6.984   1.030  0.00  0.00    +0.028 C 
ATOM     26  C   UNL     1       6.460  -7.403  -0.327  0.00  0.00    +0.097 C 
ATOM     27  C   UNL     1       5.314  -7.267  -1.306  0.00  0.00    +0.216 C 
ATOM     28  O   UNL     1       5.284  -7.761  -2.413  0.00  0.00    -0.276 OA
ENDBRANCH   3  23
TORSDOF 2
