REMARK  Name = ZINC63571247
REMARK  3 active torsions:
REMARK  status: ('A' for Active; 'I' for Inactive)
REMARK    1  A    between atoms: C_5  and  C_7
REMARK    2  A    between atoms: N_24  and  C_25
REMARK    3  A    between atoms: C_30  and  C_31
REMARK                            x       y       z     vdW  Elec       q    Type
REMARK                         _______ _______ _______ _____ _____    ______ ____
ROOT
ATOM      1  C   UNL     1       0.894  -1.477   0.418  0.00  0.00    +0.137 C 
ATOM      2  C   UNL     1       1.438  -1.885  -0.955  0.00  0.00    +0.131 C 
ATOM      3  C   UNL     1       0.234  -2.017  -1.878  0.00  0.00    -0.035 C 
ATOM      4  C   UNL     1       0.462  -1.212  -2.909  0.00  0.00    -0.001 A 
ATOM      5  C   UNL     1      -0.298  -0.963  -4.144  0.00  0.00    +0.010 A 
ATOM      6  C   UNL     1       0.229  -0.046  -4.998  0.00  0.00    +0.001 A 
ATOM      7  C   UNL     1       1.421   0.640  -4.750  0.00  0.00    +0.002 A 
ATOM      8  C   UNL     1       2.187   0.471  -3.643  0.00  0.00    +0.026 A 
ATOM      9  C   UNL     1       1.739  -0.472  -2.672  0.00  0.00    +0.043 A 
ATOM     10  N   UNL     1       2.293  -0.847  -1.533  0.00  0.00    -0.375 N 
ATOM     11  C   UNL     1      -0.962  -2.870  -1.533  0.00  0.00    +0.052 C 
ATOM     12  C   UNL     1      -1.397  -2.470  -0.112  0.00  0.00    +0.114 C 
ATOM     13  N   UNL     1      -0.214  -2.384   0.754  0.00  0.00    -0.276 N 
ATOM     14  C   UNL     1      -0.142  -3.144   1.864  0.00  0.00    +0.307 C 
ATOM     15  O   UNL     1       0.793  -3.014   2.631  0.00  0.00    -0.252 OA
ATOM     16  N   UNL     1      -1.107  -4.049   2.126  0.00  0.00    -0.269 N 
ATOM     17  H   UNL     1      -1.820  -4.195   1.486  0.00  0.00    +0.156 HD
ATOM     18  H   UNL     1       3.110  -0.501  -1.140  0.00  0.00    +0.160 HD
ENDROOT
BRANCH   1  23
ATOM     19  C   UNL     1      -1.091   1.587  -0.544  0.00  0.00    +0.000 A 
ATOM     20  C   UNL     1      -0.526   2.551   0.271  0.00  0.00    +0.003 A 
ATOM     21  C   UNL     1       0.499   2.213   1.133  0.00  0.00    +0.039 A 
ATOM     22  C   UNL     1       0.960   0.908   1.183  0.00  0.00    +0.128 A 
ATOM     23  C   UNL     1       0.394  -0.057   0.367  0.00  0.00    +0.010 A 
ATOM     24  C   UNL     1      -0.632   0.284  -0.496  0.00  0.00    +0.008 A 
ATOM     25  F   UNL     1       1.962   0.576   2.026  0.00  0.00    -0.205 F 
ENDBRANCH   1  23
BRANCH  16  26
ATOM     26  C   UNL     1      -1.078  -4.777   3.321  0.00  0.00    +0.046 A 
ATOM     27  C   UNL     1       0.130  -5.006   3.967  0.00  0.00    +0.024 A 
ATOM     28  C   UNL     1       0.155  -5.724   5.146  0.00  0.00    +0.002 A 
ATOM     29  C   UNL     1      -1.022  -6.215   5.683  0.00  0.00    +0.001 A 
ATOM     30  C   UNL     1      -2.225  -5.989   5.042  0.00  0.00    +0.014 A 
ATOM     31  C   UNL     1      -2.258  -5.266   3.865  0.00  0.00    +0.076 A 
BRANCH  31  32
ATOM     32  C   UNL     1      -3.571  -5.014   3.171  0.00  0.00    +0.419 C 
ATOM     33  F   UNL     1      -4.607  -5.601   3.905  0.00  0.00    -0.166 F 
ATOM     34  F   UNL     1      -3.790  -3.636   3.073  0.00  0.00    -0.166 F 
ATOM     35  F   UNL     1      -3.534  -5.573   1.888  0.00  0.00    -0.166 F 
ENDBRANCH  31  32
ENDBRANCH  16  26
TORSDOF 3
