REMARK  Name = ZINC16034085
REMARK  5 active torsions:
REMARK  status: ('A' for Active; 'I' for Inactive)
REMARK    1  A    between atoms: C_1  and  C_2
REMARK    2  A    between atoms: C_2  and  C_3
REMARK    3  A    between atoms: C_3  and  C_4
REMARK    4  A    between atoms: C_4  and  N_5
REMARK    5  A    between atoms: C_10  and  C_28
REMARK                            x       y       z     vdW  Elec       q    Type
REMARK                         _______ _______ _______ _____ _____    ______ ____
ROOT
ATOM      1  N   UNL     1       1.425  -2.500  -2.470  0.00  0.00    -0.242 N 
ATOM      2  C   UNL     1       0.784  -2.738  -3.621  0.00  0.00    +0.227 C 
ATOM      3  O   UNL     1      -0.406  -2.594  -3.803  0.00  0.00    -0.275 OA
ATOM      4  C   UNL     1       1.776  -3.213  -4.659  0.00  0.00    +0.107 C 
ATOM      5  C   UNL     1       1.499  -4.697  -4.981  0.00  0.00    +0.064 C 
ATOM      6  N   UNL     1       2.836  -5.348  -4.962  0.00  0.00    -0.296 NA
ATOM      7  C   UNL     1       3.540  -4.694  -3.843  0.00  0.00    +0.136 C 
ATOM      8  C   UNL     1       3.128  -3.201  -3.894  0.00  0.00    +0.122 C 
ATOM      9  C   UNL     1       2.743  -2.723  -2.512  0.00  0.00    +0.228 C 
ATOM     10  O   UNL     1       3.510  -2.568  -1.586  0.00  0.00    -0.275 OA
ATOM     11  C   UNL     1       5.029  -4.854  -3.962  0.00  0.00    +0.005 A 
ATOM     12  C   UNL     1       5.948  -4.492  -4.921  0.00  0.00    +0.027 A 
ATOM     13  C   UNL     1       7.289  -4.785  -4.742  0.00  0.00    +0.041 A 
ATOM     14  C   UNL     1       7.702  -5.442  -3.596  0.00  0.00    +0.022 A 
ATOM     15  C   UNL     1       6.785  -5.806  -2.633  0.00  0.00    +0.025 A 
ATOM     16  C   UNL     1       5.434  -5.514  -2.806  0.00  0.00    +0.039 A 
ATOM     17  N   UNL     1       4.332  -5.775  -1.987  0.00  0.00    -0.283 N 
ATOM     18  C   UNL     1       3.182  -5.326  -2.525  0.00  0.00    +0.243 C 
ATOM     19  O   UNL     1       2.073  -5.414  -2.042  0.00  0.00    -0.273 OA
ATOM     20 CL   UNL     1       8.448  -4.330  -5.951  0.00  0.00    -0.084 Cl
ATOM     21  C   UNL     1       0.858  -4.832  -6.364  0.00  0.00    +0.025 C 
ATOM     22  H   UNL     1       2.753  -6.341  -4.806  0.00  0.00    +0.123 HD
ATOM     23  H   UNL     1       4.389  -6.227  -1.131  0.00  0.00    +0.155 HD
ENDROOT
BRANCH   1  24
ATOM     24  C   UNL     1       0.739  -2.027  -1.265  0.00  0.00    +0.116 C 
BRANCH  24  25
ATOM     25  C   UNL     1       0.718  -0.497  -1.257  0.00  0.00    +0.019 C 
BRANCH  25  27
ATOM     26  C   UNL     1      -0.019   1.526   0.010  0.00  0.00    +0.004 C 
ATOM     27  C   UNL     1       0.002  -0.004   0.002  0.00  0.00    -0.002 C 
ENDBRANCH  25  27
ENDBRANCH  24  25
ENDBRANCH   1  24
TORSDOF 3
