REMARK  Name = ZINC39324520
REMARK  13 active torsions:
REMARK  status: ('A' for Active; 'I' for Inactive)
REMARK    1  A    between atoms: C_1  and  C_2
REMARK    2  A    between atoms: C_2  and  C_3
REMARK    3  A    between atoms: C_3  and  N_4
REMARK    4  A    between atoms: C_7  and  C_8
REMARK    5  A    between atoms: C_11  and  C_14
REMARK    6  A    between atoms: C_14  and  O_16
REMARK    7  A    between atoms: O_16  and  C_17
REMARK    8  A    between atoms: C_21  and  C_29
REMARK    9  A    between atoms: C_23  and  C_27
REMARK   10  A    between atoms: C_24  and  N_26
REMARK   11  A    between atoms: C_32  and  C_35
REMARK   12  A    between atoms: C_35  and  O_37
REMARK   13  A    between atoms: O_37  and  C_38
REMARK                            x       y       z     vdW  Elec       q    Type
REMARK                         _______ _______ _______ _____ _____    ______ ____
ROOT
ATOM      1  N   UNL     1      -1.093  -2.086   0.416  0.00  0.00    -0.294 NA
ATOM      2  C   UNL     1      -0.648  -2.476  -0.934  0.00  0.00    +0.123 C 
ATOM      3  C   UNL     1      -0.632  -3.990  -0.974  0.00  0.00    +0.010 C 
ATOM      4  C   UNL     1       0.363  -4.663  -1.582  0.00  0.00    +0.016 C 
ATOM      5  C   UNL     1      -1.750  -4.702  -0.320  0.00  0.00    +0.136 C 
ATOM      6  C   UNL     1      -2.605  -4.024   0.448  0.00  0.00    -0.001 C 
ATOM      7  C   UNL     1      -2.464  -2.538   0.659  0.00  0.00    +0.120 C 
ATOM      8  C   UNL     1      -3.747  -4.738   1.131  0.00  0.00    +0.095 C 
ATOM      9  C   UNL     1      -3.494  -6.218   1.167  0.00  0.00    +0.098 C 
ATOM     10  C   UNL     1      -2.577  -6.785   0.344  0.00  0.00    +0.199 C 
ATOM     11  O   UNL     1      -1.873  -6.036  -0.523  0.00  0.00    -0.441 OA
ENDROOT
BRANCH   4  12
ATOM     12  C   UNL     1       1.371  -3.933  -2.367  0.00  0.00    -0.025 A 
ATOM     13  C   UNL     1       2.688  -4.404  -2.425  0.00  0.00    +0.009 A 
ATOM     14  C   UNL     1       3.623  -3.727  -3.154  0.00  0.00    +0.015 A 
ATOM     15  C   UNL     1       3.265  -2.563  -3.842  0.00  0.00    +0.059 A 
ATOM     16  C   UNL     1       1.950  -2.092  -3.784  0.00  0.00    +0.015 A 
ATOM     17  C   UNL     1       1.012  -2.772  -3.061  0.00  0.00    +0.009 A 
BRANCH  15  18
ATOM     18  C   UNL     1       4.276  -1.832  -4.629  0.00  0.00    +0.339 C 
ATOM     19  O   UNL     1       5.419  -2.241  -4.680  0.00  0.00    -0.245 OA
BRANCH  18  20
ATOM     20  O   UNL     1       3.932  -0.711  -5.293  0.00  0.00    -0.464 OA
ATOM     21  C   UNL     1       4.961  -0.054  -6.035  0.00  0.00    +0.280 C 
ENDBRANCH  18  20
ENDBRANCH  15  18
ENDBRANCH   4  12
BRANCH   8  22
ATOM     22  C   UNL     1      -5.023  -4.473   0.374  0.00  0.00    -0.035 A 
ATOM     23  C   UNL     1      -5.132  -4.859  -0.950  0.00  0.00    +0.005 A 
ATOM     24  C   UNL     1      -6.297  -4.620  -1.648  0.00  0.00    +0.015 A 
ATOM     25  C   UNL     1      -7.368  -3.986  -1.016  0.00  0.00    +0.059 A 
ATOM     26  C   UNL     1      -7.252  -3.599   0.321  0.00  0.00    +0.015 A 
ATOM     27  C   UNL     1      -6.083  -3.849   1.009  0.00  0.00    +0.005 A 
BRANCH  25  28
ATOM     28  C   UNL     1      -8.619  -3.726  -1.757  0.00  0.00    +0.339 C 
ATOM     29  O   UNL     1      -8.717  -4.064  -2.920  0.00  0.00    -0.245 OA
BRANCH  28  30
ATOM     30  O   UNL     1      -9.651  -3.115  -1.144  0.00  0.00    -0.464 OA
ATOM     31  C   UNL     1     -10.830  -2.895  -1.922  0.00  0.00    +0.280 C 
ENDBRANCH  28  30
ENDBRANCH  25  28
ENDBRANCH   8  22
BRANCH  10  32
ATOM     32  N   UNL     1      -2.366  -8.140   0.396  0.00  0.00    -0.328 N 
ATOM     33  H   UNL     1      -2.870  -8.686   1.019  0.00  0.00    +0.145 HD
ATOM     34  H   UNL     1      -1.712  -8.552  -0.191  0.00  0.00    +0.145 HD
ENDBRANCH  10  32
BRANCH   9  35
ATOM     35  C   UNL     1      -4.228  -7.040   2.082  0.00  0.00    +0.101 C 
ATOM     36  N   UNL     1      -4.810  -7.691   2.808  0.00  0.00    -0.191 NA
ENDBRANCH   9  35
BRANCH   1  37
ATOM     37  C   UNL     1      -0.975  -0.635   0.610  0.00  0.00    +0.085 C 
BRANCH  37  39
ATOM     38  C   UNL     1       0.625   1.275   0.797  0.00  0.00    +0.005 C 
ATOM     39  C   UNL     1       0.502  -0.237   0.594  0.00  0.00    +0.012 C 
ENDBRANCH  37  39
ENDBRANCH   1  37
TORSDOF 10
