REMARK  Name = ZINC14458938
REMARK  6 active torsions:
REMARK  status: ('A' for Active; 'I' for Inactive)
REMARK    1  A    between atoms: C_1  and  O_2
REMARK    2  A    between atoms: O_2  and  C_3
REMARK    3  A    between atoms: C_5  and  C_10
REMARK    4  A    between atoms: C_8  and  O_9
REMARK    5  A    between atoms: C_21  and  S_26
REMARK    6  A    between atoms: S_26  and  N_29
REMARK                            x       y       z     vdW  Elec       q    Type
REMARK                         _______ _______ _______ _____ _____    ______ ____
ROOT
ATOM      1  C   UNL     1       3.621   0.890  -0.369  0.00  0.00    +0.105 C 
ATOM      2  C   UNL     1       2.160   0.673  -0.721  0.00  0.00    +0.029 C 
ATOM      3  C   UNL     1       1.446  -0.507  -0.049  0.00  0.00    +0.033 C 
ATOM      4  C   UNL     1       0.002  -0.004   0.002  0.00  0.00    -0.030 C 
ATOM      5  C   UNL     1      -0.016   1.323   0.009  0.00  0.00    -0.023 C 
ATOM      6  C   UNL     1       1.385   1.817  -0.001  0.00  0.00    +0.049 C 
ATOM      7  C   UNL     1       1.759   3.094  -0.647  0.00  0.00    -0.018 A 
ATOM      8  C   UNL     1       0.871   4.139  -0.789  0.00  0.00    +0.034 A 
ATOM      9  C   UNL     1       1.278   5.326  -1.370  0.00  0.00    +0.105 A 
ATOM     10  C   UNL     1       2.581   5.468  -1.812  0.00  0.00    +0.030 A 
ATOM     11  C   UNL     1       3.475   4.425  -1.683  0.00  0.00    +0.025 A 
ATOM     12  C   UNL     1       3.075   3.226  -1.105  0.00  0.00    +0.031 A 
ATOM     13  N   UNL     1       3.995   2.176  -0.997  0.00  0.00    -0.336 N 
ATOM     14  H   UNL     1       4.894   2.294  -1.341  0.00  0.00    +0.147 HD
ENDROOT
BRANCH   1  17
ATOM     15  C   UNL     1       5.644  -2.291  -0.620  0.00  0.00    +0.162 A 
ATOM     16  C   UNL     1       4.869  -1.262  -0.107  0.00  0.00    +0.054 A 
ATOM     17  C   UNL     1       4.463  -0.227  -0.928  0.00  0.00    -0.023 A 
ATOM     18  C   UNL     1       4.823  -0.218  -2.263  0.00  0.00    +0.009 A 
ATOM     19  C   UNL     1       5.600  -1.238  -2.780  0.00  0.00    +0.049 A 
ATOM     20  C   UNL     1       6.011  -2.278  -1.962  0.00  0.00    +0.158 A 
BRANCH  15  22
ATOM     21  C   UNL     1       5.631  -3.256   1.554  0.00  0.00    +0.277 C 
ATOM     22  O   UNL     1       6.045  -3.309   0.187  0.00  0.00    -0.491 OA
ENDBRANCH  15  22
BRANCH  20  23
ATOM     23  O   UNL     1       6.771  -3.285  -2.470  0.00  0.00    -0.503 OA
ATOM     24  H   UNL     1       6.259  -4.026  -2.821  0.00  0.00    +0.292 HD
ENDBRANCH  20  23
ENDBRANCH   1  17
BRANCH   9  25
ATOM     25  S   UNL     1       0.137   6.657  -1.546  0.00  0.00    +0.056 S 
ATOM     26  O   UNL     1      -0.867   6.465  -0.560  0.00  0.00    -0.153 OA
ATOM     27  O   UNL     1       0.910   7.847  -1.625  0.00  0.00    -0.153 OA
BRANCH  25  28
ATOM     28  N   UNL     1      -0.603   6.476  -3.017  0.00  0.00    -0.204 NA
ATOM     29  H   UNL     1      -0.366   5.730  -3.590  0.00  0.00    +0.144 HD
ATOM     30  H   UNL     1      -1.272   7.116  -3.305  0.00  0.00    +0.144 HD
ENDBRANCH  25  28
ENDBRANCH   9  25
TORSDOF 5
