REMARK  Name = ZINC64469555
REMARK  8 active torsions:
REMARK  status: ('A' for Active; 'I' for Inactive)
REMARK    1  A    between atoms: C_1  and  C_2
REMARK    2  A    between atoms: C_2  and  N_3
REMARK    3  A    between atoms: C_11  and  C_33
REMARK    4  A    between atoms: C_12  and  C_18
REMARK    5  A    between atoms: N_20  and  C_21
REMARK    6  A    between atoms: C_21  and  C_22
REMARK    7  A    between atoms: C_22  and  C_23
REMARK    8  A    between atoms: C_26  and  C_32
REMARK                            x       y       z     vdW  Elec       q    Type
REMARK                         _______ _______ _______ _____ _____    ______ ____
ROOT
ATOM      1  N   UNL     1      -2.716   0.390   0.337  0.00  0.00    +0.382 N 
ATOM      2  C   UNL     1      -4.073  -0.058   0.672  0.00  0.00    -0.060 C 
ATOM      3  C   UNL     1      -4.147  -1.585   0.562  0.00  0.00    +0.088 C 
ATOM      4  N   UNL     1      -3.691  -1.979  -0.780  0.00  0.00    -0.318 N 
ATOM      5  C   UNL     1      -2.411  -1.440  -1.263  0.00  0.00    +0.088 C 
ATOM      6  C   UNL     1      -2.418   0.080  -1.067  0.00  0.00    -0.060 C 
ATOM      7  C   UNL     1      -4.444  -2.830  -1.563  0.00  0.00    +0.133 A 
ATOM      8  C   UNL     1      -4.352  -4.243  -1.389  0.00  0.00    +0.051 A 
ATOM      9  C   UNL     1      -3.568  -4.977  -0.489  0.00  0.00    -0.019 A 
ATOM     10  C   UNL     1      -3.631  -6.337  -0.488  0.00  0.00    +0.079 A 
ATOM     11  S   UNL     1      -4.819  -6.681  -1.775  0.00  0.00    -0.064 S 
ATOM     12  C   UNL     1      -5.174  -5.010  -2.252  0.00  0.00    +0.114 A 
ATOM     13  N   UNL     1      -5.958  -4.439  -3.143  0.00  0.00    -0.228 NA
ATOM     14  C   UNL     1      -5.998  -3.125  -3.255  0.00  0.00    +0.224 A 
ATOM     15  N   UNL     1      -5.264  -2.345  -2.482  0.00  0.00    -0.220 NA
ATOM     16  C   UNL     1      -2.657  -4.262   0.475  0.00  0.00    +0.046 C 
ATOM     17  H   UNL     1      -2.052  -0.082   0.932  0.00  0.00    -0.082 HD
ENDROOT
BRANCH  10  18
ATOM     18  C   UNL     1      -2.902  -7.285   0.363  0.00  0.00    +0.251 C 
ATOM     19  O   UNL     1      -2.120  -6.875   1.200  0.00  0.00    -0.270 OA
ATOM     20  N   UNL     1      -3.099  -8.611   0.216  0.00  0.00    -0.311 N 
ATOM     21  H   UNL     1      -3.722  -8.938  -0.452  0.00  0.00    +0.149 HD
BRANCH  20  22
ATOM     22  C   UNL     1      -2.371  -9.557   1.064  0.00  0.00    +0.109 C 
BRANCH  22  23
ATOM     23  C   UNL     1      -2.775 -10.987   0.696  0.00  0.00    +0.052 C 
BRANCH  23  24
ATOM     24  C   UNL     1      -2.026 -11.961   1.569  0.00  0.00    -0.040 C 
ATOM     25  C   UNL     1      -2.462 -12.525   2.718  0.00  0.00    -0.001 A 
ATOM     26  C   UNL     1      -3.716 -12.403   3.471  0.00  0.00    +0.013 A 
ATOM     27  C   UNL     1      -3.865 -13.109   4.616  0.00  0.00    -0.050 A 
ATOM     28  C   UNL     1      -2.854 -13.950   5.100  0.00  0.00    +0.005 A 
ATOM     29  C   UNL     1      -1.675 -14.113   4.463  0.00  0.00    +0.026 A 
ATOM     30  C   UNL     1      -1.410 -13.420   3.250  0.00  0.00    +0.043 A 
ATOM     31  N   UNL     1      -0.364 -13.410   2.460  0.00  0.00    -0.380 N 
ATOM     32  C   UNL     1      -0.637 -12.511   1.334  0.00  0.00    +0.144 C 
ATOM     33  C   UNL     1      -5.152 -12.986   5.391  0.00  0.00    +0.044 C 
ATOM     34  H   UNL     1       0.452 -13.916   2.596  0.00  0.00    +0.160 HD
ENDBRANCH  23  24
ENDBRANCH  22  23
ENDBRANCH  20  22
ENDBRANCH  10  18
BRANCH   1  36
ATOM     35  C   UNL     1      -2.801   2.154   2.034  0.00  0.00    -0.017 C 
ATOM     36  C   UNL     1      -2.615   1.840   0.548  0.00  0.00    -0.082 C 
ENDBRANCH   1  36
TORSDOF 5
