REMARK  Name = ZINC40340578
REMARK  10 active torsions:
REMARK  status: ('A' for Active; 'I' for Inactive)
REMARK    1  A    between atoms: C_1  and  C_2
REMARK    2  A    between atoms: C_2  and  O_3
REMARK    3  A    between atoms: O_3  and  C_4
REMARK    4  A    between atoms: C_8  and  C_10
REMARK    5  A    between atoms: C_13  and  C_25
REMARK    6  A    between atoms: N_20  and  C_21
REMARK    7  A    between atoms: C_21  and  C_22
REMARK    8  A    between atoms: C_22  and  C_23
REMARK    9  A    between atoms: C_22  and  C_24
REMARK   10  A    between atoms: C_28  and  C_31
REMARK                            x       y       z     vdW  Elec       q    Type
REMARK                         _______ _______ _______ _____ _____    ______ ____
ROOT
ATOM      1  C   UNL     1      -4.316  -4.366   0.008  0.00  0.00    +0.141 C 
ATOM      2  C   UNL     1      -4.678  -4.842  -1.372  0.00  0.00    +0.035 A 
ATOM      3  C   UNL     1      -4.891  -4.513  -2.715  0.00  0.00    +0.099 A 
ATOM      4  N   UNL     1      -5.215  -5.625  -3.346  0.00  0.00    -0.173 NA
ATOM      5  N   UNL     1      -5.227  -6.622  -2.536  0.00  0.00    -0.272 N 
ATOM      6  H   UNL     1      -5.438  -7.537  -2.781  0.00  0.00    +0.189 HD
ATOM      7  C   UNL     1      -4.899  -6.203  -1.278  0.00  0.00    +0.126 A 
ATOM      8  C   UNL     1      -4.691  -6.614   0.115  0.00  0.00    +0.265 C 
ATOM      9  O   UNL     1      -4.808  -7.752   0.528  0.00  0.00    -0.268 OA
ATOM     10  N   UNL     1      -4.352  -5.553   0.872  0.00  0.00    -0.285 N 
ENDROOT
BRANCH   3  11
ATOM     11  C   UNL     1      -4.775  -3.162  -3.317  0.00  0.00    +0.002 A 
ATOM     12  C   UNL     1      -5.139  -2.035  -2.583  0.00  0.00    +0.010 A 
ATOM     13  C   UNL     1      -5.028  -0.781  -3.148  0.00  0.00    +0.004 A 
ATOM     14  C   UNL     1      -4.557  -0.641  -4.441  0.00  0.00    -0.050 A 
ATOM     15  C   UNL     1      -4.194  -1.756  -5.175  0.00  0.00    +0.004 A 
ATOM     16  C   UNL     1      -4.296  -3.015  -4.617  0.00  0.00    +0.010 A 
ATOM     17  C   UNL     1      -4.439   0.731  -5.053  0.00  0.00    +0.044 C 
ENDBRANCH   3  11
BRANCH   1  22
ATOM     18  C   UNL     1      -1.498  -1.848   0.006  0.00  0.00    +0.121 A 
ATOM     19  C   UNL     1      -0.387  -2.679  -0.003  0.00  0.00    +0.045 A 
ATOM     20  C   UNL     1      -0.552  -4.051  -0.008  0.00  0.00    +0.004 A 
ATOM     21  C   UNL     1      -1.823  -4.596  -0.004  0.00  0.00    +0.006 A 
ATOM     22  C   UNL     1      -2.932  -3.769   0.004  0.00  0.00    -0.019 A 
ATOM     23  C   UNL     1      -2.772  -2.397   0.016  0.00  0.00    +0.051 A 
BRANCH  18  24
ATOM     24  O   UNL     1      -1.339  -0.499   0.012  0.00  0.00    -0.492 OA
BRANCH  24  26
ATOM     25  C   UNL     1      -0.019   1.526   0.010  0.00  0.00    +0.048 C 
ATOM     26  C   UNL     1       0.002  -0.004   0.002  0.00  0.00    +0.225 C 
ENDBRANCH  24  26
ENDBRANCH  18  24
ENDBRANCH   1  22
BRANCH  10  27
ATOM     27  C   UNL     1      -4.068  -5.578   2.309  0.00  0.00    +0.112 C 
BRANCH  27  28
ATOM     28  C   UNL     1      -5.362  -5.341   3.089  0.00  0.00    +0.000 C 
ATOM     29  C   UNL     1      -5.090  -5.490   4.587  0.00  0.00    +0.009 C 
ATOM     30  C   UNL     1      -5.878  -3.929   2.803  0.00  0.00    +0.009 C 
ENDBRANCH  27  28
ENDBRANCH  10  27
TORSDOF 6
