REMARK  Name = ZINC33960929
REMARK  9 active torsions:
REMARK  status: ('A' for Active; 'I' for Inactive)
REMARK    1  A    between atoms: C_1  and  C_2
REMARK    2  A    between atoms: C_5  and  C_23
REMARK    3  A    between atoms: C_6  and  C_7
REMARK    4  A    between atoms: C_6  and  C_8
REMARK    5  A    between atoms: N_12  and  N_13
REMARK    6  A    between atoms: N_13  and  C_14
REMARK    7  A    between atoms: C_17  and  N_20
REMARK    8  A    between atoms: N_25  and  C_26
REMARK    9  A    between atoms: C_26  and  C_27
REMARK                            x       y       z     vdW  Elec       q    Type
REMARK                         _______ _______ _______ _____ _____    ______ ____
ROOT
ATOM      1  C   UNL     1      -0.019   1.526   0.010  0.00  0.00    +0.018 C 
ATOM      2  C   UNL     1       0.002  -0.004   0.002  0.00  0.00    +0.022 C 
ATOM      3  C   UNL     1       0.739  -0.675  -1.199  0.00  0.00    +0.015 C 
ATOM      4  C   UNL     1       1.008  -2.120  -0.716  0.00  0.00    +0.026 C 
ATOM      5  C   UNL     1       0.403  -2.159   0.722  0.00  0.00    +0.116 C 
ATOM      6  C   UNL     1       0.726  -0.701   1.210  0.00  0.00    -0.003 C 
ATOM      7  C   UNL     1       0.076  -0.361   2.552  0.00  0.00    +0.013 C 
ATOM      8  C   UNL     1       2.232  -0.431   1.218  0.00  0.00    +0.013 C 
ATOM      9  C   UNL     1      -1.110  -2.040   0.498  0.00  0.00    +0.195 C 
ATOM     10  O   UNL     1      -1.938  -2.913   0.667  0.00  0.00    -0.290 OA
ATOM     11  C   UNL     1      -1.364  -0.699   0.068  0.00  0.00    +0.109 C 
ATOM     12  N   UNL     1      -2.523  -0.172  -0.231  0.00  0.00    -0.183 NA
ENDROOT
BRANCH   5  13
ATOM     13  C   UNL     1       0.872  -3.283   1.609  0.00  0.00    +0.228 C 
ATOM     14  O   UNL     1       1.452  -3.036   2.645  0.00  0.00    -0.275 OA
ATOM     15  N   UNL     1       0.648  -4.563   1.251  0.00  0.00    -0.310 N 
ATOM     16  H   UNL     1       0.184  -4.760   0.422  0.00  0.00    +0.149 HD
BRANCH  15  17
ATOM     17  C   UNL     1       1.104  -5.655   2.113  0.00  0.00    +0.139 C 
BRANCH  17  18
ATOM     18  C   UNL     1       0.732  -6.976   1.490  0.00  0.00    -0.027 A 
ATOM     19  C   UNL     1      -0.489  -7.557   1.781  0.00  0.00    +0.009 A 
ATOM     20  C   UNL     1      -0.835  -8.768   1.212  0.00  0.00    +0.050 A 
ATOM     21  C   UNL     1       0.041  -9.403   0.347  0.00  0.00    +0.166 A 
ATOM     22  C   UNL     1       1.271  -8.818   0.054  0.00  0.00    +0.167 A 
ATOM     23  C   UNL     1       1.609  -7.602   0.624  0.00  0.00    +0.054 A 
ATOM     24  O   UNL     1       1.945  -9.630  -0.812  0.00  0.00    -0.453 OA
ATOM     25  C   UNL     1       1.291 -10.911  -0.727  0.00  0.00    +0.466 C 
ATOM     26  O   UNL     1      -0.055 -10.582  -0.335  0.00  0.00    -0.453 OA
ENDBRANCH  17  18
ENDBRANCH  15  17
ENDBRANCH   5  13
BRANCH  12  27
ATOM     27  N   UNL     1      -3.598  -0.877  -0.129  0.00  0.00    -0.237 N 
ATOM     28  H   UNL     1      -3.548  -1.798   0.170  0.00  0.00    +0.174 HD
BRANCH  27  29
ATOM     29  C   UNL     1      -4.835  -0.314  -0.449  0.00  0.00    +0.048 A 
ATOM     30  C   UNL     1      -4.908   1.004  -0.883  0.00  0.00    +0.027 A 
ATOM     31  C   UNL     1      -6.133   1.558  -1.199  0.00  0.00    +0.034 A 
ATOM     32  C   UNL     1      -7.286   0.802  -1.084  0.00  0.00    +0.126 A 
ATOM     33  C   UNL     1      -7.216  -0.509  -0.651  0.00  0.00    +0.034 A 
ATOM     34  C   UNL     1      -5.994  -1.071  -0.339  0.00  0.00    +0.027 A 
BRANCH  32  35
ATOM     35  N   UNL     1      -8.597   1.400  -1.423  0.00  0.00    +0.056 N 
ATOM     36  O   UNL     1      -8.660   2.546  -1.801  0.00  0.00    -0.126 OA
ATOM     37  O   UNL     1      -9.606   0.741  -1.322  0.00  0.00    -0.126 OA
ENDBRANCH  32  35
ENDBRANCH  27  29
ENDBRANCH  12  27
TORSDOF 6
