REMARK  Name = ZINC64679570
REMARK  4 active torsions:
REMARK  status: ('A' for Active; 'I' for Inactive)
REMARK    1  A    between atoms: C_1  and  C_2
REMARK    2  A    between atoms: C_4  and  C_14
REMARK    3  A    between atoms: C_17  and  S_20
REMARK    4  A    between atoms: S_20  and  C_21
REMARK                            x       y       z     vdW  Elec       q    Type
REMARK                         _______ _______ _______ _____ _____    ______ ____
ROOT
ATOM      1  C   UNL     1       0.043   1.468   0.366  0.00  0.00    +0.067 C 
ATOM      2  C   UNL     1       0.043  -0.039   0.331  0.00  0.00    +0.064 C 
ATOM      3  C   UNL     1      -1.034  -0.788   0.276  0.00  0.00    +0.004 C 
ATOM      4  C   UNL     1      -2.500  -0.495   0.431  0.00  0.00    +0.059 C 
ATOM      5  C   UNL     1      -2.954  -1.259   1.686  0.00  0.00    +0.108 C 
ATOM      6  C   UNL     1      -2.260  -2.575   1.821  0.00  0.00    +0.216 C 
ATOM      7  O   UNL     1      -2.788  -3.382   2.557  0.00  0.00    -0.276 OA
ATOM      8  N   UNL     1      -1.131  -2.972   1.231  0.00  0.00    -0.289 N 
ATOM      9  C   UNL     1      -0.511  -2.214   0.152  0.00  0.00    +0.243 C 
ATOM     10  N   UNL     1       0.933  -2.034   0.294  0.00  0.00    -0.160 NA
ATOM     11  N   UNL     1       1.156  -0.817   0.346  0.00  0.00    -0.157 NA
ATOM     12  H   UNL     1      -0.708  -3.792   1.531  0.00  0.00    +0.151 HD
ENDROOT
BRANCH   4  13
ATOM     13  C   UNL     1      -2.717   0.985   0.614  0.00  0.00    -0.040 A 
ATOM     14  C   UNL     1      -3.172   1.751  -0.444  0.00  0.00    +0.005 A 
ATOM     15  C   UNL     1      -3.372   3.107  -0.280  0.00  0.00    +0.015 A 
ATOM     16  C   UNL     1      -3.116   3.702   0.949  0.00  0.00    +0.008 A 
ATOM     17  C   UNL     1      -2.659   2.929   2.010  0.00  0.00    +0.015 A 
ATOM     18  C   UNL     1      -2.466   1.572   1.840  0.00  0.00    +0.005 A 
BRANCH  16  19
ATOM     19  S   UNL     1      -3.369   5.433   1.163  0.00  0.00    -0.129 S 
ATOM     20  C   UNL     1      -2.910   5.734   2.892  0.00  0.00    +0.090 C 
ENDBRANCH  16  19
ENDBRANCH   4  13
TORSDOF 2
