REMARK  Name = ZINC33078173
REMARK  8 active torsions:
REMARK  status: ('A' for Active; 'I' for Inactive)
REMARK    1  A    between atoms: C_1  and  C_2
REMARK    2  A    between atoms: C_4  and  N_26
REMARK    3  A    between atoms: N_8  and  C_9
REMARK    4  A    between atoms: C_12  and  N_15
REMARK    5  A    between atoms: N_15  and  S_16
REMARK    6  A    between atoms: S_16  and  C_19
REMARK    7  A    between atoms: N_26  and  C_27
REMARK    8  A    between atoms: N_26  and  C_28
REMARK                            x       y       z     vdW  Elec       q    Type
REMARK                         _______ _______ _______ _____ _____    ______ ____
ROOT
ATOM      1  C   UNL     1      -3.562   3.501   1.748  0.00  0.00    +0.034 A 
ATOM      2  C   UNL     1      -4.210   2.359   2.199  0.00  0.00    +0.025 A 
ATOM      3  C   UNL     1      -3.767   1.112   1.805  0.00  0.00    +0.026 A 
ATOM      4  C   UNL     1      -2.673   1.000   0.957  0.00  0.00    +0.048 A 
ATOM      5  C   UNL     1      -2.021   2.142   0.510  0.00  0.00    +0.026 A 
ATOM      6  C   UNL     1      -2.468   3.389   0.900  0.00  0.00    +0.025 A 
ENDROOT
BRANCH   1  14
ATOM      7  C   UNL     1       0.567   6.151   2.446  0.00  0.00    +0.063 C 
ATOM      8  C   UNL     1      -0.904   6.469   2.516  0.00  0.00    +0.019 A 
ATOM      9  C   UNL     1      -1.328   7.754   2.795  0.00  0.00    +0.064 A 
ATOM     10  C   UNL     1      -2.701   8.005   2.851  0.00  0.00    +0.126 A 
ATOM     11  N   UNL     1      -3.549   7.005   2.630  0.00  0.00    -0.201 NA
ATOM     12  C   UNL     1      -3.101   5.786   2.370  0.00  0.00    +0.199 A 
ATOM     13  N   UNL     1      -1.805   5.519   2.310  0.00  0.00    -0.331 N 
ATOM     14  N   UNL     1      -4.011   4.766   2.148  0.00  0.00    -0.285 N 
ATOM     15  H   UNL     1      -5.087   4.949   2.287  0.00  0.00    +0.155 HD
ATOM     16  H   UNL     1      -1.480   4.492   2.087  0.00  0.00    +0.168 HD
BRANCH  10  17
ATOM     17  N   UNL     1      -3.171   9.278   3.128  0.00  0.00    -0.321 N 
ATOM     18  C   UNL     1      -2.232  10.395   3.256  0.00  0.00    +0.130 C 
ATOM     19  C   UNL     1      -4.609   9.508   3.292  0.00  0.00    +0.130 C 
ENDBRANCH  10  17
ENDBRANCH   1  14
BRANCH   4  20
ATOM     20  N   UNL     1      -2.224  -0.264   0.557  0.00  0.00    -0.216 N 
ATOM     21  H   UNL     1      -2.115  -1.069   1.299  0.00  0.00    +0.174 HD
BRANCH  20  22
ATOM     22  S   UNL     1      -1.855  -0.547  -1.032  0.00  0.00    +0.075 S 
ATOM     23  O   UNL     1      -1.532  -1.927  -1.134  0.00  0.00    -0.150 OA
ATOM     24  O   UNL     1      -0.955   0.478  -1.429  0.00  0.00    -0.150 OA
BRANCH  22  25
ATOM     25  C   UNL     1      -3.333  -0.306  -1.960  0.00  0.00    +0.143 A 
ATOM     26  C   UNL     1      -3.408   0.715  -2.889  0.00  0.00    +0.032 A 
ATOM     27  C   UNL     1      -4.567   0.904  -3.617  0.00  0.00    +0.002 A 
ATOM     28  C   UNL     1      -5.654   0.072  -3.419  0.00  0.00    +0.003 A 
ATOM     29  C   UNL     1      -5.581  -0.950  -2.491  0.00  0.00    +0.040 A 
ATOM     30  C   UNL     1      -4.420  -1.140  -1.760  0.00  0.00    +0.150 A 
ATOM     31  F   UNL     1      -4.346  -2.142  -0.857  0.00  0.00    -0.203 F 
ENDBRANCH  22  25
ENDBRANCH  20  22
ENDBRANCH   4  20
TORSDOF 5
