REMARK  Name = ZINC35777675
REMARK  14 active torsions:
REMARK  status: ('A' for Active; 'I' for Inactive)
REMARK    1  A    between atoms: C_1  and  C_2
REMARK    2  A    between atoms: C_2  and  C_3
REMARK    3  A    between atoms: C_3  and  C_4
REMARK    4  A    between atoms: C_4  and  C_6
REMARK    5  A    between atoms: C_4  and  O_36
REMARK    6  A    between atoms: C_6  and  N_7
REMARK    7  A    between atoms: N_7  and  C_8
REMARK    8  A    between atoms: N_7  and  C_29
REMARK    9  A    between atoms: C_8  and  C_9
REMARK   10  A    between atoms: C_10  and  C_28
REMARK   11  A    between atoms: N_12  and  C_22
REMARK   12  A    between atoms: C_13  and  O_14
REMARK   13  A    between atoms: O_14  and  C_15
REMARK   14  A    between atoms: C_29  and  C_30
REMARK                            x       y       z     vdW  Elec       q    Type
REMARK                         _______ _______ _______ _____ _____    ______ ____
ROOT
ATOM      1  C   UNL     1      -3.809  -6.580   0.501  0.00  0.00    +0.021 A 
ATOM      2  C   UNL     1      -3.506  -7.562  -0.447  0.00  0.00    +0.065 A 
ATOM      3  N   UNL     1      -2.986  -8.590   0.174  0.00  0.00    -0.168 NA
ATOM      4  N   UNL     1      -2.938  -8.301   1.544  0.00  0.00    -0.200 N 
ATOM      5  C   UNL     1      -3.446  -7.053   1.724  0.00  0.00    +0.225 A 
ATOM      6  C   UNL     1      -3.739  -7.454  -1.932  0.00  0.00    +0.068 C 
ENDROOT
BRANCH   4   7
ATOM      7  C   UNL     1      -2.449  -9.146   2.549  0.00  0.00    +0.069 A 
ATOM      8  C   UNL     1      -1.735  -8.617   3.616  0.00  0.00    +0.028 A 
ATOM      9  C   UNL     1      -1.254  -9.452   4.605  0.00  0.00    +0.002 A 
ATOM     10  C   UNL     1      -1.483 -10.814   4.534  0.00  0.00    +0.000 A 
ATOM     11  C   UNL     1      -2.193 -11.344   3.473  0.00  0.00    +0.002 A 
ATOM     12  C   UNL     1      -2.681 -10.514   2.483  0.00  0.00    +0.028 A 
ENDBRANCH   4   7
BRANCH   1  13
ATOM     13  C   UNL     1      -4.423  -5.233   0.218  0.00  0.00    -0.036 C 
BRANCH  13  14
ATOM     14  N   UNL     1      -3.359  -4.254  -0.040  0.00  0.00    +0.386 N 
ATOM     15  H   UNL     1      -2.738  -4.216   0.754  0.00  0.00    -0.081 HD
BRANCH  14  16
ATOM     16  C   UNL     1      -3.955  -2.929  -0.259  0.00  0.00    -0.047 C 
BRANCH  16  17
ATOM     17  C   UNL     1      -4.580  -2.429   1.044  0.00  0.00    +0.098 C 
BRANCH  17  18
ATOM     18  O   UNL     1      -5.711  -3.240   1.372  0.00  0.00    -0.394 OA
ATOM     19  H   UNL     1      -6.407  -3.234   0.701  0.00  0.00    +0.210 HD
ENDBRANCH  17  18
BRANCH  17  20
ATOM     20  C   UNL     1      -5.028  -0.976   0.871  0.00  0.00    +0.029 C 
BRANCH  20  22
ATOM     21  C   UNL     1      -5.987   1.016   2.035  0.00  0.00    +0.004 C 
ATOM     22  C   UNL     1      -5.539  -0.437   2.208  0.00  0.00    -0.001 C 
ENDBRANCH  20  22
ENDBRANCH  17  20
ENDBRANCH  16  17
ENDBRANCH  14  16
BRANCH  14  23
ATOM     23  C   UNL     1      -2.604  -4.655  -1.234  0.00  0.00    -0.046 C 
BRANCH  23  24
ATOM     24  C   UNL     1      -1.411  -3.715  -1.422  0.00  0.00    +0.102 C 
ATOM     25  C   UNL     1      -0.654  -4.082  -2.717  0.00  0.00    +0.032 C 
ATOM     26  C   UNL     1       0.829  -3.895  -2.296  0.00  0.00    +0.030 C 
ATOM     27  C   UNL     1       0.771  -4.336  -0.812  0.00  0.00    +0.160 C 
ATOM     28  O   UNL     1      -0.498  -3.864  -0.329  0.00  0.00    -0.378 OA
ENDBRANCH  23  24
ENDBRANCH  14  23
ENDBRANCH  13  14
ENDBRANCH   1  13
BRANCH   5  29
ATOM     29  O   UNL     1      -3.572  -6.399   2.907  0.00  0.00    -0.436 OA
BRANCH  29  30
ATOM     30  C   UNL     1      -4.677  -6.646   3.658  0.00  0.00    +0.149 A 
ATOM     31  C   UNL     1      -5.583  -7.620   3.262  0.00  0.00    +0.048 A 
ATOM     32  C   UNL     1      -6.706  -7.869   4.027  0.00  0.00    +0.004 A 
ATOM     33  C   UNL     1      -6.928  -7.149   5.187  0.00  0.00    +0.002 A 
ATOM     34  C   UNL     1      -6.027  -6.178   5.584  0.00  0.00    +0.024 A 
ATOM     35  C   UNL     1      -4.899  -5.929   4.826  0.00  0.00    +0.083 A 
ATOM     36 CL   UNL     1      -3.764  -4.715   5.329  0.00  0.00    -0.080 Cl
ENDBRANCH  29  30
ENDBRANCH   5  29
TORSDOF 12
