REMARK  Name = ZINC09264696
REMARK  9 active torsions:
REMARK  status: ('A' for Active; 'I' for Inactive)
REMARK    1  A    between atoms: C_1  and  C_2
REMARK    2  A    between atoms: C_4  and  C_24
REMARK    3  A    between atoms: C_5  and  C_23
REMARK    4  A    between atoms: N_6  and  C_7
REMARK    5  A    between atoms: C_10  and  S_13
REMARK    6  A    between atoms: S_13  and  C_14
REMARK    7  A    between atoms: C_17  and  N_20
REMARK    8  A    between atoms: N_28  and  C_35
REMARK    9  A    between atoms: N_31  and  C_34
REMARK                            x       y       z     vdW  Elec       q    Type
REMARK                         _______ _______ _______ _____ _____    ______ ____
ROOT
ATOM      1  C   UNL     1       7.067  -5.729   1.206  0.00  0.00    +0.064 C 
ATOM      2  C   UNL     1       7.670  -4.874   0.121  0.00  0.00    +0.022 A 
ATOM      3  C   UNL     1       8.889  -5.044  -0.415  0.00  0.00    +0.031 A 
ATOM      4  C   UNL     1       9.052  -3.985  -1.422  0.00  0.00    -0.003 A 
ATOM      5  C   UNL     1       7.871  -3.257  -1.399  0.00  0.00    +0.028 A 
ATOM      6  N   UNL     1       7.060  -3.805  -0.476  0.00  0.00    -0.317 N 
ATOM      7  C   UNL     1       7.552  -2.060  -2.259  0.00  0.00    +0.064 C 
ENDROOT
BRANCH   4   8
ATOM      8  C   UNL     1      10.180  -3.755  -2.245  0.00  0.00    +0.028 C 
ATOM      9  C   UNL     1      11.455  -3.828  -1.708  0.00  0.00    +0.100 C 
ATOM     10  C   UNL     1      11.672  -3.949  -0.255  0.00  0.00    +0.257 C 
ATOM     11  O   UNL     1      10.732  -3.987   0.517  0.00  0.00    -0.269 OA
ATOM     12  N   UNL     1      12.942  -4.020   0.196  0.00  0.00    -0.252 N 
ATOM     13  C   UNL     1      13.987  -3.973  -0.642  0.00  0.00    +0.148 C 
ATOM     14  S   UNL     1      15.562  -4.064   0.021  0.00  0.00    -0.018 S 
ATOM     15  N   UNL     1      13.864  -3.859  -1.972  0.00  0.00    -0.252 N 
ATOM     16  C   UNL     1      12.654  -3.783  -2.565  0.00  0.00    +0.257 C 
ATOM     17  O   UNL     1      12.556  -3.679  -3.773  0.00  0.00    -0.269 OA
ATOM     18  C   UNL     1      15.071  -3.816  -2.801  0.00  0.00    +0.140 C 
ATOM     19  C   UNL     1      13.184  -4.146   1.635  0.00  0.00    +0.140 C 
ENDBRANCH   4   8
BRANCH   6  20
ATOM     20  C   UNL     1       5.773  -3.343  -0.165  0.00  0.00    +0.047 A 
ATOM     21  C   UNL     1       4.667  -4.141  -0.425  0.00  0.00    +0.027 A 
ATOM     22  C   UNL     1       3.400  -3.686  -0.119  0.00  0.00    +0.017 A 
ATOM     23  C   UNL     1       3.232  -2.428   0.448  0.00  0.00    +0.013 A 
ATOM     24  C   UNL     1       4.339  -1.628   0.704  0.00  0.00    +0.017 A 
ATOM     25  C   UNL     1       5.606  -2.086   0.403  0.00  0.00    +0.027 A 
BRANCH  23  26
ATOM     26  S   UNL     1       1.615  -1.846   0.837  0.00  0.00    -0.089 S 
BRANCH  26  27
ATOM     27  C   UNL     1       1.875  -0.185   1.363  0.00  0.00    +0.013 A 
ATOM     28  C   UNL     1       1.939   0.840   0.426  0.00  0.00    +0.017 A 
ATOM     29  C   UNL     1       2.143   2.141   0.842  0.00  0.00    +0.034 A 
ATOM     30  C   UNL     1       2.283   2.425   2.188  0.00  0.00    +0.126 A 
ATOM     31  C   UNL     1       2.220   1.408   3.123  0.00  0.00    +0.034 A 
ATOM     32  C   UNL     1       2.017   0.104   2.715  0.00  0.00    +0.017 A 
BRANCH  30  33
ATOM     33  N   UNL     1       2.501   3.821   2.630  0.00  0.00    +0.056 N 
ATOM     34  O   UNL     1       2.557   4.718   1.808  0.00  0.00    -0.126 OA
ATOM     35  O   UNL     1       2.624   4.073   3.815  0.00  0.00    -0.126 OA
ENDBRANCH  30  33
ENDBRANCH  26  27
ENDBRANCH  23  26
ENDBRANCH   6  20
TORSDOF 5
