REMARK  Name = ZINC33580793
REMARK  4 active torsions:
REMARK  status: ('A' for Active; 'I' for Inactive)
REMARK    1  A    between atoms: C_1  and  C_2
REMARK    2  A    between atoms: C_8  and  C_22
REMARK    3  A    between atoms: C_10  and  O_15
REMARK    4  A    between atoms: O_15  and  C_16
REMARK                            x       y       z     vdW  Elec       q    Type
REMARK                         _______ _______ _______ _____ _____    ______ ____
ROOT
ATOM      1  C   UNL     1       2.236   5.392   1.609  0.00  0.00    +0.044 C 
ATOM      2  C   UNL     1       2.258   4.146   0.762  0.00  0.00    -0.050 A 
ATOM      3  C   UNL     1       3.372   3.851  -0.007  0.00  0.00    +0.005 A 
ATOM      4  C   UNL     1       3.394   2.713  -0.783  0.00  0.00    +0.024 A 
ATOM      5  C   UNL     1       2.300   1.846  -0.806  0.00  0.00    +0.043 A 
ATOM      6  C   UNL     1       1.179   2.139  -0.031  0.00  0.00    +0.022 A 
ATOM      7  C   UNL     1       1.172   3.302   0.754  0.00  0.00    +0.015 A 
ATOM      8  C   UNL     1      -0.015   1.282   0.009  0.00  0.00    +0.078 C 
ATOM      9  N   UNL     1       0.002  -0.004   0.031  0.00  0.00    -0.243 NA
ATOM     10  C   UNL     1       1.254  -0.759   0.012  0.00  0.00    +0.323 C 
ATOM     11  C   UNL     1       1.963  -0.493  -1.288  0.00  0.00    +0.269 C 
ATOM     12  O   UNL     1       2.148  -1.411  -2.059  0.00  0.00    -0.270 OA
ATOM     13  N   UNL     1       2.394   0.723  -1.614  0.00  0.00    -0.281 N 
ATOM     14  H   UNL     1       2.854   0.800  -2.610  0.00  0.00    +0.155 HD
ENDROOT
BRANCH   8  15
ATOM     15  C   UNL     1      -1.338   1.949   0.019  0.00  0.00    +0.001 A 
ATOM     16  C   UNL     1      -2.454   1.284   0.525  0.00  0.00    +0.010 A 
ATOM     17  C   UNL     1      -3.683   1.912   0.535  0.00  0.00    +0.001 A 
ATOM     18  C   UNL     1      -3.810   3.196   0.036  0.00  0.00    +0.000 A 
ATOM     19  C   UNL     1      -2.707   3.860  -0.472  0.00  0.00    +0.001 A 
ATOM     20  C   UNL     1      -1.473   3.243  -0.483  0.00  0.00    +0.010 A 
ENDBRANCH   8  15
BRANCH  10  21
ATOM     21  O   UNL     1       2.081  -0.344   1.101  0.00  0.00    -0.344 OA
BRANCH  21  22
ATOM     22  C   UNL     1       1.658  -0.839   2.373  0.00  0.00    +0.121 C 
ATOM     23  C   UNL     1       0.681   0.153   3.008  0.00  0.00    +0.032 C 
ATOM     24  C   UNL     1       0.228  -0.377   4.370  0.00  0.00    +0.003 C 
ATOM     25  C   UNL     1       1.446  -0.548   5.281  0.00  0.00    +0.000 C 
ATOM     26  C   UNL     1       2.422  -1.541   4.646  0.00  0.00    +0.003 C 
ATOM     27  C   UNL     1       2.875  -1.011   3.284  0.00  0.00    +0.032 C 
ENDBRANCH  21  22
ENDBRANCH  10  21
TORSDOF 3
