REMARK  Name = ZINC14882586
REMARK  12 active torsions:
REMARK  status: ('A' for Active; 'I' for Inactive)
REMARK    1  A    between atoms: C_1  and  C_2
REMARK    2  A    between atoms: C_2  and  O_3
REMARK    3  A    between atoms: O_3  and  C_4
REMARK    4  A    between atoms: C_8  and  C_11
REMARK    5  A    between atoms: C_9  and  O_10
REMARK    6  A    between atoms: C_11  and  N_68
REMARK    7  A    between atoms: C_14  and  C_17
REMARK    8  A    between atoms: C_17  and  C_19
REMARK    9  A    between atoms: C_17  and  N_27
REMARK   10  A    between atoms: C_19  and  C_20
REMARK   11  A    between atoms: N_27  and  C_28
REMARK   12  A    between atoms: C_29  and  C_31
REMARK                            x       y       z     vdW  Elec       q    Type
REMARK                         _______ _______ _______ _____ _____    ______ ____
ROOT
ATOM      1  C   UNL     1       5.208   2.027  -4.077  0.00  0.00    -0.078 C 
ATOM      2  C   UNL     1       4.669   1.596  -2.711  0.00  0.00    -0.013 C 
ATOM      3  C   UNL     1       5.552   2.188  -1.609  0.00  0.00    +0.006 C 
ATOM      4  C   UNL     1       5.580   3.712  -1.750  0.00  0.00    -0.013 C 
ATOM      5  C   UNL     1       6.092   4.082  -3.144  0.00  0.00    -0.078 C 
ATOM      6  N   UNL     1       5.185   3.503  -4.158  0.00  0.00    +0.382 N 
ATOM      7  H   UNL     1       4.229   3.832  -3.976  0.00  0.00    -0.081 HD
ENDROOT
BRANCH   6   8
ATOM      8  C   UNL     1       5.594   3.941  -5.509  0.00  0.00    -0.039 C 
BRANCH   8  13
ATOM      9  C   UNL     1       6.045   7.688  -5.227  0.00  0.00    +0.162 A 
ATOM     10  C   UNL     1       4.903   8.147  -5.863  0.00  0.00    +0.049 A 
ATOM     11  C   UNL     1       3.990   7.247  -6.380  0.00  0.00    +0.004 A 
ATOM     12  C   UNL     1       4.215   5.888  -6.265  0.00  0.00    +0.005 A 
ATOM     13  C   UNL     1       5.353   5.423  -5.632  0.00  0.00    -0.019 A 
ATOM     14  C   UNL     1       6.268   6.320  -5.106  0.00  0.00    +0.160 A 
BRANCH  14  15
ATOM     15  O   UNL     1       7.386   5.865  -4.479  0.00  0.00    -0.503 OA
ATOM     16  H   UNL     1       8.143   5.740  -5.066  0.00  0.00    +0.292 HD
ENDBRANCH  14  15
BRANCH   9  17
ATOM     17  O   UNL     1       6.944   8.573  -4.718  0.00  0.00    -0.489 OA
BRANCH  17  19
ATOM     18  C   UNL     1       7.763  10.796  -4.242  0.00  0.00    +0.048 C 
ATOM     19  C   UNL     1       6.646   9.962  -4.874  0.00  0.00    +0.226 C 
ENDBRANCH  17  19
ENDBRANCH   9  17
ENDBRANCH   8  13
ENDBRANCH   6   8
BRANCH   3  20
ATOM     20  C   UNL     1       4.982   1.810  -0.240  0.00  0.00    +0.083 C 
BRANCH  20  21
ATOM     21  N   UNL     1       3.577   2.218  -0.167  0.00  0.00    -0.297 N 
ATOM     22  C   UNL     1       3.225   3.640  -0.174  0.00  0.00    +0.132 C 
ATOM     23  C   UNL     1       2.608   1.284  -0.093  0.00  0.00    +0.253 C 
ATOM     24  O   UNL     1       2.902   0.110   0.027  0.00  0.00    -0.269 OA
BRANCH  23  25
ATOM     25  C   UNL     1       1.199   1.684  -0.157  0.00  0.00    +0.074 A 
ATOM     26  C   UNL     1       0.065   0.887  -0.172  0.00  0.00    +0.021 A 
ATOM     27  C   UNL     1      -1.148   1.527  -0.243  0.00  0.00    +0.008 A 
ATOM     28  C   UNL     1      -1.180   2.885  -0.283  0.00  0.00    +0.046 A 
ATOM     29  S   UNL     1       0.497   3.322  -0.236  0.00  0.00    -0.092 S 
ENDBRANCH  23  25
ENDBRANCH  20  21
BRANCH  20  30
ATOM     30  C   UNL     1       5.777   2.522   0.857  0.00  0.00    +0.060 C 
BRANCH  30  31
ATOM     31  C   UNL     1       5.297   2.057   2.207  0.00  0.00    -0.010 A 
ATOM     32  C   UNL     1       4.343   2.787   2.891  0.00  0.00    +0.006 A 
ATOM     33  C   UNL     1       3.899   2.358   4.127  0.00  0.00    +0.000 A 
ATOM     34  C   UNL     1       4.416   1.204   4.686  0.00  0.00    +0.003 A 
ATOM     35  C   UNL     1       5.373   0.475   4.007  0.00  0.00    +0.038 A 
ATOM     36  C   UNL     1       5.815   0.901   2.766  0.00  0.00    +0.127 A 
ATOM     37  F   UNL     1       6.752   0.190   2.101  0.00  0.00    -0.205 F 
ENDBRANCH  30  31
ENDBRANCH  20  30
ENDBRANCH   3  20
TORSDOF 10
