REMARK  Name = ZINC40323070
REMARK  7 active torsions:
REMARK  status: ('A' for Active; 'I' for Inactive)
REMARK    1  A    between atoms: C_3  and  C_6
REMARK    2  A    between atoms: C_6  and  C_8
REMARK    3  A    between atoms: C_6  and  N_27
REMARK    4  A    between atoms: C_8  and  N_9
REMARK    5  A    between atoms: C_10  and  C_12
REMARK    6  A    between atoms: C_15  and  S_17
REMARK    7  A    between atoms: S_17  and  C_20
REMARK                            x       y       z     vdW  Elec       q    Type
REMARK                         _______ _______ _______ _____ _____    ______ ____
ROOT
ATOM      1  N   UNL     1       5.745   2.231   1.339  0.00  0.00    -0.310 N 
ATOM      2  C   UNL     1       6.460   2.277   2.480  0.00  0.00    +0.279 C 
ATOM      3  O   UNL     1       5.910   2.096   3.551  0.00  0.00    -0.267 OA
ATOM      4  H   UNL     1       6.183   2.376   0.486  0.00  0.00    +0.149 HD
ENDROOT
BRANCH   2   5
ATOM      5  C   UNL     1       7.901   2.544   2.432  0.00  0.00    +0.192 A 
ATOM      6  C   UNL     1       8.741   2.612   3.507  0.00  0.00    +0.056 A 
ATOM      7  C   UNL     1      10.021   2.885   3.002  0.00  0.00    +0.070 A 
ATOM      8  C   UNL     1       9.909   2.972   1.658  0.00  0.00    +0.246 A 
ATOM      9  O   UNL     1       8.630   2.761   1.318  0.00  0.00    -0.433 OA
BRANCH   8  10
ATOM     10  S   UNL     1      11.227   3.303   0.537  0.00  0.00    +0.058 S 
ATOM     11  O   UNL     1      10.637   3.849  -0.634  0.00  0.00    -0.161 OA
ATOM     12  O   UNL     1      12.227   3.988   1.277  0.00  0.00    -0.161 OA
BRANCH  10  13
ATOM     13  C   UNL     1      11.919   1.750   0.074  0.00  0.00    +0.097 A 
ATOM     14  C   UNL     1      12.951   1.204   0.815  0.00  0.00    +0.028 A 
ATOM     15  C   UNL     1      13.494  -0.014   0.452  0.00  0.00    +0.017 A 
ATOM     16  C   UNL     1      13.004  -0.688  -0.652  0.00  0.00    +0.018 A 
ATOM     17  C   UNL     1      11.972  -0.142  -1.393  0.00  0.00    +0.017 A 
ATOM     18  C   UNL     1      11.426   1.074  -1.027  0.00  0.00    +0.028 A 
ATOM     19 BR   UNL     1      13.747  -2.354  -1.149  0.00  0.00    -0.050 Br
ENDBRANCH  10  13
ENDBRANCH   8  10
ENDBRANCH   2   5
BRANCH   1  20
ATOM     20  C   UNL     1       4.305   1.964   1.387  0.00  0.00    +0.094 C 
BRANCH  20  21
ATOM     21  C   UNL     1       3.715   2.095  -0.019  0.00  0.00    -0.013 C 
BRANCH  21  22
ATOM     22  N   UNL     1       2.299   1.704   0.006  0.00  0.00    +0.386 N 
ATOM     23  C   UNL     1       1.715   1.808  -1.356  0.00  0.00    -0.078 C 
ATOM     24  C   UNL     1       0.483   0.870  -1.285  0.00  0.00    -0.020 C 
ATOM     25  C   UNL     1       0.987  -0.297  -0.405  0.00  0.00    -0.020 C 
ATOM     26  C   UNL     1       2.168   0.283   0.394  0.00  0.00    -0.078 C 
ATOM     27  H   UNL     1       1.788   2.289   0.650  0.00  0.00    -0.081 HD
ENDBRANCH  21  22
BRANCH  21  30
ATOM     28  C   UNL     1       4.664   5.427  -1.603  0.00  0.00    +0.008 A 
ATOM     29  C   UNL     1       4.751   4.078  -1.314  0.00  0.00    +0.009 A 
ATOM     30  C   UNL     1       3.834   3.524  -0.483  0.00  0.00    -0.022 A 
ATOM     31  S   UNL     1       2.804   4.926  -0.082  0.00  0.00    -0.103 S 
ATOM     32  C   UNL     1       3.665   6.155  -1.048  0.00  0.00    +0.045 A 
ENDBRANCH  21  30
ENDBRANCH  20  21
ENDBRANCH   1  20
TORSDOF 7
