REMARK  Name = ZINC63234371
REMARK  7 active torsions:
REMARK  status: ('A' for Active; 'I' for Inactive)
REMARK    1  A    between atoms: C_4  and  N_7
REMARK    2  A    between atoms: N_9  and  C_26
REMARK    3  A    between atoms: C_12  and  C_15
REMARK    4  A    between atoms: C_15  and  C_16
REMARK    5  A    between atoms: N_18  and  C_19
REMARK    6  A    between atoms: C_26  and  C_27
REMARK    7  A    between atoms: C_27  and  C_28
REMARK                            x       y       z     vdW  Elec       q    Type
REMARK                         _______ _______ _______ _____ _____    ______ ____
ROOT
ATOM      1  N   UNL     1       3.631  -0.670  -0.053  0.00  0.00    -0.226 NA
ATOM      2  C   UNL     1       3.814  -1.692   0.749  0.00  0.00    +0.164 C 
ATOM      3  N   UNL     1       4.939  -2.480   0.881  0.00  0.00    -0.249 N 
ATOM      4  C   UNL     1       5.002  -3.490   1.732  0.00  0.00    +0.235 C 
ATOM      5  O   UNL     1       5.994  -4.178   1.843  0.00  0.00    -0.274 OA
ATOM      6  C   UNL     1       3.752  -3.734   2.563  0.00  0.00    +0.149 C 
ATOM      7  S   UNL     1       2.669  -2.386   1.932  0.00  0.00    -0.077 S 
ENDROOT
BRANCH   1  11
ATOM      8  C   UNL     1       0.026   1.363  -0.023  0.00  0.00    +0.000 A 
ATOM      9  C   UNL     1       1.216   2.071  -0.033  0.00  0.00    +0.002 A 
ATOM     10  C   UNL     1       2.421   1.399  -0.043  0.00  0.00    +0.028 A 
ATOM     11  C   UNL     1       2.438   0.003  -0.043  0.00  0.00    +0.067 A 
ATOM     12  C   UNL     1       1.234  -0.704  -0.033  0.00  0.00    +0.028 A 
ATOM     13  C   UNL     1       0.036  -0.020  -0.023  0.00  0.00    +0.002 A 
ENDBRANCH   1  11
BRANCH   6  14
ATOM     14  C   UNL     1       4.036  -3.559   4.056  0.00  0.00    +0.120 C 
BRANCH  14  15
ATOM     15  C   UNL     1       2.808  -3.928   4.847  0.00  0.00    +0.219 C 
ATOM     16  O   UNL     1       1.805  -4.296   4.274  0.00  0.00    -0.275 OA
ATOM     17  N   UNL     1       2.825  -3.850   6.193  0.00  0.00    -0.283 N 
ATOM     18  H   UNL     1       3.645  -3.619   6.655  0.00  0.00    +0.155 HD
BRANCH  17  19
ATOM     19  C   UNL     1       1.657  -4.104   6.923  0.00  0.00    +0.069 A 
ATOM     20  C   UNL     1       0.753  -5.060   6.481  0.00  0.00    +0.026 A 
ATOM     21  C   UNL     1      -0.397  -5.308   7.204  0.00  0.00    +0.002 A 
ATOM     22  C   UNL     1      -0.651  -4.605   8.368  0.00  0.00    +0.003 A 
ATOM     23  C   UNL     1       0.246  -3.651   8.812  0.00  0.00    +0.040 A 
ATOM     24  C   UNL     1       1.403  -3.402   8.097  0.00  0.00    +0.144 A 
ATOM     25  F   UNL     1       2.282  -2.474   8.534  0.00  0.00    -0.204 F 
ENDBRANCH  17  19
ENDBRANCH  14  15
ENDBRANCH   6  14
BRANCH   3  26
ATOM     26  C   UNL     1       6.107  -2.186   0.047  0.00  0.00    +0.120 C 
BRANCH  26  27
ATOM     27  C   UNL     1       7.017  -1.195   0.775  0.00  0.00    +0.052 C 
BRANCH  27  28
ATOM     28  C   UNL     1       8.219  -0.893  -0.083  0.00  0.00    -0.040 C 
ATOM     29  C   UNL     1       8.373   0.150  -0.929  0.00  0.00    -0.001 A 
ATOM     30  C   UNL     1       7.500   1.274  -1.291  0.00  0.00    +0.010 A 
ATOM     31  C   UNL     1       7.940   2.183  -2.191  0.00  0.00    +0.001 A 
ATOM     32  C   UNL     1       9.205   2.079  -2.785  0.00  0.00    +0.002 A 
ATOM     33  C   UNL     1      10.063   1.075  -2.503  0.00  0.00    +0.026 A 
ATOM     34  C   UNL     1       9.704   0.064  -1.570  0.00  0.00    +0.043 A 
ATOM     35  N   UNL     1      10.349  -0.993  -1.137  0.00  0.00    -0.380 N 
ATOM     36  C   UNL     1       9.500  -1.693  -0.167  0.00  0.00    +0.144 C 
ATOM     37  H   UNL     1      11.239  -1.264  -1.410  0.00  0.00    +0.160 HD
ENDBRANCH  27  28
ENDBRANCH  26  27
ENDBRANCH   3  26
TORSDOF 7
