REMARK  Name = ZINC36717973
REMARK  7 active torsions:
REMARK  status: ('A' for Active; 'I' for Inactive)
REMARK    1  A    between atoms: C_8  and  C_10
REMARK    2  A    between atoms: C_14  and  N_15
REMARK    3  A    between atoms: C_16  and  C_18
REMARK    4  A    between atoms: C_18  and  C_19
REMARK    5  A    between atoms: C_19  and  C_20
REMARK    6  A    between atoms: C_20  and  S_21
REMARK    7  A    between atoms: S_21  and  C_22
REMARK                            x       y       z     vdW  Elec       q    Type
REMARK                         _______ _______ _______ _____ _____    ______ ____
ROOT
ATOM      1  C   UNL     1       2.991  -4.012  -0.050  0.00  0.00    +0.039 A 
ATOM      2  C   UNL     1       4.383  -4.423  -0.060  0.00  0.00    -0.026 A 
ATOM      3  C   UNL     1       4.613  -5.756  -0.071  0.00  0.00    -0.005 A 
ATOM      4  S   UNL     1       3.001  -6.493  -0.067  0.00  0.00    -0.077 S 
ATOM      5  C   UNL     1       2.022  -5.002  -0.045  0.00  0.00    +0.082 A 
ATOM      6  C   UNL     1       5.941  -6.448  -0.085  0.00  0.00    +0.043 C 
ATOM      7  C   UNL     1       7.018  -5.420  -0.460  0.00  0.00    +0.005 C 
ATOM      8  C   UNL     1       6.813  -4.161   0.387  0.00  0.00    +0.005 C 
ATOM      9  C   UNL     1       5.545  -3.433  -0.060  0.00  0.00    +0.037 C 
ENDROOT
BRANCH   1  17
ATOM     10  C   UNL     1      -0.017   1.366   0.010  0.00  0.00    +0.002 A 
ATOM     11  C   UNL     1       1.156   2.107   0.002  0.00  0.00    +0.001 A 
ATOM     12  C   UNL     1       2.373   1.450  -0.013  0.00  0.00    +0.017 A 
ATOM     13  C   UNL     1       2.402   0.078  -0.021  0.00  0.00    +0.040 A 
ATOM     14  C   UNL     1       1.228  -0.710  -0.013  0.00  0.00    +0.079 A 
ATOM     15  C   UNL     1       0.002  -0.004   0.002  0.00  0.00    +0.029 A 
ATOM     16  N   UNL     1       1.419  -2.045  -0.023  0.00  0.00    -0.239 NA
ATOM     17  C   UNL     1       2.620  -2.587  -0.038  0.00  0.00    +0.112 A 
ATOM     18  S   UNL     1       3.685  -1.151  -0.040  0.00  0.00    -0.067 S 
ENDBRANCH   1  17
BRANCH   5  19
ATOM     19  N   UNL     1       0.638  -4.867  -0.030  0.00  0.00    -0.279 N 
ATOM     20  C   UNL     1      -0.146  -5.964  -0.028  0.00  0.00    +0.218 C 
ATOM     21  O   UNL     1       0.356  -7.068  -0.039  0.00  0.00    -0.275 OA
ATOM     22  H   UNL     1       0.237  -3.984  -0.021  0.00  0.00    +0.155 HD
BRANCH  20  23
ATOM     23  C   UNL     1      -1.645  -5.818  -0.011  0.00  0.00    +0.097 C 
BRANCH  23  24
ATOM     24  C   UNL     1      -2.293  -7.204  -0.012  0.00  0.00    +0.020 C 
BRANCH  24  25
ATOM     25  C   UNL     1      -3.815  -7.056   0.005  0.00  0.00    +0.075 C 
BRANCH  25  26
ATOM     26  S   UNL     1      -4.583  -8.700   0.004  0.00  0.00    -0.125 S 
BRANCH  26  27
ATOM     27  C   UNL     1      -6.312  -8.363   0.024  0.00  0.00    +0.008 A 
ATOM     28  C   UNL     1      -6.766  -7.049   0.030  0.00  0.00    +0.016 A 
ATOM     29  C   UNL     1      -8.121  -6.788   0.045  0.00  0.00    +0.021 A 
ATOM     30  C   UNL     1      -9.028  -7.834   0.055  0.00  0.00    +0.041 A 
ATOM     31  C   UNL     1      -8.580  -9.143   0.049  0.00  0.00    +0.021 A 
ATOM     32  C   UNL     1      -7.226  -9.410   0.028  0.00  0.00    +0.016 A 
ATOM     33 CL   UNL     1     -10.732  -7.502   0.075  0.00  0.00    -0.084 Cl
ENDBRANCH  26  27
ENDBRANCH  25  26
ENDBRANCH  24  25
ENDBRANCH  23  24
ENDBRANCH  20  23
ENDBRANCH   5  19
TORSDOF 7
