REMARK  Name = ZINC20207873
REMARK  11 active torsions:
REMARK  status: ('A' for Active; 'I' for Inactive)
REMARK    1  A    between atoms: C_1  and  C_2
REMARK    2  A    between atoms: C_5  and  O_9
REMARK    3  A    between atoms: C_6  and  C_8
REMARK    4  A    between atoms: O_9  and  C_10
REMARK    5  A    between atoms: C_10  and  C_11
REMARK    6  A    between atoms: C_11  and  C_12
REMARK    7  A    between atoms: C_12  and  O_13
REMARK    8  A    between atoms: O_13  and  C_14
REMARK    9  A    between atoms: C_17  and  C_20
REMARK   10  A    between atoms: C_30  and  S_32
REMARK   11  A    between atoms: S_32  and  C_35
REMARK                            x       y       z     vdW  Elec       q    Type
REMARK                         _______ _______ _______ _____ _____    ______ ____
ROOT
ATOM      1  C   UNL     1       0.058  -9.400  -3.400  0.00  0.00    +0.121 A 
ATOM      2  C   UNL     1      -0.200  -8.791  -4.623  0.00  0.00    +0.046 A 
ATOM      3  C   UNL     1      -0.129  -9.516  -5.779  0.00  0.00    +0.011 A 
ATOM      4  C   UNL     1       0.206 -10.877  -5.729  0.00  0.00    -0.024 A 
ATOM      5  C   UNL     1       0.465 -11.485  -4.493  0.00  0.00    +0.011 A 
ATOM      6  C   UNL     1       0.396 -10.748  -3.345  0.00  0.00    +0.046 A 
ENDROOT
BRANCH   4   7
ATOM      7  C   UNL     1       0.284 -11.661  -6.965  0.00  0.00    +0.024 C 
ATOM      8  C   UNL     1       0.703 -11.064  -8.133  0.00  0.00    +0.081 C 
ATOM      9  C   UNL     1       1.259  -9.681  -8.153  0.00  0.00    +0.153 C 
ATOM     10  N   UNL     1       1.957  -9.174  -7.172  0.00  0.00    -0.283 NA
ATOM     11  N   UNL     1       0.957  -8.974  -9.336  0.00  0.00    -0.150 N 
ATOM     12  C   UNL     1       0.668  -9.713 -10.463  0.00  0.00    +0.182 C 
ATOM     13  N   UNL     1       0.544 -11.013 -10.556  0.00  0.00    -0.152 NA
ATOM     14  C   UNL     1       0.631 -11.766  -9.439  0.00  0.00    +0.273 C 
ATOM     15  O   UNL     1       0.645 -12.985  -9.498  0.00  0.00    -0.268 OA
ATOM     16  S   UNL     1       0.496  -8.453 -11.700  0.00  0.00    -0.015 S 
ATOM     17  C   UNL     1       0.717  -7.040 -10.626  0.00  0.00    +0.235 C 
ATOM     18  N   UNL     1       0.936  -7.602  -9.472  0.00  0.00    -0.145 NA
ATOM     19  H   UNL     1       2.296  -8.268  -7.236  0.00  0.00    +0.188 HD
BRANCH  17  20
ATOM     20  S   UNL     1       0.653  -5.326 -11.027  0.00  0.00    +0.019 S 
ATOM     21  O   UNL     1      -0.276  -5.238 -12.099  0.00  0.00    -0.168 OA
ATOM     22  O   UNL     1       0.397  -4.673  -9.791  0.00  0.00    -0.168 OA
ATOM     23  C   UNL     1       2.322  -4.922 -11.613  0.00  0.00    +0.202 C 
ENDBRANCH  17  20
ENDBRANCH   4   7
BRANCH   1  24
ATOM     24  O   UNL     1      -0.016  -8.675  -2.255  0.00  0.00    -0.492 OA
BRANCH  24  25
ATOM     25  C   UNL     1      -0.368  -7.296  -2.383  0.00  0.00    +0.232 C 
BRANCH  25  26
ATOM     26  C   UNL     1      -0.400  -6.647  -0.997  0.00  0.00    +0.082 C 
BRANCH  26  27
ATOM     27  C   UNL     1      -0.777  -5.171  -1.134  0.00  0.00    +0.232 C 
BRANCH  27  28
ATOM     28  O   UNL     1      -0.807  -4.565   0.160  0.00  0.00    -0.492 OA
BRANCH  28  33
ATOM     29  C   UNL     1      -2.138   0.902   0.395  0.00  0.00    +0.044 C 
ATOM     30  C   UNL     1      -1.782  -0.560   0.332  0.00  0.00    -0.050 A 
ATOM     31  C   UNL     1      -1.734  -1.208  -0.889  0.00  0.00    +0.007 A 
ATOM     32  C   UNL     1      -1.408  -2.548  -0.949  0.00  0.00    +0.046 A 
ATOM     33  C   UNL     1      -1.128  -3.246   0.217  0.00  0.00    +0.123 A 
ATOM     34  C   UNL     1      -1.176  -2.594   1.440  0.00  0.00    -0.009 A 
ATOM     35  C   UNL     1      -1.497  -1.252   1.495  0.00  0.00    +0.010 A 
ATOM     36  C   UNL     1      -0.872  -3.349   2.709  0.00  0.00    +0.047 C 
ENDBRANCH  28  33
ENDBRANCH  27  28
ENDBRANCH  26  27
ENDBRANCH  25  26
ENDBRANCH  24  25
ENDBRANCH   1  24
TORSDOF 8
