REMARK  Name = ZINC02221631
REMARK  8 active torsions:
REMARK  status: ('A' for Active; 'I' for Inactive)
REMARK    1  A    between atoms: C_1  and  C_2
REMARK    2  A    between atoms: C_2  and  C_3
REMARK    3  A    between atoms: C_3  and  C_4
REMARK    4  A    between atoms: C_12  and  N_27
REMARK    5  A    between atoms: C_14  and  S_16
REMARK    6  A    between atoms: S_16  and  C_17
REMARK    7  A    between atoms: C_17  and  C_18
REMARK    8  A    between atoms: C_18  and  C_20
REMARK                            x       y       z     vdW  Elec       q    Type
REMARK                         _______ _______ _______ _____ _____    ______ ____
ROOT
ATOM      1  C   UNL     1       9.848   8.432  -1.624  0.00  0.00    +0.123 C 
ATOM      2  C   UNL     1       8.880   7.566  -0.811  0.00  0.00    +0.068 C 
ATOM      3  C   UNL     1       7.552   8.311  -0.707  0.00  0.00    -0.020 A 
ATOM      4  C   UNL     1       7.509   9.636  -0.963  0.00  0.00    +0.021 A 
ATOM      5  S   UNL     1       5.815  10.095  -0.736  0.00  0.00    -0.071 S 
ATOM      6  C   UNL     1       5.163   8.505  -0.295  0.00  0.00    +0.115 A 
ATOM      7  C   UNL     1       6.294   7.663  -0.341  0.00  0.00    +0.051 A 
ATOM      8  C   UNL     1       6.053   6.297  -0.022  0.00  0.00    +0.129 A 
ATOM      9  N   UNL     1       4.828   5.912   0.293  0.00  0.00    -0.207 NA
ATOM     10  C   UNL     1       3.805   6.759   0.312  0.00  0.00    +0.191 A 
ATOM     11  N   UNL     1       3.970   8.043   0.024  0.00  0.00    -0.214 NA
ATOM     12  C   UNL     1       8.668  10.501  -1.353  0.00  0.00    +0.203 C 
ATOM     13  O   UNL     1       9.874   9.763  -1.101  0.00  0.00    -0.371 OA
ENDROOT
BRANCH   8  14
ATOM     14  N   UNL     1       7.090   5.383  -0.037  0.00  0.00    -0.343 N 
ATOM     15  H   UNL     1       8.007   5.690  -0.117  0.00  0.00    +0.144 HD
ATOM     16  H   UNL     1       6.902   4.434   0.032  0.00  0.00    +0.144 HD
ENDBRANCH   8  14
BRANCH   1  17
ATOM     17  C   UNL     1      11.252   7.829  -1.546  0.00  0.00    +0.031 C 
BRANCH  17  19
ATOM     18  C   UNL     1      13.597   8.004  -2.388  0.00  0.00    +0.004 C 
ATOM     19  C   UNL     1      12.193   8.608  -2.466  0.00  0.00    -0.001 C 
ENDBRANCH  17  19
ENDBRANCH   1  17
BRANCH  10  20
ATOM     20  S   UNL     1       2.200   6.167   0.736  0.00  0.00    -0.078 S 
BRANCH  20  21
ATOM     21  C   UNL     1       2.574   4.418   1.015  0.00  0.00    +0.157 C 
BRANCH  21  22
ATOM     22  C   UNL     1       1.312   3.690   1.400  0.00  0.00    +0.173 C 
ATOM     23  O   UNL     1       0.264   4.294   1.479  0.00  0.00    -0.291 OA
BRANCH  22  24
ATOM     24  C   UNL     1       1.352   2.247   1.681  0.00  0.00    +0.018 A 
ATOM     25  C   UNL     1       0.183   1.568   2.040  0.00  0.00    +0.013 A 
ATOM     26  C   UNL     1       0.228   0.215   2.301  0.00  0.00    +0.020 A 
ATOM     27  C   UNL     1       1.428  -0.472   2.210  0.00  0.00    +0.041 A 
ATOM     28  C   UNL     1       2.590   0.194   1.856  0.00  0.00    +0.020 A 
ATOM     29  C   UNL     1       2.560   1.547   1.592  0.00  0.00    +0.013 A 
ATOM     30 CL   UNL     1       1.475  -2.175   2.542  0.00  0.00    -0.084 Cl
ENDBRANCH  22  24
ENDBRANCH  21  22
ENDBRANCH  20  21
ENDBRANCH  10  20
TORSDOF 7
