REMARK  Name = ZINC57063935
REMARK  4 active torsions:
REMARK  status: ('A' for Active; 'I' for Inactive)
REMARK    1  A    between atoms: C_8  and  C_13
REMARK    2  A    between atoms: N_15  and  C_16
REMARK    3  A    between atoms: C_16  and  C_17
REMARK    4  A    between atoms: N_21  and  C_23
REMARK                            x       y       z     vdW  Elec       q    Type
REMARK                         _______ _______ _______ _____ _____    ______ ____
ROOT
ATOM      1  C   UNL     1       2.585  -4.212  -0.047  0.00  0.00    +0.260 C 
ATOM      2  O   UNL     1       1.560  -4.867  -0.040  0.00  0.00    -0.269 OA
ATOM      3  N   UNL     1       3.781  -4.832  -0.062  0.00  0.00    -0.310 N 
ATOM      4  H   UNL     1       4.598  -4.310  -0.068  0.00  0.00    +0.149 HD
ENDROOT
BRANCH   1  12
ATOM      5  C   UNL     1      -0.017   1.374   0.010  0.00  0.00    +0.001 A 
ATOM      6  C   UNL     1       1.167   2.099   0.002  0.00  0.00    +0.001 A 
ATOM      7  C   UNL     1       2.387   1.456  -0.013  0.00  0.00    +0.014 A 
ATOM      8  C   UNL     1       2.431   0.064  -0.021  0.00  0.00    +0.046 A 
ATOM      9  C   UNL     1       1.226  -0.676  -0.013  0.00  0.00    -0.011 A 
ATOM     10  C   UNL     1       0.002  -0.004   0.002  0.00  0.00    +0.009 A 
ATOM     11  C   UNL     1       1.303  -2.137  -0.022  0.00  0.00    +0.039 A 
ATOM     12  C   UNL     1       2.518  -2.739  -0.038  0.00  0.00    +0.105 A 
ATOM     13  N   UNL     1       3.692  -2.018  -0.046  0.00  0.00    -0.318 N 
ATOM     14  H   UNL     1       4.536  -2.495  -0.057  0.00  0.00    +0.169 HD
ATOM     15  C   UNL     1       3.704  -0.670  -0.038  0.00  0.00    +0.257 A 
ATOM     16  O   UNL     1       4.761  -0.066  -0.046  0.00  0.00    -0.267 OA
ENDBRANCH   1  12
BRANCH   3  17
ATOM     17  C   UNL     1       3.847  -6.296  -0.071  0.00  0.00    +0.109 C 
BRANCH  17  18
ATOM     18  C   UNL     1       5.311  -6.740  -0.088  0.00  0.00    +0.025 C 
ATOM     19  C   UNL     1       5.976  -6.411  -1.451  0.00  0.00    +0.025 C 
ATOM     20  C   UNL     1       7.099  -7.465  -1.552  0.00  0.00    +0.105 C 
ATOM     21  N   UNL     1       6.728  -8.583  -0.672  0.00  0.00    -0.330 N 
ATOM     22  C   UNL     1       5.423  -8.285  -0.052  0.00  0.00    +0.110 C 
BRANCH  21  23
ATOM     23  C   UNL     1       7.487  -9.738  -0.458  0.00  0.00    +0.030 A 
ATOM     24  C   UNL     1       7.020 -10.727   0.398  0.00  0.00    +0.026 A 
ATOM     25  C   UNL     1       7.771 -11.868   0.607  0.00  0.00    +0.040 A 
ATOM     26  C   UNL     1       8.988 -12.024  -0.035  0.00  0.00    +0.124 A 
ATOM     27  C   UNL     1       9.455 -11.039  -0.888  0.00  0.00    +0.040 A 
ATOM     28  C   UNL     1       8.705  -9.899  -1.105  0.00  0.00    +0.026 A 
ATOM     29  F   UNL     1       9.720 -13.140   0.172  0.00  0.00    -0.205 F 
ENDBRANCH  21  23
ENDBRANCH  17  18
ENDBRANCH   3  17
TORSDOF 4
