REMARK  Name = ZINC27940838
REMARK  7 active torsions:
REMARK  status: ('A' for Active; 'I' for Inactive)
REMARK    1  A    between atoms: C_1  and  C_2
REMARK    2  A    between atoms: C_4  and  C_26
REMARK    3  A    between atoms: C_5  and  O_9
REMARK    4  A    between atoms: C_6  and  C_8
REMARK    5  A    between atoms: O_9  and  S_10
REMARK    6  A    between atoms: S_10  and  C_13
REMARK    7  A    between atoms: C_15  and  C_19
REMARK                            x       y       z     vdW  Elec       q    Type
REMARK                         _______ _______ _______ _____ _____    ______ ____
ROOT
ATOM      1  S   UNL     1       3.842  -0.914  -1.278  0.00  0.00    +0.152 S 
ATOM      2  O   UNL     1       4.811  -1.937  -1.096  0.00  0.00    -0.131 OA
ATOM      3  O   UNL     1       2.675  -1.102  -2.066  0.00  0.00    -0.131 OA
ENDROOT
BRANCH   1   4
ATOM      4  C   UNL     1       4.692   0.471  -1.958  0.00  0.00    +0.146 A 
ATOM      5  C   UNL     1       6.030   0.807  -1.733  0.00  0.00    +0.063 A 
ATOM      6  C   UNL     1       6.286   1.955  -2.453  0.00  0.00    +0.104 A 
ATOM      7  N   UNL     1       5.123   2.306  -3.101  0.00  0.00    -0.355 N 
ATOM      8  H   UNL     1       5.097   3.203  -3.737  0.00  0.00    +0.166 HD
ATOM      9  C   UNL     1       4.166   1.396  -2.797  0.00  0.00    +0.114 A 
BRANCH   6  10
ATOM     10  C   UNL     1       7.564   2.672  -2.516  0.00  0.00    +0.263 C 
ATOM     11  O   UNL     1       8.525   2.259  -1.893  0.00  0.00    -0.268 OA
ATOM     12  N   UNL     1       7.674   3.788  -3.264  0.00  0.00    -0.296 N 
ATOM     13  C   UNL     1       6.601   4.391  -4.067  0.00  0.00    +0.108 C 
ATOM     14  C   UNL     1       7.193   5.633  -4.765  0.00  0.00    +0.020 C 
ATOM     15  C   UNL     1       8.716   5.333  -4.771  0.00  0.00    +0.020 C 
ATOM     16  C   UNL     1       8.893   4.603  -3.416  0.00  0.00    +0.108 C 
ENDBRANCH   6  10
ENDBRANCH   1   4
BRANCH   1  17
ATOM     17  O   UNL     1       3.367  -0.513   0.112  0.00  0.00    -0.342 OA
BRANCH  17  22
ATOM     18  C   UNL     1      -1.116   2.897   0.100  0.00  0.00    +0.044 C 
ATOM     19  C   UNL     1       0.083   1.984   0.108  0.00  0.00    -0.050 A 
ATOM     20  C   UNL     1       1.354   2.516   0.220  0.00  0.00    +0.010 A 
ATOM     21  C   UNL     1       2.456   1.682   0.221  0.00  0.00    -0.005 A 
ATOM     22  C   UNL     1       2.285   0.310   0.110  0.00  0.00    +0.163 A 
ATOM     23  C   UNL     1       1.009  -0.222  -0.002  0.00  0.00    -0.005 A 
ATOM     24  C   UNL     1      -0.089   0.617  -0.003  0.00  0.00    +0.010 A 
ATOM     25  C   UNL     1       0.820  -1.712  -0.122  0.00  0.00    +0.047 C 
ATOM     26  C   UNL     1       3.841   2.263   0.344  0.00  0.00    +0.047 C 
ENDBRANCH  17  22
ENDBRANCH   1  17
TORSDOF 4
