REMARK  Name = ZINC06300843
REMARK  10 active torsions:
REMARK  status: ('A' for Active; 'I' for Inactive)
REMARK    1  A    between atoms: C_1  and  C_2
REMARK    2  A    between atoms: C_4  and  C_36
REMARK    3  A    between atoms: C_9  and  C_14
REMARK    4  A    between atoms: C_14  and  C_16
REMARK    5  A    between atoms: C_14  and  N_65
REMARK    6  A    between atoms: N_20  and  C_21
REMARK    7  A    between atoms: C_21  and  C_22
REMARK    8  A    between atoms: C_25  and  O_28
REMARK    9  A    between atoms: O_28  and  C_29
REMARK   10  A    between atoms: C_32  and  O_35
REMARK                            x       y       z     vdW  Elec       q    Type
REMARK                         _______ _______ _______ _____ _____    ______ ____
ROOT
ATOM      1  C   UNL     1      -1.224   2.027   0.509  0.00  0.00    +0.039 C 
ENDROOT
BRANCH   1  10
ATOM      2  C   UNL     1      -2.216   4.125   7.596  0.00  0.00    +0.044 C 
ATOM      3  C   UNL     1      -2.301   3.084   6.510  0.00  0.00    -0.050 A 
ATOM      4  C   UNL     1      -2.789   1.819   6.806  0.00  0.00    +0.008 A 
ATOM      5  C   UNL     1      -2.876   0.852   5.827  0.00  0.00    -0.026 A 
ATOM      6  C   UNL     1      -2.471   1.145   4.529  0.00  0.00    +0.052 A 
ATOM      7  C   UNL     1      -1.976   2.429   4.233  0.00  0.00    -0.001 A 
ATOM      8  C   UNL     1      -1.897   3.395   5.242  0.00  0.00    +0.013 A 
ATOM      9  C   UNL     1      -1.552   2.728   2.864  0.00  0.00    +0.017 A 
ATOM     10  C   UNL     1      -1.652   1.753   1.927  0.00  0.00    +0.011 A 
ATOM     11  C   UNL     1      -2.160   0.483   2.275  0.00  0.00    +0.251 A 
ATOM     12  O   UNL     1      -2.246  -0.379   1.417  0.00  0.00    -0.268 OA
ATOM     13  N   UNL     1      -2.546   0.197   3.531  0.00  0.00    -0.322 N 
ATOM     14  H   UNL     1      -2.888  -0.687   3.737  0.00  0.00    +0.169 HD
ATOM     15  C   UNL     1      -3.408  -0.517   6.162  0.00  0.00    +0.046 C 
ENDBRANCH   1  10
BRANCH   1  21
ATOM     16  C   UNL     1      -3.576   2.327   0.020  0.00  0.00    -0.075 C 
ATOM     17  C   UNL     1      -4.724   1.842  -0.868  0.00  0.00    +0.013 C 
ATOM     18  C   UNL     1      -4.421   2.198  -2.326  0.00  0.00    +0.111 C 
ATOM     19  C   UNL     1      -3.087   1.565  -2.731  0.00  0.00    +0.013 C 
ATOM     20  C   UNL     1      -1.986   2.058  -1.789  0.00  0.00    -0.075 C 
ATOM     21  N   UNL     1      -2.326   1.663  -0.406  0.00  0.00    +0.389 N 
ATOM     22  H   UNL     1      -2.463   0.645  -0.374  0.00  0.00    -0.080 HD
BRANCH  18  23
ATOM     23  O   UNL     1      -5.462   1.698  -3.167  0.00  0.00    -0.392 OA
ATOM     24  H   UNL     1      -6.337   2.057  -2.966  0.00  0.00    +0.210 HD
ENDBRANCH  18  23
ENDBRANCH   1  21
BRANCH   1  25
ATOM     25  C   UNL     1      -0.019   1.187   0.176  0.00  0.00    +0.143 A 
ATOM     26  N   UNL     1      -0.017  -0.079  -0.163  0.00  0.00    -0.115 NA
ATOM     27  N   UNL     1       1.204  -0.433  -0.373  0.00  0.00    -0.023 NA
ATOM     28  N   UNL     1       1.981   0.574  -0.177  0.00  0.00    -0.044 NA
ATOM     29  N   UNL     1       1.265   1.592   0.163  0.00  0.00    -0.226 N 
BRANCH  29  30
ATOM     30  C   UNL     1       1.756   2.936   0.475  0.00  0.00    +0.182 C 
BRANCH  30  31
ATOM     31  C   UNL     1       1.928   3.718  -0.802  0.00  0.00    -0.026 A 
ATOM     32  C   UNL     1       3.100   3.606  -1.526  0.00  0.00    +0.009 A 
ATOM     33  C   UNL     1       3.258   4.317  -2.700  0.00  0.00    +0.046 A 
ATOM     34  C   UNL     1       2.244   5.153  -3.146  0.00  0.00    +0.120 A 
ATOM     35  C   UNL     1       1.071   5.268  -2.414  0.00  0.00    +0.046 A 
ATOM     36  C   UNL     1       0.916   4.550  -1.243  0.00  0.00    +0.009 A 
BRANCH  34  37
ATOM     37  O   UNL     1       2.400   5.857  -4.298  0.00  0.00    -0.495 OA
ATOM     38  C   UNL     1       3.633   5.690  -4.999  0.00  0.00    +0.277 C 
ENDBRANCH  34  37
ENDBRANCH  30  31
ENDBRANCH  29  30
ENDBRANCH   1  25
TORSDOF 7
