REMARK  Name = ZINC08781672
REMARK  8 active torsions:
REMARK  status: ('A' for Active; 'I' for Inactive)
REMARK    1  A    between atoms: C_1  and  N_2
REMARK    2  A    between atoms: N_2  and  C_3
REMARK    3  A    between atoms: N_2  and  C_4
REMARK    4  A    between atoms: C_8  and  C_9
REMARK    5  A    between atoms: N_11  and  C_12
REMARK    6  A    between atoms: C_15  and  O_18
REMARK    7  A    between atoms: O_18  and  C_19
REMARK    8  A    between atoms: C_22  and  C_25
REMARK                            x       y       z     vdW  Elec       q    Type
REMARK                         _______ _______ _______ _____ _____    ______ ____
ROOT
ATOM      1  C   UNL     1       1.057   2.044  -0.138  0.00  0.00    +0.033 A 
ATOM      2  C   UNL     1      -0.023   1.254   0.232  0.00  0.00    +0.027 A 
ATOM      3  C   UNL     1      -0.011  -0.101  -0.035  0.00  0.00    +0.048 A 
ATOM      4  C   UNL     1       1.081  -0.673  -0.673  0.00  0.00    +0.131 A 
ATOM      5  C   UNL     1       2.160   0.116  -1.043  0.00  0.00    +0.048 A 
ATOM      6  C   UNL     1       2.149   1.471  -0.776  0.00  0.00    +0.027 A 
ENDROOT
BRANCH   1  12
ATOM      7  C   UNL     1       3.435   6.107   0.942  0.00  0.00    +0.051 A 
ATOM      8  C   UNL     1       4.582   5.322   1.065  0.00  0.00    +0.042 A 
ATOM      9  C   UNL     1       4.495   3.961   0.873  0.00  0.00    +0.086 A 
ATOM     10  C   UNL     1       2.224   4.072   0.445  0.00  0.00    +0.120 A 
ATOM     11  C   UNL     1       2.224   5.467   0.618  0.00  0.00    +0.111 A 
ATOM     12  N   UNL     1       1.045   3.418   0.132  0.00  0.00    -0.300 N 
ATOM     13  H   UNL     1       0.210   3.911   0.099  0.00  0.00    +0.154 HD
ATOM     14  N   UNL     1       3.344   3.300   0.564  0.00  0.00    -0.348 N 
ATOM     15  H   UNL     1       3.320   2.283   0.429  0.00  0.00    +0.167 HD
BRANCH   7  17
ATOM     16  C   UNL     1       3.955   7.809   2.482  0.00  0.00    +0.129 C 
ATOM     17  N   UNL     1       3.488   7.479   1.129  0.00  0.00    -0.335 N 
ATOM     18  C   UNL     1       4.332   8.117   0.110  0.00  0.00    +0.129 C 
ENDBRANCH   7  17
BRANCH  11  19
ATOM     19  C   UNL     1       1.015   6.221   0.473  0.00  0.00    +0.104 C 
ATOM     20  N   UNL     1       0.056   6.819   0.359  0.00  0.00    -0.191 NA
ENDBRANCH  11  19
ENDBRANCH   1  12
BRANCH   4  21
ATOM     21  O   UNL     1       1.093  -2.007  -0.935  0.00  0.00    -0.437 OA
BRANCH  21  22
ATOM     22  C   UNL     1       0.330  -2.461  -1.961  0.00  0.00    +0.239 A 
ATOM     23  C   UNL     1       0.369  -3.808  -2.304  0.00  0.00    +0.103 A 
ATOM     24  C   UNL     1      -0.418  -4.259  -3.350  0.00  0.00    +0.039 A 
ATOM     25  C   UNL     1      -1.212  -3.342  -4.025  0.00  0.00    +0.074 A 
ATOM     26  C   UNL     1      -1.196  -2.018  -3.633  0.00  0.00    +0.127 A 
ATOM     27  N   UNL     1      -0.439  -1.618  -2.629  0.00  0.00    -0.219 NA
ATOM     28 CL   UNL     1       1.386  -4.910  -1.429  0.00  0.00    -0.078 Cl
BRANCH  25  29
ATOM     29  C   UNL     1      -2.080  -3.786  -5.173  0.00  0.00    +0.419 C 
ATOM     30  F   UNL     1      -2.778  -2.685  -5.683  0.00  0.00    -0.166 F 
ATOM     31  F   UNL     1      -1.279  -4.337  -6.179  0.00  0.00    -0.166 F 
ATOM     32  F   UNL     1      -2.992  -4.747  -4.724  0.00  0.00    -0.166 F 
ENDBRANCH  25  29
ENDBRANCH  21  22
ENDBRANCH   4  21
TORSDOF 6
