REMARK  Name = ZINC39452638
REMARK  4 active torsions:
REMARK  status: ('A' for Active; 'I' for Inactive)
REMARK    1  A    between atoms: C_1  and  O_2
REMARK    2  A    between atoms: O_2  and  N_3
REMARK    3  A    between atoms: C_20  and  C_25
REMARK    4  A    between atoms: C_30  and  O_31
REMARK                            x       y       z     vdW  Elec       q    Type
REMARK                         _______ _______ _______ _____ _____    ______ ____
ROOT
ATOM      1  N   UNL     1       0.703  -0.395   0.597  0.00  0.00    -0.139 N 
ATOM      2  C   UNL     1       2.057  -0.703   0.675  0.00  0.00    +0.149 A 
ATOM      3  C   UNL     1       2.590  -1.280   1.811  0.00  0.00    +0.085 A 
ATOM      4  C   UNL     1       1.718  -1.583   2.959  0.00  0.00    +0.100 A 
ATOM      5  C   UNL     1       0.339  -1.259   2.851  0.00  0.00    +0.070 A 
ATOM      6  C   UNL     1      -0.148  -0.638   1.609  0.00  0.00    +0.293 A 
ATOM      7  O   UNL     1      -1.325  -0.348   1.496  0.00  0.00    -0.264 OA
ATOM      8  C   UNL     1      -0.526  -1.520   3.904  0.00  0.00    +0.026 A 
ATOM      9  C   UNL     1       0.010  -2.108   5.060  0.00  0.00    +0.014 A 
ATOM     10  C   UNL     1       1.441  -2.418   5.099  0.00  0.00    +0.073 A 
ATOM     11  N   UNL     1       2.213  -2.139   4.050  0.00  0.00    -0.245 NA
ATOM     12  C   UNL     1       1.969  -3.009   6.262  0.00  0.00    +0.028 A 
ATOM     13  C   UNL     1       1.146  -3.275   7.313  0.00  0.00    +0.003 A 
ATOM     14  C   UNL     1      -0.214  -2.980   7.273  0.00  0.00    +0.015 A 
ATOM     15  C   UNL     1      -0.787  -2.408   6.178  0.00  0.00    +0.023 A 
ATOM     16  I   UNL     1      -2.837  -1.979   6.160  0.00  0.00    -0.043 I 
ATOM     17  N   UNL     1       3.940  -1.565   1.871  0.00  0.00    -0.333 N 
ATOM     18  C   UNL     1       4.859  -0.764   1.048  0.00  0.00    +0.112 C 
ATOM     19  C   UNL     1       4.354  -0.791  -0.399  0.00  0.00    +0.108 C 
ATOM     20  C   UNL     1       2.896  -0.416  -0.426  0.00  0.00    +0.187 C 
ATOM     21  O   UNL     1       2.436   0.138  -1.404  0.00  0.00    -0.290 OA
ATOM     22  H   UNL     1       4.274  -2.275   2.442  0.00  0.00    +0.147 HD
ENDROOT
BRANCH  18  23
ATOM     23  C   UNL     1       4.886   0.656   1.551  0.00  0.00    +0.014 A 
ATOM     24  C   UNL     1       3.877   1.117   2.376  0.00  0.00    +0.009 A 
ATOM     25  C   UNL     1       3.901   2.419   2.837  0.00  0.00    +0.001 A 
ATOM     26  C   UNL     1       4.934   3.265   2.476  0.00  0.00    +0.004 A 
ATOM     27  C   UNL     1       5.945   2.809   1.652  0.00  0.00    +0.046 A 
ATOM     28  C   UNL     1       5.926   1.500   1.192  0.00  0.00    +0.122 A 
BRANCH  28  29
ATOM     29  O   UNL     1       6.923   1.048   0.386  0.00  0.00    -0.506 OA
ATOM     30  H   UNL     1       6.755   1.177  -0.557  0.00  0.00    +0.292 HD
ENDBRANCH  28  29
ENDBRANCH  18  23
BRANCH   1  32
ATOM     31  C   UNL     1       0.248   1.629  -0.581  0.00  0.00    +0.311 C 
ATOM     32  O   UNL     1       0.205   0.201  -0.587  0.00  0.00    -0.411 OA
ENDBRANCH   1  32
TORSDOF 3
