REMARK  Name = ZINC08640205
REMARK  5 active torsions:
REMARK  status: ('A' for Active; 'I' for Inactive)
REMARK    1  A    between atoms: C_6  and  C_29
REMARK    2  A    between atoms: C_7  and  N_9
REMARK    3  A    between atoms: C_10  and  C_12
REMARK    4  A    between atoms: C_12  and  S_13
REMARK    5  A    between atoms: S_13  and  C_14
REMARK                            x       y       z     vdW  Elec       q    Type
REMARK                         _______ _______ _______ _____ _____    ______ ____
ROOT
ATOM      1  C   UNL     1       3.478   5.752   0.000  0.00  0.00    +0.173 C 
ENDROOT
BRANCH   1   3
ATOM      2  N   UNL     1       3.348   8.222   0.016  0.00  0.00    -0.278 N 
ATOM      3  C   UNL     1       4.118   7.116   0.002  0.00  0.00    +0.228 C 
ATOM      4  O   UNL     1       5.327   7.219  -0.009  0.00  0.00    -0.275 OA
ATOM      5  H   UNL     1       2.381   8.139   0.025  0.00  0.00    +0.155 HD
BRANCH   2  12
ATOM      6  C   UNL     1       4.772  14.259   0.493  0.00  0.00    +0.005 C 
ATOM      7  C   UNL     1       6.022  14.017  -0.358  0.00  0.00    +0.005 C 
ATOM      8  C   UNL     1       6.611  12.646   0.007  0.00  0.00    +0.043 C 
ATOM      9  C   UNL     1       5.500  11.642   0.014  0.00  0.00    -0.004 A 
ATOM     10  C   UNL     1       4.173  11.895   0.029  0.00  0.00    -0.018 A 
ATOM     11  C   UNL     1       3.320  10.720   0.025  0.00  0.00    +0.084 A 
ATOM     12  C   UNL     1       3.937   9.478   0.017  0.00  0.00    +0.090 A 
ATOM     13  S   UNL     1       5.624   9.876   0.003  0.00  0.00    -0.077 S 
ATOM     14  C   UNL     1       3.647  13.325   0.042  0.00  0.00    +0.037 C 
BRANCH  11  15
ATOM     15  C   UNL     1       1.892  10.839   0.033  0.00  0.00    +0.102 C 
ATOM     16  N   UNL     1       0.760  10.933   0.039  0.00  0.00    -0.191 NA
ENDBRANCH  11  15
ENDBRANCH   2  12
ENDBRANCH   1   3
BRANCH   1  17
ATOM     17  S   UNL     1       4.766   4.481  -0.020  0.00  0.00    -0.078 S 
BRANCH  17  18
ATOM     18  C   UNL     1       3.766   3.030  -0.018  0.00  0.00    +0.170 A 
ATOM     19  N   UNL     1       4.378   1.814  -0.031  0.00  0.00    -0.301 N 
ATOM     20  H   UNL     1       5.348   1.784  -0.041  0.00  0.00    +0.171 HD
ATOM     21  C   UNL     1       3.696   0.645  -0.030  0.00  0.00    +0.261 A 
ATOM     22  O   UNL     1       4.262  -0.435  -0.041  0.00  0.00    -0.267 OA
ATOM     23  C   UNL     1       2.267   0.755  -0.015  0.00  0.00    +0.075 A 
ATOM     24  C   UNL     1       1.312  -0.341  -0.012  0.00  0.00    -0.023 A 
ATOM     25  C   UNL     1       0.002  -0.004   0.002  0.00  0.00    -0.004 A 
ATOM     26  S   UNL     1      -0.022   1.771   0.012  0.00  0.00    -0.073 S 
ATOM     27  C   UNL     1       1.719   2.058  -0.003  0.00  0.00    +0.117 A 
ATOM     28  N   UNL     1       2.447   3.168  -0.004  0.00  0.00    -0.216 NA
ATOM     29  C   UNL     1      -1.173  -0.932   0.007  0.00  0.00    +0.043 C 
ATOM     30  C   UNL     1      -0.687  -2.336  -0.379  0.00  0.00    +0.005 C 
ATOM     31  C   UNL     1       0.560  -2.666   0.446  0.00  0.00    +0.005 C 
ATOM     32  C   UNL     1       1.735  -1.808  -0.023  0.00  0.00    +0.037 C 
ENDBRANCH  17  18
ENDBRANCH   1  17
TORSDOF 5
