REMARK  Name = ZINC23449537
REMARK  7 active torsions:
REMARK  status: ('A' for Active; 'I' for Inactive)
REMARK    1  A    between atoms: C_1  and  C_2
REMARK    2  A    between atoms: C_2  and  C_4
REMARK    3  A    between atoms: C_2  and  S_17
REMARK    4  A    between atoms: N_6  and  C_7
REMARK    5  A    between atoms: S_17  and  C_18
REMARK    6  A    between atoms: C_21  and  C_24
REMARK    7  A    between atoms: N_22  and  N_23
REMARK                            x       y       z     vdW  Elec       q    Type
REMARK                         _______ _______ _______ _____ _____    ______ ____
ROOT
ATOM      1  S   UNL     1      -1.752  -0.451  -0.059  0.00  0.00    -0.072 S 
ENDROOT
BRANCH   1   2
ATOM      2  C   UNL     1      -2.356  -0.039   1.544  0.00  0.00    +0.209 A 
ATOM      3  N   UNL     1      -1.666   0.509   2.520  0.00  0.00    -0.121 NA
ATOM      4  N   UNL     1      -2.414   0.673   3.551  0.00  0.00    -0.127 NA
ATOM      5  C   UNL     1      -3.628   0.241   3.298  0.00  0.00    +0.183 A 
ATOM      6  N   UNL     1      -3.629  -0.223   2.003  0.00  0.00    -0.224 N 
BRANCH   5   7
ATOM      7  C   UNL     1      -4.777   0.255   4.227  0.00  0.00    +0.039 A 
ATOM      8  C   UNL     1      -5.566  -0.886   4.385  0.00  0.00    +0.014 A 
ATOM      9  C   UNL     1      -6.637  -0.867   5.253  0.00  0.00    +0.021 A 
ATOM     10  C   UNL     1      -6.931   0.282   5.969  0.00  0.00    +0.042 A 
ATOM     11  C   UNL     1      -6.154   1.417   5.819  0.00  0.00    +0.040 A 
ATOM     12  C   UNL     1      -5.075   1.409   4.956  0.00  0.00    +0.053 A 
ATOM     13 CL   UNL     1      -4.097   2.831   4.773  0.00  0.00    -0.083 Cl
ATOM     14 CL   UNL     1      -8.282   0.298   7.060  0.00  0.00    -0.083 Cl
ENDBRANCH   5   7
BRANCH   6  15
ATOM     15  N   UNL     1      -4.683  -0.759   1.319  0.00  0.00    -0.295 N 
ATOM     16  H   UNL     1      -4.777  -1.745   1.515  0.00  0.00    +0.163 HD
ATOM     17  H   UNL     1      -5.538  -0.266   1.528  0.00  0.00    +0.163 HD
ENDBRANCH   6  15
ENDBRANCH   1   2
BRANCH   1  19
ATOM     18  C   UNL     1       0.086   1.563   0.147  0.00  0.00    +0.029 C 
ATOM     19  C   UNL     1      -0.008   0.045  -0.012  0.00  0.00    +0.137 C 
BRANCH  19  20
ATOM     20  C   UNL     1       0.666  -0.369  -1.295  0.00  0.00    +0.227 C 
ATOM     21  O   UNL     1       0.011  -0.513  -2.305  0.00  0.00    -0.275 OA
ATOM     22  N   UNL     1       1.998  -0.578  -1.319  0.00  0.00    -0.309 N 
ATOM     23  H   UNL     1       2.522  -0.463  -0.511  0.00  0.00    +0.149 HD
BRANCH  22  24
ATOM     24  C   UNL     1       2.653  -0.980  -2.567  0.00  0.00    +0.035 C 
ATOM     25  C   UNL     1       2.429   0.096  -3.631  0.00  0.00    +0.029 C 
ATOM     26  C   UNL     1       3.114  -0.324  -4.933  0.00  0.00    -0.008 C 
ATOM     27  C   UNL     1       4.614  -0.494  -4.688  0.00  0.00    +0.007 C 
ATOM     28  C   UNL     1       4.838  -1.571  -3.624  0.00  0.00    -0.008 C 
ATOM     29  C   UNL     1       4.154  -1.151  -2.322  0.00  0.00    +0.029 C 
ATOM     30  C   UNL     1       4.246  -2.896  -4.107  0.00  0.00    +0.007 C 
ATOM     31  C   UNL     1       2.746  -2.726  -4.352  0.00  0.00    -0.008 C 
ATOM     32  C   UNL     1       2.522  -1.649  -5.416  0.00  0.00    +0.007 C 
ATOM     33  C   UNL     1       2.061  -2.306  -3.050  0.00  0.00    +0.029 C 
ENDBRANCH  22  24
ENDBRANCH  19  20
ENDBRANCH   1  19
TORSDOF 6
