REMARK  Name = ZINC54963137
REMARK  8 active torsions:
REMARK  status: ('A' for Active; 'I' for Inactive)
REMARK    1  A    between atoms: C_1  and  C_2
REMARK    2  A    between atoms: C_2  and  C_3
REMARK    3  A    between atoms: C_3  and  N_4
REMARK    4  A    between atoms: N_4  and  C_5
REMARK    5  A    between atoms: C_5  and  C_7
REMARK    6  A    between atoms: C_5  and  C_8
REMARK    7  A    between atoms: C_11  and  C_15
REMARK    8  A    between atoms: C_13  and  C_14
REMARK                            x       y       z     vdW  Elec       q    Type
REMARK                         _______ _______ _______ _____ _____    ______ ____
ROOT
ATOM      1  C   UNL     1       1.555  -3.941  -2.422  0.00  0.00    -0.022 A 
ATOM      2  C   UNL     1       0.664  -4.704  -1.681  0.00  0.00    +0.117 A 
ATOM      3  N   UNL     1       0.805  -6.018  -1.658  0.00  0.00    -0.235 NA
ATOM      4  C   UNL     1       1.784  -6.607  -2.332  0.00  0.00    +0.161 A 
ATOM      5  N   UNL     1       2.651  -5.906  -3.050  0.00  0.00    -0.232 NA
ATOM      6  C   UNL     1       2.563  -4.589  -3.120  0.00  0.00    +0.044 A 
ATOM      7  C   UNL     1       3.549  -3.801  -3.943  0.00  0.00    +0.066 C 
ENDROOT
BRANCH   4   8
ATOM      8  C   UNL     1       1.911  -8.083  -2.282  0.00  0.00    +0.033 A 
ATOM      9  C   UNL     1       2.935  -8.721  -2.979  0.00  0.00    +0.013 A 
ATOM     10  C   UNL     1       3.049 -10.095  -2.929  0.00  0.00    +0.001 A 
ATOM     11  C   UNL     1       2.148 -10.841  -2.188  0.00  0.00    +0.001 A 
ATOM     12  C   UNL     1       1.129 -10.214  -1.495  0.00  0.00    +0.016 A 
ATOM     13  C   UNL     1       1.009  -8.838  -1.533  0.00  0.00    +0.029 A 
ATOM     14 BR   UNL     1      -0.381  -7.982  -0.578  0.00  0.00    -0.050 Br
ENDBRANCH   4   8
BRANCH   1  15
ATOM     15  C   UNL     1       1.426  -2.440  -2.474  0.00  0.00    -0.041 C 
ATOM     16  C   UNL     1       0.618  -2.039  -3.710  0.00  0.00    -0.009 C 
BRANCH  15  17
ATOM     17  N   UNL     1       0.738  -1.966  -1.265  0.00  0.00    +0.383 N 
ATOM     18  H   UNL     1       1.226  -2.301  -0.447  0.00  0.00    -0.085 HD
ATOM     19  H   UNL     1      -0.208  -2.316  -1.258  0.00  0.00    -0.085 HD
BRANCH  17  20
ATOM     20  C   UNL     1       0.718  -0.497  -1.257  0.00  0.00    -0.082 C 
BRANCH  20  22
ATOM     21  C   UNL     1      -0.019   1.526   0.010  0.00  0.00    +0.002 C 
ATOM     22  C   UNL     1       0.002  -0.004   0.002  0.00  0.00    -0.022 C 
ENDBRANCH  20  22
ENDBRANCH  17  20
ENDBRANCH  15  17
ENDBRANCH   1  15
TORSDOF 5
