REMARK  Name = ZINC35557488
REMARK  9 active torsions:
REMARK  status: ('A' for Active; 'I' for Inactive)
REMARK    1  A    between atoms: C_1  and  C_2
REMARK    2  A    between atoms: C_2  and  N_3
REMARK    3  A    between atoms: N_3  and  C_4
REMARK    4  A    between atoms: C_4  and  C_6
REMARK    5  A    between atoms: C_4  and  C_12
REMARK    6  A    between atoms: C_14  and  O_21
REMARK    7  A    between atoms: C_15  and  O_19
REMARK    8  A    between atoms: O_19  and  C_20
REMARK    9  A    between atoms: O_21  and  C_22
REMARK                            x       y       z     vdW  Elec       q    Type
REMARK                         _______ _______ _______ _____ _____    ______ ____
ROOT
ATOM      1  C   UNL     1       0.710  -1.947  -1.215  0.00  0.00    -0.002 C 
ENDROOT
BRANCH   1   2
ATOM      2  C   UNL     1       1.520  -2.432  -2.389  0.00  0.00    -0.035 A 
ATOM      3  C   UNL     1       1.756  -1.589  -3.460  0.00  0.00    +0.053 A 
ATOM      4  C   UNL     1       2.501  -2.033  -4.540  0.00  0.00    +0.162 A 
ATOM      5  C   UNL     1       3.011  -3.328  -4.545  0.00  0.00    +0.163 A 
ATOM      6  C   UNL     1       2.772  -4.168  -3.470  0.00  0.00    +0.069 A 
ATOM      7  C   UNL     1       2.031  -3.717  -2.391  0.00  0.00    +0.047 A 
ATOM      8 CL   UNL     1       1.738  -4.768  -1.041  0.00  0.00    -0.083 Cl
BRANCH   5   9
ATOM      9  O   UNL     1       3.742  -3.768  -5.604  0.00  0.00    -0.491 OA
ATOM     10  C   UNL     1       4.234  -5.108  -5.540  0.00  0.00    +0.277 C 
ENDBRANCH   5   9
BRANCH   4  11
ATOM     11  O   UNL     1       2.733  -1.205  -5.594  0.00  0.00    -0.491 OA
ATOM     12  C   UNL     1       2.178   0.110  -5.521  0.00  0.00    +0.277 C 
ENDBRANCH   4  11
ENDBRANCH   1   2
BRANCH   1  13
ATOM     13  C   UNL     1      -0.700  -2.467  -1.328  0.00  0.00    -0.019 A 
ATOM     14  C   UNL     1      -1.274  -3.520  -0.696  0.00  0.00    +0.011 A 
ATOM     15  C   UNL     1      -2.599  -3.818  -0.957  0.00  0.00    +0.023 A 
ATOM     16  C   UNL     1      -3.284  -3.047  -1.838  0.00  0.00    +0.055 A 
ATOM     17  S   UNL     1      -2.049  -1.853  -2.323  0.00  0.00    -0.088 S 
ATOM     18 BR   UNL     1      -5.084  -3.195  -2.400  0.00  0.00    -0.043 Br
ENDBRANCH   1  13
BRANCH   1  19
ATOM     19  N   UNL     1       0.690  -0.478  -1.207  0.00  0.00    +0.386 N 
ATOM     20  H   UNL     1       0.202  -0.144  -2.024  0.00  0.00    -0.085 HD
ATOM     21  H   UNL     1       1.636  -0.129  -1.214  0.00  0.00    -0.085 HD
BRANCH  19  23
ATOM     22  C   UNL     1      -0.019   1.526   0.010  0.00  0.00    -0.017 C 
ATOM     23  C   UNL     1       0.002  -0.004   0.002  0.00  0.00    -0.085 C 
ENDBRANCH  19  23
ENDBRANCH   1  19
TORSDOF 6
