REMARK  Name = ZINC13768247
REMARK  13 active torsions:
REMARK  status: ('A' for Active; 'I' for Inactive)
REMARK    1  A    between atoms: C_1  and  C_2
REMARK    2  A    between atoms: C_7  and  N_8
REMARK    3  A    between atoms: C_13  and  C_27
REMARK    4  A    between atoms: N_15  and  C_21
REMARK    5  A    between atoms: C_29  and  C_38
REMARK    6  A    between atoms: C_30  and  O_37
REMARK    7  A    between atoms: C_31  and  C_33
REMARK    8  A    between atoms: C_33  and  C_34
REMARK    9  A    between atoms: C_33  and  C_35
REMARK   10  A    between atoms: C_33  and  C_36
REMARK   11  A    between atoms: C_38  and  C_39
REMARK   12  A    between atoms: C_38  and  C_40
REMARK   13  A    between atoms: C_38  and  C_41
REMARK                            x       y       z     vdW  Elec       q    Type
REMARK                         _______ _______ _______ _____ _____    ______ ____
ROOT
ATOM      1  N   UNL     1       0.025  -0.013   2.419  0.00  0.00    -0.208 N 
ATOM      2  C   UNL     1      -1.116   0.342   3.093  0.00  0.00    +0.235 C 
ATOM      3  O   UNL     1      -2.245  -0.049   2.892  0.00  0.00    -0.274 OA
ATOM      4  C   UNL     1      -0.677   1.283   4.095  0.00  0.00    +0.145 C 
ATOM      5  C   UNL     1      -1.111   1.838   5.387  0.00  0.00    +0.157 C 
ATOM      6  N   UNL     1       0.183   2.292   5.991  0.00  0.00    -0.244 N 
ATOM      7  O   UNL     1       1.244   1.910   5.085  0.00  0.00    -0.257 OA
ATOM      8  C   UNL     1       0.746   0.707   4.474  0.00  0.00    +0.249 C 
ATOM      9  C   UNL     1       1.163   0.376   3.066  0.00  0.00    +0.259 C 
ATOM     10  O   UNL     1       2.280   0.443   2.602  0.00  0.00    -0.272 OA
ENDROOT
BRANCH   1  17
ATOM     11  C   UNL     1      -0.018   1.503   0.010  0.00  0.00    +0.045 C 
ATOM     12  C   UNL     1       0.002  -0.004   0.002  0.00  0.00    -0.029 A 
ATOM     13  C   UNL     1       0.006  -0.689  -1.198  0.00  0.00    +0.005 A 
ATOM     14  C   UNL     1       0.025  -2.071  -1.206  0.00  0.00    +0.000 A 
ATOM     15  C   UNL     1       0.041  -2.773  -0.014  0.00  0.00    +0.002 A 
ATOM     16  C   UNL     1       0.037  -2.094   1.188  0.00  0.00    +0.024 A 
ATOM     17  C   UNL     1       0.023  -0.705   1.200  0.00  0.00    +0.047 A 
ENDBRANCH   1  17
BRANCH   6  18
ATOM     18  C   UNL     1       0.337   2.961   7.207  0.00  0.00    +0.065 A 
ATOM     19  C   UNL     1      -0.776   3.261   7.982  0.00  0.00    +0.028 A 
ATOM     20  C   UNL     1      -0.620   3.923   9.184  0.00  0.00    +0.002 A 
ATOM     21  C   UNL     1       0.642   4.287   9.616  0.00  0.00    +0.000 A 
ATOM     22  C   UNL     1       1.752   3.990   8.847  0.00  0.00    +0.002 A 
ATOM     23  C   UNL     1       1.604   3.324   7.646  0.00  0.00    +0.028 A 
ENDBRANCH   6  18
BRANCH   5  24
ATOM     24  C   UNL     1      -2.048   3.001   5.183  0.00  0.00    -0.021 A 
ATOM     25  C   UNL     1      -1.542   4.248   4.869  0.00  0.00    +0.013 A 
ATOM     26  C   UNL     1      -2.400   5.316   4.682  0.00  0.00    +0.000 A 
ATOM     27  C   UNL     1      -3.769   5.134   4.809  0.00  0.00    +0.124 A 
ATOM     28  C   UNL     1      -4.274   3.881   5.124  0.00  0.00    +0.000 A 
ATOM     29  C   UNL     1      -3.413   2.816   5.305  0.00  0.00    +0.013 A 
BRANCH  28  30
ATOM     30  C   UNL     1      -5.761   3.680   5.263  0.00  0.00    -0.009 C 
ATOM     31  C   UNL     1      -6.049   2.218   5.611  0.00  0.00    +0.015 C 
ATOM     32  C   UNL     1      -6.296   4.584   6.376  0.00  0.00    +0.015 C 
ATOM     33  C   UNL     1      -6.449   4.035   3.943  0.00  0.00    +0.015 C 
ENDBRANCH  28  30
BRANCH  26  34
ATOM     34  C   UNL     1      -1.848   6.676   4.341  0.00  0.00    -0.009 C 
ATOM     35  C   UNL     1      -0.322   6.601   4.262  0.00  0.00    +0.015 C 
ATOM     36  C   UNL     1      -2.407   7.129   2.991  0.00  0.00    +0.015 C 
ATOM     37  C   UNL     1      -2.254   7.677   5.424  0.00  0.00    +0.015 C 
ENDBRANCH  26  34
BRANCH  27  38
ATOM     38  O   UNL     1      -4.615   6.182   4.627  0.00  0.00    -0.506 OA
ATOM     39  H   UNL     1      -4.913   6.292   3.713  0.00  0.00    +0.292 HD
ENDBRANCH  27  38
ENDBRANCH   5  24
TORSDOF 6
