REMARK  Name = ZINC22705139
REMARK  12 active torsions:
REMARK  status: ('A' for Active; 'I' for Inactive)
REMARK    1  A    between atoms: C_1  and  C_2
REMARK    2  A    between atoms: C_2  and  C_3
REMARK    3  A    between atoms: C_3  and  C_5
REMARK    4  A    between atoms: C_3  and  C_6
REMARK    5  A    between atoms: C_9  and  O_33
REMARK    6  A    between atoms: C_10  and  N_12
REMARK    7  A    between atoms: N_12  and  C_13
REMARK    8  A    between atoms: C_13  and  N_15
REMARK    9  A    between atoms: C_16  and  C_18
REMARK   10  A    between atoms: C_19  and  C_20
REMARK   11  A    between atoms: C_23  and  C_25
REMARK   12  A    between atoms: C_28  and  C_32
REMARK                            x       y       z     vdW  Elec       q    Type
REMARK                         _______ _______ _______ _____ _____    ______ ____
ROOT
ATOM      1  N   UNL     1      -1.969  -4.448  -5.511  0.00  0.00    -0.264 N 
ATOM      2  C   UNL     1      -2.576  -3.697  -6.452  0.00  0.00    +0.242 C 
ATOM      3  O   UNL     1      -2.508  -2.482  -6.398  0.00  0.00    -0.270 OA
ATOM      4  H   UNL     1      -2.023  -5.415  -5.553  0.00  0.00    +0.157 HD
ENDROOT
BRANCH   1   5
ATOM      5  C   UNL     1      -1.287  -3.854  -4.511  0.00  0.00    +0.141 C 
ATOM      6  S   UNL     1      -1.191  -2.146  -4.437  0.00  0.00    -0.018 S 
BRANCH   5   7
ATOM      7  N   UNL     1      -0.680  -4.604  -3.571  0.00  0.00    -0.294 N 
ATOM      8  H   UNL     1      -0.681  -5.572  -3.647  0.00  0.00    +0.154 HD
BRANCH   7  13
ATOM      9  C   UNL     1       1.433  -2.313  -1.617  0.00  0.00    -0.043 A 
ATOM     10  C   UNL     1       1.202  -2.769  -0.332  0.00  0.00    +0.007 A 
ATOM     11  C   UNL     1       0.346  -3.833  -0.116  0.00  0.00    +0.047 A 
ATOM     12  C   UNL     1      -0.281  -4.447  -1.188  0.00  0.00    +0.138 A 
ATOM     13  C   UNL     1      -0.048  -3.988  -2.483  0.00  0.00    +0.075 A 
ATOM     14  C   UNL     1       0.807  -2.916  -2.691  0.00  0.00    +0.031 A 
BRANCH   9  15
ATOM     15  C   UNL     1       2.366  -1.151  -1.846  0.00  0.00    +0.016 C 
ATOM     16  C   UNL     1       3.761  -1.508  -1.327  0.00  0.00    +0.012 C 
BRANCH  15  18
ATOM     17  C   UNL     1       2.719   1.287  -1.431  0.00  0.00    +0.004 C 
ATOM     18  C   UNL     1       1.843   0.077  -1.099  0.00  0.00    +0.004 C 
ENDBRANCH  15  18
ENDBRANCH   9  15
BRANCH  12  19
ATOM     19  O   UNL     1      -1.122  -5.495  -0.977  0.00  0.00    -0.505 OA
ATOM     20  H   UNL     1      -2.044  -5.237  -0.840  0.00  0.00    +0.292 HD
ENDBRANCH  12  19
ENDBRANCH   7  13
ENDBRANCH   5   7
ENDBRANCH   1   5
BRANCH   2  21
ATOM     21  C   UNL     1      -3.291  -4.319  -7.499  0.00  0.00    +0.071 C 
ATOM     22  C   UNL     1      -3.902  -3.563  -8.448  0.00  0.00    +0.051 C 
BRANCH  22  23
ATOM     23  C   UNL     1      -4.618  -4.185  -9.495  0.00  0.00    +0.129 A 
ATOM     24  C   UNL     1      -5.278  -3.537 -10.523  0.00  0.00    +0.050 A 
ATOM     25  C   UNL     1      -5.843  -4.529 -11.329  0.00  0.00    +0.050 A 
ATOM     26  C   UNL     1      -5.510  -5.741 -10.768  0.00  0.00    +0.136 A 
ATOM     27  O   UNL     1      -4.769  -5.515  -9.669  0.00  0.00    -0.455 OA
BRANCH  26  28
ATOM     28  C   UNL     1      -5.898  -7.067 -11.289  0.00  0.00    +0.019 A 
ATOM     29  C   UNL     1      -6.666  -7.167 -12.451  0.00  0.00    +0.012 A 
ATOM     30  C   UNL     1      -7.025  -8.409 -12.932  0.00  0.00    +0.005 A 
ATOM     31  C   UNL     1      -6.626  -9.554 -12.267  0.00  0.00    -0.032 A 
ATOM     32  C   UNL     1      -5.865  -9.463 -11.113  0.00  0.00    +0.045 A 
ATOM     33  C   UNL     1      -5.494  -8.227 -10.624  0.00  0.00    +0.031 A 
ATOM     34 CL   UNL     1      -5.371 -10.907 -10.285  0.00  0.00    -0.083 Cl
ATOM     35  C   UNL     1      -7.023 -10.907 -12.798  0.00  0.00    +0.045 C 
ENDBRANCH  26  28
ENDBRANCH  22  23
ENDBRANCH   2  21
TORSDOF 9
