REMARK  Name = ZINC04259230
REMARK  5 active torsions:
REMARK  status: ('A' for Active; 'I' for Inactive)
REMARK    1  A    between atoms: C_1  and  N_60
REMARK    2  A    between atoms: C_4  and  N_7
REMARK    3  A    between atoms: N_7  and  C_8
REMARK    4  A    between atoms: C_24  and  C_26
REMARK    5  A    between atoms: C_26  and  C_27
REMARK                            x       y       z     vdW  Elec       q    Type
REMARK                         _______ _______ _______ _____ _____    ______ ____
ROOT
ATOM      1  C   UNL     1       3.852   0.192   2.977  0.00  0.00    +0.093 A 
ATOM      2  C   UNL     1       4.132   1.458   2.542  0.00  0.00    +0.030 A 
ATOM      3  C   UNL     1       3.287   2.050   1.596  0.00  0.00    +0.024 A 
ATOM      4  C   UNL     1       2.200   1.385   1.126  0.00  0.00    +0.027 A 
ATOM      5  N   UNL     1       1.869   0.167   1.622  0.00  0.00    -0.310 N 
ATOM      6  C   UNL     1       2.708  -0.464   2.480  0.00  0.00    +0.272 A 
ATOM      7  O   UNL     1       2.471  -1.611   2.825  0.00  0.00    -0.266 OA
ATOM      8  C   UNL     1       0.620  -0.519   1.289  0.00  0.00    +0.130 C 
ATOM      9  C   UNL     1       0.002  -0.004   0.002  0.00  0.00    +0.027 C 
ATOM     10  C   UNL     1      -0.019   1.525   0.010  0.00  0.00    +0.018 C 
ATOM     11  C   UNL     1       1.427   2.029  -0.001  0.00  0.00    +0.054 C 
ATOM     12  C   UNL     1       2.080   1.594  -1.324  0.00  0.00    +0.117 C 
ATOM     13  N   UNL     1       2.026   0.125  -1.378  0.00  0.00    -0.300 N 
ATOM     14  C   UNL     1       0.724  -0.535  -1.229  0.00  0.00    +0.113 C 
ATOM     15  C   UNL     1       3.148  -0.599  -1.560  0.00  0.00    +0.220 C 
ATOM     16  O   UNL     1       3.088  -1.810  -1.603  0.00  0.00    -0.275 OA
ENDROOT
BRANCH   1  17
ATOM     17  N   UNL     1       4.689  -0.444   3.902  0.00  0.00    -0.337 N 
ATOM     18  H   UNL     1       4.484  -1.342   4.205  0.00  0.00    +0.146 HD
BRANCH  17  22
ATOM     19  C   UNL     1       9.888   0.658   5.832  0.00  0.00    -0.096 C 
ATOM     20  C   UNL     1       7.527   0.359   6.281  0.00  0.00    -0.077 C 
ATOM     21  C   UNL     1       6.253  -0.325   5.781  0.00  0.00    +0.003 C 
ATOM     22  C   UNL     1       5.876   0.248   4.412  0.00  0.00    +0.067 C 
ATOM     23  C   UNL     1       7.043   0.045   3.442  0.00  0.00    +0.003 C 
ATOM     24  C   UNL     1       8.295   0.717   4.010  0.00  0.00    -0.077 C 
ATOM     25  N   UNL     1       8.619   0.105   5.316  0.00  0.00    +0.378 N 
ATOM     26  H   UNL     1       8.723  -0.909   5.192  0.00  0.00    -0.082 HD
ENDBRANCH  17  22
ENDBRANCH   1  17
BRANCH  15  27
ATOM     27  C   UNL     1       4.477   0.095  -1.711  0.00  0.00    +0.138 C 
BRANCH  27  28
ATOM     28  C   UNL     1       5.562  -0.933  -1.901  0.00  0.00    -0.001 A 
ATOM     29  C   UNL     1       6.032  -1.476  -3.050  0.00  0.00    +0.011 A 
ATOM     30  C   UNL     1       7.049  -2.410  -2.984  0.00  0.00    +0.008 A 
ATOM     31  C   UNL     1       7.538  -2.764  -1.770  0.00  0.00    +0.045 A 
ATOM     32  S   UNL     1       6.558  -1.757  -0.669  0.00  0.00    -0.101 S 
ENDBRANCH  27  28
ENDBRANCH  15  27
TORSDOF 4
