REMARK  Name = ZINC46773429
REMARK  6 active torsions:
REMARK  status: ('A' for Active; 'I' for Inactive)
REMARK    1  A    between atoms: C_4  and  N_7
REMARK    2  A    between atoms: C_9  and  C_14
REMARK    3  A    between atoms: N_16  and  N_17
REMARK    4  A    between atoms: N_17  and  C_18
REMARK    5  A    between atoms: C_18  and  N_20
REMARK    6  A    between atoms: N_20  and  C_21
REMARK                            x       y       z     vdW  Elec       q    Type
REMARK                         _______ _______ _______ _____ _____    ______ ____
ROOT
ATOM      1  C   UNL     1       5.179  -2.720  -1.956  0.00  0.00    +0.234 C 
ATOM      2  O   UNL     1       4.134  -2.854  -2.557  0.00  0.00    -0.274 OA
ATOM      3  N   UNL     1       6.347  -3.015  -2.559  0.00  0.00    -0.235 N 
ATOM      4  H   UNL     1       7.182  -2.908  -2.078  0.00  0.00    +0.173 HD
ENDROOT
BRANCH   1   7
ATOM      5  N   UNL     1       3.483  -0.531  -0.333  0.00  0.00    -0.271 N 
ATOM      6  C   UNL     1       3.728  -1.950  -0.051  0.00  0.00    +0.127 C 
ATOM      7  C   UNL     1       5.170  -2.223  -0.533  0.00  0.00    +0.103 C 
ATOM      8  C   UNL     1       5.807  -0.818  -0.433  0.00  0.00    +0.110 C 
ATOM      9  C   UNL     1       4.634   0.129  -0.551  0.00  0.00    +0.221 C 
ATOM     10  O   UNL     1       4.718   1.312  -0.804  0.00  0.00    -0.275 OA
BRANCH   5  14
ATOM     11  C   UNL     1      -0.294   1.223  -0.458  0.00  0.00    +0.000 A 
ATOM     12  C   UNL     1       0.837   2.010  -0.578  0.00  0.00    +0.002 A 
ATOM     13  C   UNL     1       2.090   1.432  -0.537  0.00  0.00    +0.023 A 
ATOM     14  C   UNL     1       2.215   0.058  -0.374  0.00  0.00    +0.036 A 
ATOM     15  C   UNL     1       1.077  -0.730  -0.254  0.00  0.00    +0.023 A 
ATOM     16  C   UNL     1      -0.173  -0.145  -0.296  0.00  0.00    +0.002 A 
ENDBRANCH   5  14
ENDBRANCH   1   7
BRANCH   3  17
ATOM     17  N   UNL     1       6.355  -3.477  -3.882  0.00  0.00    -0.246 N 
ATOM     18  H   UNL     1       5.519  -3.584  -4.363  0.00  0.00    +0.172 HD
BRANCH  17  19
ATOM     19  C   UNL     1       7.523  -3.773  -4.486  0.00  0.00    +0.151 C 
ATOM     20  S   UNL     1       7.532  -4.337  -6.102  0.00  0.00    -0.017 S 
BRANCH  19  21
ATOM     21  N   UNL     1       8.684  -3.624  -3.817  0.00  0.00    -0.295 N 
ATOM     22  H   UNL     1       8.675  -3.374  -2.880  0.00  0.00    +0.154 HD
BRANCH  21  23
ATOM     23  C   UNL     1       9.902  -3.829  -4.476  0.00  0.00    +0.051 A 
ATOM     24  C   UNL     1      10.101  -3.310  -5.748  0.00  0.00    +0.026 A 
ATOM     25  C   UNL     1      11.304  -3.513  -6.395  0.00  0.00    +0.022 A 
ATOM     26  C   UNL     1      12.311  -4.234  -5.777  0.00  0.00    +0.042 A 
ATOM     27  C   UNL     1      12.116  -4.753  -4.510  0.00  0.00    +0.041 A 
ATOM     28  C   UNL     1      10.916  -4.548  -3.855  0.00  0.00    +0.063 A 
ATOM     29 CL   UNL     1      10.674  -5.193  -2.261  0.00  0.00    -0.082 Cl
ATOM     30 CL   UNL     1      13.822  -4.487  -6.594  0.00  0.00    -0.083 Cl
ENDBRANCH  21  23
ENDBRANCH  19  21
ENDBRANCH  17  19
ENDBRANCH   3  17
TORSDOF 6
