REMARK  Name = ZINC15902387
REMARK  5 active torsions:
REMARK  status: ('A' for Active; 'I' for Inactive)
REMARK    1  A    between atoms: C_1  and  C_2
REMARK    2  A    between atoms: C_5  and  C_7
REMARK    3  A    between atoms: N_9  and  N_10
REMARK    4  A    between atoms: C_11  and  C_13
REMARK    5  A    between atoms: C_13  and  C_14
REMARK                            x       y       z     vdW  Elec       q    Type
REMARK                         _______ _______ _______ _____ _____    ______ ____
ROOT
ATOM      1  N   UNL     1       2.524   0.399   4.273  0.00  0.00    -0.234 N 
ATOM      2  C   UNL     1       3.154  -0.168   5.321  0.00  0.00    +0.230 C 
ATOM      3  O   UNL     1       3.225  -1.376   5.405  0.00  0.00    -0.274 OA
ATOM      4  H   UNL     1       2.468   1.365   4.205  0.00  0.00    +0.173 HD
ENDROOT
BRANCH   1   7
ATOM      5  C   UNL     1       1.320   0.160   2.233  0.00  0.00    +0.232 C 
ATOM      6  O   UNL     1       1.250   1.367   2.148  0.00  0.00    -0.274 OA
ATOM      7  N   UNL     1       1.950  -0.407   3.281  0.00  0.00    -0.234 N 
ATOM      8  H   UNL     1       2.007  -1.373   3.348  0.00  0.00    +0.173 HD
BRANCH   5  12
ATOM      9  C   UNL     1      -0.019   1.526   0.010  0.00  0.00    +0.008 C 
ATOM     10  C   UNL     1       0.002  -0.004   0.002  0.00  0.00    -0.001 C 
ATOM     11  C   UNL     1       1.351  -0.691  -0.221  0.00  0.00    +0.017 C 
ATOM     12  C   UNL     1       0.703  -0.708   1.166  0.00  0.00    +0.080 C 
ENDBRANCH   5  12
ENDBRANCH   1   7
BRANCH   2  13
ATOM     13  C   UNL     1       3.772   0.699   6.388  0.00  0.00    +0.104 C 
BRANCH  13  14
ATOM     14  C   UNL     1       4.418  -0.187   7.454  0.00  0.00    -0.020 C 
ATOM     15  C   UNL     1       3.353  -1.089   8.082  0.00  0.00    +0.011 C 
ATOM     16  C   UNL     1       4.000  -1.975   9.149  0.00  0.00    -0.010 C 
ATOM     17  C   UNL     1       4.626  -1.095  10.232  0.00  0.00    +0.007 C 
ATOM     18  C   UNL     1       5.691  -0.193   9.604  0.00  0.00    -0.010 C 
ATOM     19  C   UNL     1       5.045   0.693   8.537  0.00  0.00    +0.011 C 
ATOM     20  C   UNL     1       6.776  -1.058   8.959  0.00  0.00    +0.007 C 
ATOM     21  C   UNL     1       6.149  -1.939   7.876  0.00  0.00    -0.010 C 
ATOM     22  C   UNL     1       5.084  -2.840   8.504  0.00  0.00    +0.007 C 
ATOM     23  C   UNL     1       5.503  -1.052   6.809  0.00  0.00    +0.011 C 
ENDBRANCH  13  14
ENDBRANCH   2  13
TORSDOF 4
