REMARK  Name = ZINC04574464
REMARK  10 active torsions:
REMARK  status: ('A' for Active; 'I' for Inactive)
REMARK    1  A    between atoms: C_1  and  C_2
REMARK    2  A    between atoms: C_7  and  N_8
REMARK    3  A    between atoms: C_9  and  C_11
REMARK    4  A    between atoms: C_13  and  C_28
REMARK    5  A    between atoms: C_15  and  C_26
REMARK    6  A    between atoms: C_16  and  S_21
REMARK    7  A    between atoms: C_18  and  C_19
REMARK    8  A    between atoms: C_18  and  O_20
REMARK    9  A    between atoms: S_21  and  C_22
REMARK   10  A    between atoms: C_22  and  C_23
REMARK                            x       y       z     vdW  Elec       q    Type
REMARK                         _______ _______ _______ _____ _____    ______ ____
ROOT
ATOM      1  C   UNL     1       0.814   3.078  -0.451  0.00  0.00    +0.138 C 
ATOM      2  C   UNL     1       0.552   3.178   1.054  0.00  0.00    +0.065 C 
ATOM      3  C   UNL     1       1.382   2.165   1.792  0.00  0.00    +0.155 C 
ATOM      4  C   UNL     1       1.909   1.073   1.180  0.00  0.00    +0.090 C 
ATOM      5  N   UNL     1       1.717   0.842  -0.162  0.00  0.00    -0.246 NA
ATOM      6  C   UNL     1       0.688   1.609  -0.876  0.00  0.00    +0.167 C 
ATOM      7  C   UNL     1       0.904   1.486  -2.386  0.00  0.00    +0.068 C 
ENDROOT
BRANCH   2   8
ATOM      8  C   UNL     1       0.912   4.561   1.530  0.00  0.00    -0.005 A 
ATOM      9  C   UNL     1       0.098   5.547   1.981  0.00  0.00    +0.011 A 
ATOM     10  C   UNL     1       0.656   6.750   2.373  0.00  0.00    +0.008 A 
ATOM     11  C   UNL     1       1.999   6.911   2.285  0.00  0.00    +0.045 A 
ATOM     12  S   UNL     1       2.519   5.330   1.639  0.00  0.00    -0.101 S 
ENDBRANCH   2   8
BRANCH   1  14
ATOM     13  N   UNL     1       2.378   4.614  -1.597  0.00  0.00    -0.285 N 
ATOM     14  C   UNL     1       2.204   3.575  -0.756  0.00  0.00    +0.226 C 
ATOM     15  O   UNL     1       3.165   3.039  -0.246  0.00  0.00    -0.275 OA
ATOM     16  H   UNL     1       1.615   5.003  -2.052  0.00  0.00    +0.155 HD
BRANCH  13  23
ATOM     17  C   UNL     1       2.616   7.359  -2.309  0.00  0.00    +0.045 C 
ATOM     18  C   UNL     1       3.821   6.467  -2.161  0.00  0.00    -0.029 A 
ATOM     19  C   UNL     1       5.088   6.977  -2.367  0.00  0.00    +0.005 A 
ATOM     20  C   UNL     1       6.194   6.157  -2.236  0.00  0.00    +0.000 A 
ATOM     21  C   UNL     1       6.037   4.827  -1.894  0.00  0.00    +0.002 A 
ATOM     22  C   UNL     1       4.773   4.312  -1.681  0.00  0.00    +0.023 A 
ATOM     23  C   UNL     1       3.660   5.133  -1.812  0.00  0.00    +0.036 A 
ENDBRANCH  13  23
ENDBRANCH   1  14
BRANCH   6  24
ATOM     24  O   UNL     1      -0.609   1.117  -0.532  0.00  0.00    -0.368 OA
ATOM     25  H   UNL     1      -0.747   0.185  -0.752  0.00  0.00    +0.212 HD
ENDBRANCH   6  24
BRANCH   3  26
ATOM     26  C   UNL     1       1.626   2.359   3.190  0.00  0.00    +0.073 C 
ATOM     27  N   UNL     1       1.820   2.513   4.299  0.00  0.00    -0.196 NA
ENDBRANCH   3  26
BRANCH   4  28
ATOM     28  S   UNL     1       2.859  -0.071   2.126  0.00  0.00    -0.100 S 
BRANCH  28  29
ATOM     29  C   UNL     1       3.282  -1.269   0.836  0.00  0.00    +0.171 C 
BRANCH  29  30
ATOM     30  C   UNL     1       4.118  -2.373   1.431  0.00  0.00    +0.221 C 
ATOM     31  O   UNL     1       4.401  -2.351   2.610  0.00  0.00    -0.275 OA
ATOM     32  N   UNL     1       4.553  -3.383   0.652  0.00  0.00    -0.329 N 
ATOM     33  H   UNL     1       4.327  -3.400  -0.291  0.00  0.00    +0.145 HD
ATOM     34  H   UNL     1       5.091  -4.093   1.035  0.00  0.00    +0.145 HD
ENDBRANCH  29  30
ENDBRANCH  28  29
ENDBRANCH   4  28
TORSDOF 8
