REMARK  Name = ZINC35452848
REMARK  8 active torsions:
REMARK  status: ('A' for Active; 'I' for Inactive)
REMARK    1  A    between atoms: C_1  and  C_2
REMARK    2  A    between atoms: C_7  and  S_8
REMARK    3  A    between atoms: S_8  and  N_11
REMARK    4  A    between atoms: N_11  and  C_12
REMARK    5  A    between atoms: N_11  and  C_13
REMARK    6  A    between atoms: C_13  and  C_14
REMARK    7  A    between atoms: N_19  and  C_22
REMARK    8  A    between atoms: C_30  and  C_35
REMARK                            x       y       z     vdW  Elec       q    Type
REMARK                         _______ _______ _______ _____ _____    ______ ____
ROOT
ATOM      1  N   UNL     1       1.616   1.132   2.607  0.00  0.00    -0.171 NA
ATOM      2  C   UNL     1       1.501   2.529   2.181  0.00  0.00    +0.132 C 
ENDROOT
BRANCH   1   3
ATOM      3  S   UNL     1       0.319   0.113   2.464  0.00  0.00    +0.061 S 
ATOM      4  O   UNL     1      -0.824   0.935   2.273  0.00  0.00    -0.153 OA
ATOM      5  O   UNL     1       0.416  -0.821   3.531  0.00  0.00    -0.153 OA
BRANCH   3  12
ATOM      6  C   UNL     1       0.234   1.333  -0.296  0.00  0.00    +0.046 C 
ATOM      7  C   UNL     1       0.481  -0.153  -0.246  0.00  0.00    -0.022 A 
ATOM      8  C   UNL     1       0.657  -0.863  -1.420  0.00  0.00    +0.032 A 
ATOM      9  C   UNL     1       0.884  -2.228  -1.372  0.00  0.00    +0.076 A 
ATOM     10  C   UNL     1       0.933  -2.883  -0.142  0.00  0.00    +0.145 A 
ATOM     11  C   UNL     1       0.757  -2.166   1.028  0.00  0.00    +0.076 A 
ATOM     12  C   UNL     1       0.537  -0.801   0.974  0.00  0.00    +0.112 A 
ATOM     13  O   UNL     1       1.154  -4.224  -0.107  0.00  0.00    -0.478 OA
ATOM     14  C   UNL     1       0.631  -4.990  -1.195  0.00  0.00    +0.256 C 
ATOM     15  C   UNL     1       0.969  -4.313  -2.499  0.00  0.00    +0.258 C 
ATOM     16  O   UNL     1       1.152  -4.975  -3.499  0.00  0.00    -0.271 OA
ATOM     17  N   UNL     1       1.066  -2.967  -2.550  0.00  0.00    -0.280 N 
ATOM     18  C   UNL     1      -0.888  -5.100  -1.057  0.00  0.00    +0.062 C 
ATOM     19  H   UNL     1       1.258  -2.518  -3.388  0.00  0.00    +0.155 HD
ENDBRANCH   3  12
ENDBRANCH   1   3
BRANCH   1  20
ATOM     20  C   UNL     1       2.879   0.637   3.160  0.00  0.00    +0.205 C 
BRANCH  20  21
ATOM     21  C   UNL     1       3.790   0.218   2.035  0.00  0.00    +0.231 C 
ATOM     22  O   UNL     1       3.421   0.322   0.885  0.00  0.00    -0.274 OA
ATOM     23  N   UNL     1       5.015  -0.274   2.307  0.00  0.00    -0.297 N 
ATOM     24  C   UNL     1       5.474  -0.412   3.697  0.00  0.00    +0.126 C 
ATOM     25  C   UNL     1       5.897  -1.868   3.930  0.00  0.00    +0.124 C 
ATOM     26  N   UNL     1       6.798  -2.275   2.843  0.00  0.00    -0.325 N 
ATOM     27  C   UNL     1       6.340  -2.137   1.454  0.00  0.00    +0.124 C 
ATOM     28  C   UNL     1       5.914  -0.686   1.220  0.00  0.00    +0.126 C 
BRANCH  26  29
ATOM     29  C   UNL     1       8.069  -2.785   3.126  0.00  0.00    +0.065 A 
ATOM     30  C   UNL     1       8.249  -4.150   3.300  0.00  0.00    +0.026 A 
ATOM     31  C   UNL     1       9.506  -4.651   3.579  0.00  0.00    +0.002 A 
ATOM     32  C   UNL     1      10.586  -3.794   3.684  0.00  0.00    +0.003 A 
ATOM     33  C   UNL     1      10.413  -2.433   3.512  0.00  0.00    +0.040 A 
ATOM     34  C   UNL     1       9.159  -1.926   3.227  0.00  0.00    +0.144 A 
ATOM     35  F   UNL     1       8.990  -0.597   3.052  0.00  0.00    -0.204 F 
ENDBRANCH  26  29
ENDBRANCH  20  21
ENDBRANCH   1  20
TORSDOF 5
