REMARK  Name = ZINC15015768
REMARK  10 active torsions:
REMARK  status: ('A' for Active; 'I' for Inactive)
REMARK    1  A    between atoms: C_1  and  C_2
REMARK    2  A    between atoms: C_2  and  C_3
REMARK    3  A    between atoms: C_3  and  C_4
REMARK    4  A    between atoms: C_4  and  S_5
REMARK    5  A    between atoms: S_5  and  C_6
REMARK    6  A    between atoms: C_19  and  C_22
REMARK    7  A    between atoms: C_25  and  O_31
REMARK    8  A    between atoms: C_26  and  O_28
REMARK    9  A    between atoms: O_28  and  C_29
REMARK   10  A    between atoms: C_29  and  C_30
REMARK                            x       y       z     vdW  Elec       q    Type
REMARK                         _______ _______ _______ _____ _____    ______ ____
ROOT
ATOM      1  C   UNL     1       9.547   3.024  -0.176  0.00  0.00    +0.212 A 
ATOM      2  N   UNL     1       8.319   2.648  -0.522  0.00  0.00    -0.184 NA
ATOM      3  C   UNL     1       7.354   2.681   0.382  0.00  0.00    +0.248 A 
ATOM      4  C   UNL     1       7.663   3.120   1.689  0.00  0.00    +0.156 A 
ATOM      5  N   UNL     1       8.907   3.477   1.969  0.00  0.00    -0.141 NA
ATOM      6  N   UNL     1       9.817   3.428   1.059  0.00  0.00    -0.122 NA
ATOM      7  C   UNL     1       6.596   3.178   2.710  0.00  0.00    +0.029 A 
ATOM      8  C   UNL     1       6.778   2.649   3.982  0.00  0.00    +0.027 A 
ATOM      9  C   UNL     1       5.760   2.735   4.913  0.00  0.00    +0.019 A 
ATOM     10  C   UNL     1       4.561   3.346   4.586  0.00  0.00    +0.017 A 
ATOM     11  C   UNL     1       4.366   3.872   3.322  0.00  0.00    +0.025 A 
ATOM     12  C   UNL     1       5.372   3.788   2.378  0.00  0.00    +0.040 A 
ATOM     13  N   UNL     1       5.196   4.277   1.079  0.00  0.00    -0.305 N 
ATOM     14  C   UNL     1       5.106   3.325  -0.024  0.00  0.00    +0.294 C 
ATOM     15  O   UNL     1       6.090   2.302   0.080  0.00  0.00    -0.449 OA
ATOM     16 BR   UNL     1       6.006   2.014   6.644  0.00  0.00    -0.050 Br
ATOM     17  H   UNL     1       5.134   5.231   0.915  0.00  0.00    +0.150 HD
ENDROOT
BRANCH  14  18
ATOM     18  C   UNL     1       3.738   2.693  -0.018  0.00  0.00    +0.015 A 
ATOM     19  C   UNL     1       2.631   3.449   0.321  0.00  0.00    +0.013 A 
ATOM     20  C   UNL     1       1.373   2.876   0.322  0.00  0.00    +0.049 A 
ATOM     21  C   UNL     1       1.221   1.538  -0.006  0.00  0.00    +0.158 A 
ATOM     22  C   UNL     1       2.335   0.778  -0.347  0.00  0.00    +0.162 A 
ATOM     23  C   UNL     1       3.593   1.360  -0.352  0.00  0.00    +0.058 A 
BRANCH  21  24
ATOM     24  O   UNL     1      -0.015   0.971   0.001  0.00  0.00    -0.503 OA
ATOM     25  H   UNL     1      -0.266   0.584   0.850  0.00  0.00    +0.292 HD
ENDBRANCH  21  24
BRANCH  22  26
ATOM     26  O   UNL     1       2.191  -0.534  -0.674  0.00  0.00    -0.489 OA
BRANCH  26  27
ATOM     27  C   UNL     1       3.378  -1.253  -1.014  0.00  0.00    +0.226 C 
ATOM     28  C   UNL     1       3.019  -2.702  -1.350  0.00  0.00    +0.048 C 
ENDBRANCH  26  27
ENDBRANCH  22  26
ENDBRANCH  14  18
BRANCH   1  29
ATOM     29  S   UNL     1      10.836   2.984  -1.376  0.00  0.00    -0.084 S 
BRANCH  29  30
ATOM     30  C   UNL     1      12.220   3.577  -0.372  0.00  0.00    +0.077 C 
BRANCH  30  31
ATOM     31  C   UNL     1      13.487   3.628  -1.228  0.00  0.00    +0.011 C 
BRANCH  31  33
ATOM     32  C   UNL     1      15.923   4.180  -1.234  0.00  0.00    +0.004 C 
ATOM     33  C   UNL     1      14.656   4.129  -0.378  0.00  0.00    -0.003 C 
ENDBRANCH  31  33
ENDBRANCH  30  31
ENDBRANCH  29  30
ENDBRANCH   1  29
TORSDOF 8
