REMARK  Name = ZINC25549803
REMARK  4 active torsions:
REMARK  status: ('A' for Active; 'I' for Inactive)
REMARK    1  A    between atoms: C_1  and  C_2
REMARK    2  A    between atoms: C_3  and  C_8
REMARK    3  A    between atoms: C_4  and  C_7
REMARK    4  A    between atoms: C_8  and  C_9
REMARK                            x       y       z     vdW  Elec       q    Type
REMARK                         _______ _______ _______ _____ _____    ______ ____
ROOT
ATOM      1  C   UNL     1       2.020   3.049   2.617  0.00  0.00    +0.220 C 
ATOM      2  O   UNL     1       1.400   3.981   2.150  0.00  0.00    -0.275 OA
ATOM      3  N   UNL     1       3.333   3.183   2.890  0.00  0.00    -0.296 N 
ATOM      4  C   UNL     1       4.103   2.068   3.461  0.00  0.00    +0.114 C 
ATOM      5  C   UNL     1       5.175   1.634   2.447  0.00  0.00    +0.072 C 
ATOM      6  C   UNL     1       5.864   2.864   1.904  0.00  0.00    +0.023 A 
ATOM      7  C   UNL     1       5.356   4.113   1.980  0.00  0.00    -0.002 A 
ATOM      8  C   UNL     1       6.301   5.001   1.339  0.00  0.00    +0.006 A 
ATOM      9  C   UNL     1       6.308   6.382   1.119  0.00  0.00    +0.025 A 
ATOM     10  C   UNL     1       7.396   6.901   0.460  0.00  0.00    +0.019 A 
ATOM     11  C   UNL     1       8.445   6.103   0.031  0.00  0.00    +0.017 A 
ATOM     12  C   UNL     1       8.464   4.735   0.236  0.00  0.00    +0.027 A 
ATOM     13  C   UNL     1       7.372   4.181   0.901  0.00  0.00    +0.047 A 
ATOM     14  N   UNL     1       7.075   2.898   1.261  0.00  0.00    -0.358 N 
ATOM     15  H   UNL     1       7.643   1.968   1.109  0.00  0.00    +0.166 HD
ATOM     16 BR   UNL     1       7.465   8.761   0.130  0.00  0.00    -0.050 Br
ATOM     17  C   UNL     1       4.036   4.452   2.629  0.00  0.00    +0.145 C 
ENDROOT
BRANCH   1  18
ATOM     18  C   UNL     1       1.322   1.742   2.892  0.00  0.00    +0.136 C 
BRANCH  18  21
ATOM     19  C   UNL     1      -0.013   1.086   0.008  0.00  0.00    +0.069 C 
ATOM     20  C   UNL     1      -0.718   1.572   1.248  0.00  0.00    +0.084 A 
ATOM     21  C   UNL     1      -0.129   1.855   2.501  0.00  0.00    +0.026 A 
ATOM     22  C   UNL     1      -1.171   2.253   3.270  0.00  0.00    +0.138 A 
ATOM     23  O   UNL     1      -2.261   2.193   2.493  0.00  0.00    -0.359 OA
ATOM     24  N   UNL     1      -1.990   1.819   1.375  0.00  0.00    -0.083 NA
ATOM     25  C   UNL     1      -1.115   2.680   4.715  0.00  0.00    +0.089 C 
ENDBRANCH  18  21
ENDBRANCH   1  18
TORSDOF 2
