REMARK  Name = ZINC43646257
REMARK  10 active torsions:
REMARK  status: ('A' for Active; 'I' for Inactive)
REMARK    1  A    between atoms: C_1  and  C_2
REMARK    2  A    between atoms: C_5  and  C_30
REMARK    3  A    between atoms: C_6  and  O_8
REMARK    4  A    between atoms: O_8  and  C_9
REMARK    5  A    between atoms: C_9  and  C_10
REMARK    6  A    between atoms: C_10  and  C_12
REMARK    7  A    between atoms: C_10  and  O_29
REMARK    8  A    between atoms: C_12  and  N_13
REMARK    9  A    between atoms: C_17  and  C_25
REMARK   10  A    between atoms: C_22  and  C_24
REMARK                            x       y       z     vdW  Elec       q    Type
REMARK                         _______ _______ _______ _____ _____    ______ ____
ROOT
ATOM      1  N   UNL     1       0.321  -3.027   7.200  0.00  0.00    -0.222 N 
ATOM      2  C   UNL     1      -0.718  -3.518   7.907  0.00  0.00    +0.247 C 
ATOM      3  O   UNL     1      -1.897  -3.306   7.722  0.00  0.00    -0.273 OA
ATOM      4  C   UNL     1      -0.101  -4.390   8.976  0.00  0.00    +0.118 C 
ATOM      5  C   UNL     1      -0.567  -5.834   8.819  0.00  0.00    +0.019 C 
ATOM      6  C   UNL     1      -2.080  -5.909   9.036  0.00  0.00    +0.006 C 
ATOM      7  C   UNL     1      -2.419  -5.396  10.437  0.00  0.00    +0.001 C 
ATOM      8  C   UNL     1      -1.965  -3.942  10.574  0.00  0.00    +0.006 C 
ATOM      9  C   UNL     1      -0.452  -3.859  10.362  0.00  0.00    +0.019 C 
ATOM     10  C   UNL     1       0.001  -2.402  10.478  0.00  0.00    +0.010 C 
ATOM     11  C   UNL     1      -0.229  -6.327   7.410  0.00  0.00    +0.010 C 
ATOM     12  N   UNL     1       1.343  -4.285   8.734  0.00  0.00    -0.284 N 
ATOM     13  C   UNL     1       1.493  -3.471   7.672  0.00  0.00    +0.309 C 
ATOM     14  O   UNL     1       2.570  -3.170   7.197  0.00  0.00    -0.252 OA
ATOM     15  H   UNL     1       2.050  -4.719   9.237  0.00  0.00    +0.151 HD
ENDROOT
BRANCH   1  16
ATOM     16  C   UNL     1       0.184  -2.124   6.054  0.00  0.00    +0.152 C 
BRANCH  16  17
ATOM     17  C   UNL     1       0.063  -2.946   4.769  0.00  0.00    +0.170 C 
BRANCH  17  18
ATOM     18  O   UNL     1      -1.148  -3.704   4.801  0.00  0.00    -0.387 OA
ATOM     19  H   UNL     1      -1.948  -3.165   4.871  0.00  0.00    +0.210 HD
ENDBRANCH  17  18
BRANCH  17  20
ATOM     20  C   UNL     1       0.045  -2.006   3.562  0.00  0.00    +0.262 C 
BRANCH  20  21
ATOM     21  O   UNL     1       0.050  -2.776   2.358  0.00  0.00    -0.489 OA
BRANCH  21  27
ATOM     22  C   UNL     1      -0.018   1.503   0.010  0.00  0.00    +0.044 C 
ATOM     23  C   UNL     1       0.002  -0.004   0.002  0.00  0.00    -0.047 A 
ATOM     24  C   UNL     1       0.006  -0.688  -1.200  0.00  0.00    +0.004 A 
ATOM     25  C   UNL     1       0.024  -2.071  -1.211  0.00  0.00    +0.007 A 
ATOM     26  C   UNL     1       0.039  -2.772  -0.020  0.00  0.00    -0.009 A 
ATOM     27  C   UNL     1       0.035  -2.088   1.186  0.00  0.00    +0.124 A 
ATOM     28  C   UNL     1       0.023  -0.700   1.195  0.00  0.00    +0.049 A 
ATOM     29  C   UNL     1       0.059  -4.279  -0.033  0.00  0.00    +0.047 C 
ENDBRANCH  21  27
ENDBRANCH  20  21
ENDBRANCH  17  20
ENDBRANCH  16  17
ENDBRANCH   1  16
TORSDOF 6
