REMARK  Name = ZINC21218747
REMARK  7 active torsions:
REMARK  status: ('A' for Active; 'I' for Inactive)
REMARK    1  A    between atoms: C_1  and  C_2
REMARK    2  A    between atoms: C_5  and  C_8
REMARK    3  A    between atoms: C_13  and  C_19
REMARK    4  A    between atoms: C_24  and  O_25
REMARK    5  A    between atoms: O_25  and  C_26
REMARK    6  A    between atoms: C_26  and  C_27
REMARK    7  A    between atoms: C_26  and  C_28
REMARK                            x       y       z     vdW  Elec       q    Type
REMARK                         _______ _______ _______ _____ _____    ______ ____
ROOT
ATOM      1  C   UNL     1      -2.441   5.402   3.639  0.00  0.00    +0.032 C 
ATOM      2  C   UNL     1      -3.113   5.991   2.397  0.00  0.00    +0.059 C 
ATOM      3  C   UNL     1      -2.270   5.702   1.180  0.00  0.00    +0.018 C 
ATOM      4  C   UNL     1      -0.928   5.598   1.276  0.00  0.00    +0.020 C 
ATOM      5  C   UNL     1      -0.103   5.315   0.043  0.00  0.00    +0.066 C 
ATOM      6  C   UNL     1      -0.744   6.002  -1.165  0.00  0.00    +0.109 C 
ATOM      7  C   UNL     1      -2.218   5.690  -1.185  0.00  0.00    +0.218 C 
ATOM      8  O   UNL     1      -2.796   5.569  -2.244  0.00  0.00    -0.275 OA
ATOM      9  N   UNL     1      -2.893   5.545  -0.032  0.00  0.00    -0.289 N 
ATOM     10  C   UNL     1      -0.270   5.747   2.509  0.00  0.00    +0.162 C 
ATOM     11  O   UNL     1       0.941   5.659   2.555  0.00  0.00    -0.292 OA
ATOM     12  C   UNL     1      -1.042   6.012   3.773  0.00  0.00    +0.088 C 
ATOM     13  H   UNL     1      -3.964   5.298  -0.072  0.00  0.00    +0.155 HD
ENDROOT
BRANCH   1  18
ATOM     14  C   UNL     1      -5.569   6.678   8.327  0.00  0.00    +0.044 C 
ATOM     15  C   UNL     1      -4.754   6.346   7.104  0.00  0.00    -0.050 A 
ATOM     16  C   UNL     1      -4.510   5.026   6.774  0.00  0.00    +0.003 A 
ATOM     17  C   UNL     1      -3.762   4.720   5.653  0.00  0.00    +0.004 A 
ATOM     18  C   UNL     1      -3.257   5.735   4.862  0.00  0.00    -0.043 A 
ATOM     19  C   UNL     1      -3.496   7.055   5.194  0.00  0.00    +0.004 A 
ATOM     20  C   UNL     1      -4.249   7.360   6.313  0.00  0.00    +0.003 A 
ENDBRANCH   1  18
BRANCH   5  21
ATOM     21  C   UNL     1      -0.049   3.828  -0.195  0.00  0.00    +0.002 A 
ATOM     22  C   UNL     1      -1.216   3.118  -0.404  0.00  0.00    +0.008 A 
ATOM     23  C   UNL     1      -1.166   1.755  -0.629  0.00  0.00    +0.001 A 
ATOM     24  C   UNL     1       0.050   1.096  -0.633  0.00  0.00    +0.004 A 
ATOM     25  C   UNL     1       1.219   1.801  -0.425  0.00  0.00    +0.046 A 
ATOM     26  C   UNL     1       1.172   3.171  -0.205  0.00  0.00    +0.125 A 
BRANCH  26  27
ATOM     27  O   UNL     1       2.321   3.867   0.000  0.00  0.00    -0.489 OA
BRANCH  27  28
ATOM     28  C   UNL     1       3.530   3.110   0.095  0.00  0.00    +0.167 C 
ATOM     29  C   UNL     1       4.078   2.846  -1.309  0.00  0.00    +0.051 C 
ATOM     30  C   UNL     1       4.562   3.897   0.906  0.00  0.00    +0.051 C 
ENDBRANCH  27  28
ENDBRANCH  26  27
ENDBRANCH   5  21
TORSDOF 4
