REMARK  Name = ZINC39399379
REMARK  6 active torsions:
REMARK  status: ('A' for Active; 'I' for Inactive)
REMARK    1  A    between atoms: C_9  and  C_12
REMARK    2  A    between atoms: C_12  and  C_13
REMARK    3  A    between atoms: C_13  and  N_14
REMARK    4  A    between atoms: N_14  and  C_15
REMARK    5  A    between atoms: C_15  and  C_16
REMARK    6  A    between atoms: C_20  and  C_22
REMARK                            x       y       z     vdW  Elec       q    Type
REMARK                         _______ _______ _______ _____ _____    ______ ____
ROOT
ATOM      1  C   UNL     1       8.397  -2.077  -1.333  0.00  0.00    -0.047 C 
ENDROOT
BRANCH   1   2
ATOM      2  C   UNL     1       9.708  -2.724  -0.966  0.00  0.00    -0.039 C 
ATOM      3  C   UNL     1      10.317  -3.748  -1.568  0.00  0.00    +0.132 C 
ATOM      4  N   UNL     1      11.481  -4.046  -0.949  0.00  0.00    -0.186 NA
ATOM      5  N   UNL     1      11.742  -3.331   0.022  0.00  0.00    -0.298 N 
ATOM      6  C   UNL     1      10.648  -2.356   0.169  0.00  0.00    +0.154 C 
ATOM      7  H   UNL     1      12.528  -3.397   0.585  0.00  0.00    +0.183 HD
BRANCH   6   8
ATOM      8  C   UNL     1      11.159  -0.948   0.004  0.00  0.00    -0.016 A 
ATOM      9  C   UNL     1      12.193  -0.689  -0.877  0.00  0.00    +0.010 A 
ATOM     10  C   UNL     1      12.665   0.601  -1.032  0.00  0.00    +0.050 A 
ATOM     11  C   UNL     1      12.102   1.638  -0.305  0.00  0.00    +0.166 A 
ATOM     12  C   UNL     1      11.061   1.376   0.582  0.00  0.00    +0.167 A 
ATOM     13  C   UNL     1      10.589   0.082   0.728  0.00  0.00    +0.055 A 
ATOM     14  O   UNL     1      10.684   2.549   1.170  0.00  0.00    -0.453 OA
ATOM     15  C   UNL     1      11.773   3.462   0.940  0.00  0.00    +0.466 C 
ATOM     16  O   UNL     1      12.378   2.974  -0.273  0.00  0.00    -0.453 OA
ENDBRANCH   6   8
ENDBRANCH   1   2
BRANCH   1  17
ATOM     17  N   UNL     1       7.319  -2.666  -0.527  0.00  0.00    +0.382 N 
ATOM     18  H   UNL     1       7.508  -2.512   0.452  0.00  0.00    -0.085 HD
ATOM     19  H   UNL     1       7.267  -3.658  -0.707  0.00  0.00    -0.085 HD
BRANCH  17  20
ATOM     20  C   UNL     1       6.041  -2.036  -0.884  0.00  0.00    -0.078 C 
BRANCH  20  21
ATOM     21  C   UNL     1       4.918  -2.649  -0.044  0.00  0.00    +0.029 C 
BRANCH  21  30
ATOM     22  C   UNL     1      -0.017   1.378   0.010  0.00  0.00    +0.004 A 
ATOM     23  C   UNL     1       1.170   2.088   0.002  0.00  0.00    +0.004 A 
ATOM     24  C   UNL     1       2.378   1.418  -0.012  0.00  0.00    +0.049 A 
ATOM     25  C   UNL     1       2.404   0.031  -0.019  0.00  0.00    +0.162 A 
ATOM     26  C   UNL     1       1.212  -0.683  -0.014  0.00  0.00    +0.162 A 
ATOM     27  C   UNL     1       0.002  -0.004   0.002  0.00  0.00    +0.049 A 
ATOM     28  O   UNL     1       1.214  -2.043  -0.029  0.00  0.00    -0.485 OA
ATOM     29  C   UNL     1       2.441  -2.689   0.331  0.00  0.00    +0.273 C 
ATOM     30  C   UNL     1       3.587  -1.993  -0.416  0.00  0.00    +0.209 C 
ATOM     31  O   UNL     1       3.602  -0.615  -0.029  0.00  0.00    -0.482 OA
ENDBRANCH  21  30
ENDBRANCH  20  21
ENDBRANCH  17  20
ENDBRANCH   1  17
TORSDOF 6
