REMARK  Name = ZINC13733501
REMARK  8 active torsions:
REMARK  status: ('A' for Active; 'I' for Inactive)
REMARK    1  A    between atoms: C_1  and  C_2
REMARK    2  A    between atoms: C_3  and  C_21
REMARK    3  A    between atoms: C_9  and  O_19
REMARK    4  A    between atoms: C_15  and  C_17
REMARK    5  A    between atoms: C_15  and  C_18
REMARK    6  A    between atoms: O_19  and  C_20
REMARK    7  A    between atoms: C_21  and  C_22
REMARK    8  A    between atoms: C_22  and  N_24
REMARK                            x       y       z     vdW  Elec       q    Type
REMARK                         _______ _______ _______ _____ _____    ______ ____
ROOT
ATOM      1  C   UNL     1       0.265   1.493  -0.024  0.00  0.00    +0.045 C 
ATOM      2  C   UNL     1       0.136  -0.009  -0.014  0.00  0.00    -0.026 A 
ATOM      3  C   UNL     1      -0.096  -0.691  -1.166  0.00  0.00    +0.049 A 
ATOM      4  C   UNL     1      -0.212  -2.095  -1.139  0.00  0.00    +0.341 A 
ATOM      5  O   UNL     1      -0.421  -2.699  -2.176  0.00  0.00    -0.245 OA
ATOM      6  O   UNL     1      -0.097  -2.778   0.012  0.00  0.00    -0.421 OA
ATOM      7  C   UNL     1       0.131  -2.136   1.180  0.00  0.00    +0.149 A 
ATOM      8  C   UNL     1       0.260  -0.736   1.197  0.00  0.00    +0.063 A 
ATOM      9  C   UNL     1       0.504  -0.074   2.413  0.00  0.00    +0.134 A 
ATOM     10  C   UNL     1       0.620  -0.807   3.575  0.00  0.00    +0.092 A 
ATOM     11  C   UNL     1       0.494  -2.198   3.553  0.00  0.00    +0.131 A 
ATOM     12  C   UNL     1       0.240  -2.856   2.363  0.00  0.00    +0.038 A 
ATOM     13  C   UNL     1       0.088  -4.356   2.310  0.00  0.00    +0.046 C 
ATOM     14  C   UNL     1       0.663  -4.979   3.584  0.00  0.00    +0.052 C 
ATOM     15  C   UNL     1       0.109  -4.207   4.789  0.00  0.00    +0.105 C 
ATOM     16  O   UNL     1       0.622  -2.869   4.726  0.00  0.00    -0.486 OA
ATOM     17  C   UNL     1      -1.420  -4.198   4.736  0.00  0.00    +0.055 C 
ATOM     18  C   UNL     1       0.577  -4.871   6.086  0.00  0.00    +0.055 C 
ENDROOT
BRANCH   9  19
ATOM     19  O   UNL     1       0.627   1.277   2.442  0.00  0.00    -0.494 OA
ATOM     20  C   UNL     1       0.875   1.878   3.715  0.00  0.00    +0.277 C 
ENDBRANCH   9  19
BRANCH   3  21
ATOM     21  C   UNL     1      -0.228   0.053  -2.470  0.00  0.00    +0.140 C 
BRANCH  21  22
ATOM     22  C   UNL     1       1.113   0.107  -3.156  0.00  0.00    +0.243 C 
ATOM     23  O   UNL     1       2.083  -0.408  -2.635  0.00  0.00    -0.273 OA
BRANCH  22  24
ATOM     24  N   UNL     1       1.235   0.719  -4.329  0.00  0.00    -0.156 NA
ATOM     25  C   UNL     1       2.419   0.767  -4.935  0.00  0.00    +0.164 A 
ATOM     26  N   UNL     1       2.724   1.349  -6.122  0.00  0.00    -0.335 N 
ATOM     27  H   UNL     1       2.034   1.799  -6.634  0.00  0.00    +0.168 HD
ATOM     28  C   UNL     1       4.020   1.300  -6.599  0.00  0.00    +0.055 A 
ATOM     29  C   UNL     1       4.547   1.828  -7.786  0.00  0.00    +0.027 A 
ATOM     30  C   UNL     1       5.880   1.674  -8.090  0.00  0.00    +0.002 A 
ATOM     31  C   UNL     1       6.736   0.997  -7.238  0.00  0.00    +0.001 A 
ATOM     32  C   UNL     1       6.240   0.466  -6.060  0.00  0.00    +0.017 A 
ATOM     33  C   UNL     1       4.909   0.620  -5.755  0.00  0.00    +0.039 A 
ATOM     34  S   UNL     1       3.878   0.127  -4.398  0.00  0.00    -0.052 S 
ENDBRANCH  22  24
ENDBRANCH  21  22
ENDBRANCH   3  21
TORSDOF 4
