REMARK  Name = ZINC39983912
REMARK  6 active torsions:
REMARK  status: ('A' for Active; 'I' for Inactive)
REMARK    1  A    between atoms: C_1  and  C_2
REMARK    2  A    between atoms: C_3  and  C_30
REMARK    3  A    between atoms: C_7  and  C_9
REMARK    4  A    between atoms: C_18  and  C_25
REMARK    5  A    between atoms: C_25  and  C_26
REMARK    6  A    between atoms: C_25  and  C_27
REMARK                            x       y       z     vdW  Elec       q    Type
REMARK                         _______ _______ _______ _____ _____    ______ ____
ROOT
ATOM      1  C   UNL     1      -6.337   2.647  -1.559  0.00  0.00    +0.078 C 
ATOM      2  C   UNL     1      -6.525   4.115  -1.948  0.00  0.00    +0.032 C 
ATOM      3  C   UNL     1      -8.017   4.400  -2.143  0.00  0.00    +0.107 C 
ATOM      4  N   UNL     1      -8.738   4.001  -0.926  0.00  0.00    -0.314 N 
ATOM      5  C   UNL     1      -8.556   2.636  -0.413  0.00  0.00    +0.107 C 
ATOM      6  C   UNL     1      -7.058   2.371  -0.238  0.00  0.00    +0.032 C 
ATOM      7  C   UNL     1      -9.578   4.901  -0.271  0.00  0.00    +0.140 C 
ATOM      8  N   UNL     1      -9.640   6.138  -0.679  0.00  0.00    -0.161 NA
ATOM      9  N   UNL     1     -10.469   7.070  -0.050  0.00  0.00    -0.182 N 
ATOM     10  C   UNL     1     -10.720   8.496  -0.305  0.00  0.00    +0.202 C 
ATOM     11  N   UNL     1     -11.702   8.876   0.725  0.00  0.00    -0.245 N 
ATOM     12  N   UNL     1     -11.950   7.720   1.474  0.00  0.00    -0.168 NA
ATOM     13  C   UNL     1     -11.253   6.705   1.034  0.00  0.00    +0.160 C 
ATOM     14  C   UNL     1     -11.192   5.314   1.504  0.00  0.00    +0.050 C 
ATOM     15  C   UNL     1     -10.380   4.444   0.861  0.00  0.00    +0.048 C 
ATOM     16  H   UNL     1     -12.098   9.751   0.858  0.00  0.00    +0.170 HD
ENDROOT
BRANCH   1  23
ATOM     17  C   UNL     1       0.006   1.129  -0.029  0.00  0.00    +0.066 C 
ATOM     18  C   UNL     1      -0.733   1.619  -1.248  0.00  0.00    +0.050 A 
ATOM     19  C   UNL     1      -0.089   1.861  -2.416  0.00  0.00    +0.011 A 
ATOM     20  S   UNL     1      -1.449   2.395  -3.441  0.00  0.00    -0.057 S 
ATOM     21  C   UNL     1      -2.673   2.256  -2.295  0.00  0.00    +0.165 A 
ATOM     22  N   UNL     1      -4.029   2.526  -2.442  0.00  0.00    -0.264 N 
ATOM     23  C   UNL     1      -4.867   2.354  -1.400  0.00  0.00    +0.222 C 
ATOM     24  O   UNL     1      -4.438   1.963  -0.335  0.00  0.00    -0.275 OA
ATOM     25  N   UNL     1      -2.037   1.825  -1.228  0.00  0.00    -0.230 NA
ATOM     26  H   UNL     1      -4.372   2.839  -3.293  0.00  0.00    +0.157 HD
ATOM     27  C   UNL     1       1.373   1.720  -2.755  0.00  0.00    +0.053 C 
ENDBRANCH   1  23
BRANCH  10  28
ATOM     28  C   UNL     1     -11.304   8.696  -1.705  0.00  0.00    +0.024 C 
ATOM     29  C   UNL     1     -11.556  10.186  -1.945  0.00  0.00    +0.011 C 
ATOM     30  C   UNL     1     -10.316   8.172  -2.749  0.00  0.00    +0.011 C 
ENDBRANCH  10  28
TORSDOF 2
