REMARK  Name = ZINC03769065
REMARK  7 active torsions:
REMARK  status: ('A' for Active; 'I' for Inactive)
REMARK    1  A    between atoms: C_1  and  C_2
REMARK    2  A    between atoms: C_2  and  O_3
REMARK    3  A    between atoms: O_3  and  C_4
REMARK    4  A    between atoms: C_6  and  C_12
REMARK    5  A    between atoms: C_9  and  O_10
REMARK    6  A    between atoms: N_16  and  C_20
REMARK    7  A    between atoms: C_25  and  C_26
REMARK                            x       y       z     vdW  Elec       q    Type
REMARK                         _______ _______ _______ _____ _____    ______ ____
ROOT
ATOM      1  C   UNL     1      -1.032  -0.884   0.007  0.00  0.00    +0.028 C 
ATOM      2  C   UNL     1      -0.028  -0.016  -0.280  0.00  0.00    +0.078 C 
ATOM      3  C   UNL     1      -0.096   1.407  -0.665  0.00  0.00    +0.263 C 
ATOM      4  O   UNL     1      -1.159   1.990  -0.776  0.00  0.00    -0.269 OA
ATOM      5  N   UNL     1       1.056   2.016  -0.890  0.00  0.00    -0.223 N 
ATOM      6  C   UNL     1       2.232   1.366  -0.771  0.00  0.00    +0.125 C 
ATOM      7  S   UNL     1       3.813   1.974  -1.018  0.00  0.00    -0.027 S 
ATOM      8  S   UNL     1       1.739  -0.283  -0.296  0.00  0.00    -0.061 S 
ENDROOT
BRANCH   1  11
ATOM      9  C   UNL     1      -4.769  -0.691  -0.242  0.00  0.00    +0.163 A 
ATOM     10  C   UNL     1      -3.474  -1.154  -0.369  0.00  0.00    +0.057 A 
ATOM     11  C   UNL     1      -2.411  -0.395   0.135  0.00  0.00    -0.019 A 
ATOM     12  C   UNL     1      -2.666   0.834   0.755  0.00  0.00    +0.026 A 
ATOM     13  C   UNL     1      -3.961   1.290   0.872  0.00  0.00    +0.059 A 
ATOM     14  C   UNL     1      -5.015   0.533   0.377  0.00  0.00    +0.172 A 
ATOM     15  I   UNL     1      -4.341   3.130   1.800  0.00  0.00    -0.040 I 
BRANCH  14  16
ATOM     16  O   UNL     1      -6.290   0.988   0.496  0.00  0.00    -0.503 OA
ATOM     17  H   UNL     1      -6.586   1.528  -0.249  0.00  0.00    +0.292 HD
ENDBRANCH  14  16
BRANCH   9  18
ATOM     18  O   UNL     1      -5.805  -1.429  -0.725  0.00  0.00    -0.489 OA
BRANCH  18  20
ATOM     19  C   UNL     1      -6.764  -3.355  -1.824  0.00  0.00    +0.048 C 
ATOM     20  C   UNL     1      -5.480  -2.674  -1.347  0.00  0.00    +0.226 C 
ENDBRANCH  18  20
ENDBRANCH   9  18
ENDBRANCH   1  11
BRANCH   5  21
ATOM     21  C   UNL     1       1.056   3.368  -1.259  0.00  0.00    +0.045 A 
ATOM     22  C   UNL     1       1.108   4.356  -0.284  0.00  0.00    +0.024 A 
ATOM     23  C   UNL     1       1.113   5.687  -0.651  0.00  0.00    +0.002 A 
ATOM     24  C   UNL     1       1.055   6.037  -1.988  0.00  0.00    +0.000 A 
ATOM     25  C   UNL     1       0.997   5.057  -2.960  0.00  0.00    +0.005 A 
ATOM     26  C   UNL     1       0.997   3.723  -2.600  0.00  0.00    -0.029 A 
ATOM     27  C   UNL     1       0.933   2.655  -3.661  0.00  0.00    +0.045 C 
ENDBRANCH   5  21
TORSDOF 5
