REMARK  Name = ZINC23732874
REMARK  7 active torsions:
REMARK  status: ('A' for Active; 'I' for Inactive)
REMARK    1  A    between atoms: C_1  and  N_2
REMARK    2  A    between atoms: N_2  and  C_3
REMARK    3  A    between atoms: N_2  and  C_16
REMARK    4  A    between atoms: C_3  and  C_4
REMARK    5  A    between atoms: C_9  and  O_14
REMARK    6  A    between atoms: O_14  and  C_15
REMARK    7  A    between atoms: C_16  and  N_17
REMARK                            x       y       z     vdW  Elec       q    Type
REMARK                         _______ _______ _______ _____ _____    ______ ____
ROOT
ATOM      1  C   UNL     1      -0.104   3.706   2.090  0.00  0.00    +0.106 C 
ATOM      2  N   UNL     1       1.137   4.080   1.398  0.00  0.00    -0.285 NA
ENDROOT
BRANCH   2   3
ATOM      3  C   UNL     1       1.131   3.598   0.011  0.00  0.00    +0.120 C 
BRANCH   3   4
ATOM      4  C   UNL     1       1.156   2.091   0.002  0.00  0.00    -0.033 A 
ATOM      5  C   UNL     1       2.380   1.425  -0.013  0.00  0.00    +0.005 A 
ATOM      6  C   UNL     1       2.438   0.065  -0.021  0.00  0.00    +0.009 A 
ATOM      7  C   UNL     1       1.247  -0.682  -0.013  0.00  0.00    -0.014 A 
ATOM      8  C   UNL     1       1.268  -2.086  -0.022  0.00  0.00    +0.054 A 
ATOM      9  C   UNL     1       0.091  -2.779  -0.015  0.00  0.00    +0.121 A 
ATOM     10  C   UNL     1      -1.136  -2.108   0.001  0.00  0.00    +0.046 A 
ATOM     11  C   UNL     1      -1.190  -0.749   0.009  0.00  0.00    +0.012 A 
ATOM     12  C   UNL     1       0.002  -0.004   0.002  0.00  0.00    -0.017 A 
ATOM     13  C   UNL     1      -0.017   1.401   0.010  0.00  0.00    +0.013 A 
BRANCH   9  14
ATOM     14  O   UNL     1       0.112  -4.137  -0.023  0.00  0.00    -0.495 OA
ATOM     15  C   UNL     1      -1.151  -4.806  -0.015  0.00  0.00    +0.277 C 
ENDBRANCH   9  14
ENDBRANCH   3   4
ENDBRANCH   2   3
BRANCH   2  16
ATOM     16  C   UNL     1       1.351   5.532   1.450  0.00  0.00    +0.205 C 
BRANCH  16  17
ATOM     17  N   UNL     1       1.933   5.894   2.745  0.00  0.00    -0.211 N 
ATOM     18  C   UNL     1       3.256   5.944   2.991  0.00  0.00    +0.248 C 
ATOM     19  O   UNL     1       4.155   5.705   2.213  0.00  0.00    -0.273 OA
ATOM     20  C   UNL     1       3.392   6.362   4.445  0.00  0.00    +0.113 C 
ATOM     21  C   UNL     1       4.043   7.763   4.478  0.00  0.00    +0.035 C 
ATOM     22  C   UNL     1       3.670   8.441   5.767  0.00  0.00    +0.003 C 
ATOM     23  C   UNL     1       4.725   8.239   6.872  0.00  0.00    +0.000 C 
ATOM     24  C   UNL     1       5.274   6.801   6.918  0.00  0.00    +0.000 C 
ATOM     25  C   UNL     1       4.194   5.770   6.733  0.00  0.00    +0.003 C 
ATOM     26  C   UNL     1       4.132   5.391   5.241  0.00  0.00    +0.035 C 
ATOM     27  N   UNL     1       1.990   6.507   4.887  0.00  0.00    -0.285 N 
ATOM     28  C   UNL     1       1.217   6.220   3.826  0.00  0.00    +0.310 C 
ATOM     29  O   UNL     1       0.002   6.250   3.847  0.00  0.00    -0.252 OA
ATOM     30  H   UNL     1       1.767   6.801   5.924  0.00  0.00    +0.151 HD
ENDBRANCH  16  17
ENDBRANCH   2  16
TORSDOF 5
