REMARK  Name = ZINC02394379
REMARK  7 active torsions:
REMARK  status: ('A' for Active; 'I' for Inactive)
REMARK    1  A    between atoms: C_1  and  C_2
REMARK    2  A    between atoms: C_2  and  N_3
REMARK    3  A    between atoms: C_12  and  S_13
REMARK    4  A    between atoms: S_13  and  C_14
REMARK    5  A    between atoms: C_14  and  C_15
REMARK    6  A    between atoms: C_17  and  C_22
REMARK    7  A    between atoms: C_20  and  C_21
REMARK                            x       y       z     vdW  Elec       q    Type
REMARK                         _______ _______ _______ _____ _____    ______ ____
ROOT
ATOM      1  N   UNL     1       4.402   0.073  -0.040  0.00  0.00    -0.288 N 
ATOM      2  C   UNL     1       3.688   1.223  -0.026  0.00  0.00    +0.263 A 
ATOM      3  O   UNL     1       4.224   2.318  -0.025  0.00  0.00    -0.267 OA
ATOM      4  C   UNL     1       2.263   1.074  -0.013  0.00  0.00    +0.076 A 
ATOM      5  C   UNL     1       1.278   2.143   0.001  0.00  0.00    -0.023 A 
ATOM      6  C   UNL     1      -0.022   1.771   0.012  0.00  0.00    -0.004 A 
ATOM      7  S   UNL     1       0.002  -0.004   0.002  0.00  0.00    -0.073 S 
ATOM      8  C   UNL     1       1.751  -0.243  -0.016  0.00  0.00    +0.117 A 
ATOM      9  N   UNL     1       2.508  -1.333  -0.029  0.00  0.00    -0.216 NA
ATOM     10  C   UNL     1       3.823  -1.159  -0.041  0.00  0.00    +0.173 A 
ATOM     11  C   UNL     1      -1.222   2.667   0.034  0.00  0.00    +0.043 C 
ATOM     12  C   UNL     1      -0.767   4.084   0.403  0.00  0.00    +0.005 C 
ATOM     13  C   UNL     1       0.456   4.447  -0.445  0.00  0.00    +0.005 C 
ATOM     14  C   UNL     1       1.662   3.621   0.004  0.00  0.00    +0.037 C 
ENDROOT
BRANCH   1  16
ATOM     15  C   UNL     1       6.388   0.180   1.383  0.00  0.00    +0.027 C 
ATOM     16  C   UNL     1       5.865   0.158  -0.054  0.00  0.00    +0.124 C 
ENDBRANCH   1  16
BRANCH  10  17
ATOM     17  S   UNL     1       4.863  -2.582  -0.059  0.00  0.00    -0.083 S 
BRANCH  17  18
ATOM     18  C   UNL     1       3.609  -3.888  -0.054  0.00  0.00    +0.112 C 
BRANCH  18  19
ATOM     19  C   UNL     1       4.286  -5.234  -0.069  0.00  0.00    -0.034 A 
ATOM     20  C   UNL     1       4.608  -5.858   1.122  0.00  0.00    +0.008 A 
ATOM     21  C   UNL     1       5.229  -7.093   1.109  0.00  0.00    -0.050 A 
ATOM     22  C   UNL     1       5.527  -7.704  -0.095  0.00  0.00    +0.003 A 
ATOM     23  C   UNL     1       5.206  -7.080  -1.285  0.00  0.00    +0.004 A 
ATOM     24  C   UNL     1       4.580  -5.847  -1.272  0.00  0.00    -0.046 A 
ATOM     25  C   UNL     1       4.223  -5.169  -2.570  0.00  0.00    +0.044 C 
ATOM     26  C   UNL     1       5.580  -7.774   2.407  0.00  0.00    +0.044 C 
ENDBRANCH  18  19
ENDBRANCH  17  18
ENDBRANCH  10  17
TORSDOF 4
