REMARK  Name = ZINC15770962
REMARK  4 active torsions:
REMARK  status: ('A' for Active; 'I' for Inactive)
REMARK    1  A    between atoms: C_4  and  C_7
REMARK    2  A    between atoms: C_7  and  C_8
REMARK    3  A    between atoms: C_13  and  C_29
REMARK    4  A    between atoms: C_38  and  O_39
REMARK                            x       y       z     vdW  Elec       q    Type
REMARK                         _______ _______ _______ _____ _____    ______ ____
ROOT
ATOM      1  C   UNL     1       4.325  -0.902   1.331  0.00  0.00    +0.144 A 
ATOM      2  N   UNL     1       5.051  -0.029   1.987  0.00  0.00    -0.133 NA
ATOM      3  N   UNL     1       5.299  -0.453   3.182  0.00  0.00    -0.129 NA
ATOM      4  C   UNL     1       4.742  -1.623   3.351  0.00  0.00    +0.171 A 
ATOM      5  N   UNL     1       4.096  -1.939   2.162  0.00  0.00    -0.262 N 
ATOM      6  C   UNL     1       3.408  -3.117   2.033  0.00  0.00    +0.155 A 
ATOM      7  N   UNL     1       3.375  -3.933   3.070  0.00  0.00    -0.194 NA
ATOM      8  C   UNL     1       3.976  -3.677   4.242  0.00  0.00    +0.229 A 
ATOM      9  C   UNL     1       4.689  -2.523   4.431  0.00  0.00    +0.063 A 
ATOM     10  C   UNL     1       5.372  -2.216   5.728  0.00  0.00    +0.083 C 
ATOM     11  C   UNL     1       5.533  -3.470   6.549  0.00  0.00    +0.000 A 
ATOM     12  C   UNL     1       6.426  -3.476   7.579  0.00  0.00    +0.016 A 
ATOM     13  C   UNL     1       6.592  -4.632   8.358  0.00  0.00    -0.017 A 
ATOM     14  C   UNL     1       7.502  -4.667   9.428  0.00  0.00    +0.008 A 
ATOM     15  C   UNL     1       7.636  -5.807  10.161  0.00  0.00    +0.001 A 
ATOM     16  C   UNL     1       6.885  -6.943   9.866  0.00  0.00    +0.001 A 
ATOM     17  C   UNL     1       5.994  -6.946   8.837  0.00  0.00    +0.008 A 
ATOM     18  C   UNL     1       5.826  -5.787   8.059  0.00  0.00    -0.014 A 
ATOM     19  C   UNL     1       4.915  -5.750   6.993  0.00  0.00    +0.055 A 
ATOM     20  C   UNL     1       4.774  -4.606   6.253  0.00  0.00    +0.134 A 
ATOM     21  O   UNL     1       3.867  -4.587   5.237  0.00  0.00    -0.437 OA
ENDROOT
BRANCH   6  22
ATOM     22  C   UNL     1       2.725  -3.462   0.773  0.00  0.00    +0.060 A 
ATOM     23  C   UNL     1       1.341  -3.526   0.735  0.00  0.00    +0.023 A 
ATOM     24  C   UNL     1       0.697  -3.855  -0.466  0.00  0.00    -0.017 A 
ATOM     25  C   UNL     1      -0.706  -3.929  -0.541  0.00  0.00    +0.008 A 
ATOM     26  C   UNL     1      -1.302  -4.250  -1.721  0.00  0.00    +0.001 A 
ATOM     27  C   UNL     1      -0.543  -4.509  -2.861  0.00  0.00    +0.001 A 
ATOM     28  C   UNL     1       0.816  -4.447  -2.827  0.00  0.00    +0.008 A 
ATOM     29  C   UNL     1       1.470  -4.118  -1.627  0.00  0.00    -0.014 A 
ATOM     30  C   UNL     1       2.872  -4.047  -1.562  0.00  0.00    +0.054 A 
ATOM     31  C   UNL     1       3.484  -3.720  -0.389  0.00  0.00    +0.128 A 
BRANCH  31  32
ATOM     32  O   UNL     1       4.838  -3.647  -0.336  0.00  0.00    -0.506 OA
ATOM     33  H   UNL     1       5.269  -4.482  -0.106  0.00  0.00    +0.292 HD
ENDBRANCH  31  32
ENDBRANCH   6  22
BRANCH   1  34
ATOM     34  C   UNL     1       3.833  -0.769  -0.087  0.00  0.00    +0.111 C 
BRANCH  34  38
ATOM     35  C   UNL     1       0.354   1.708  -0.163  0.00  0.00    +0.000 A 
ATOM     36  C   UNL     1       1.612   2.282  -0.167  0.00  0.00    +0.000 A 
ATOM     37  C   UNL     1       2.738   1.481  -0.142  0.00  0.00    +0.004 A 
ATOM     38  C   UNL     1       2.606   0.105  -0.113  0.00  0.00    -0.040 A 
ATOM     39  C   UNL     1       1.349  -0.469  -0.108  0.00  0.00    +0.004 A 
ATOM     40  C   UNL     1       0.223   0.333  -0.134  0.00  0.00    +0.000 A 
ENDBRANCH  34  38
ENDBRANCH   1  34
TORSDOF 4
