REMARK  Name = ZINC39684888
REMARK  8 active torsions:
REMARK  status: ('A' for Active; 'I' for Inactive)
REMARK    1  A    between atoms: C_1  and  C_2
REMARK    2  A    between atoms: C_2  and  S_3
REMARK    3  A    between atoms: S_3  and  C_4
REMARK    4  A    between atoms: C_5  and  C_10
REMARK    5  A    between atoms: C_14  and  C_23
REMARK    6  A    between atoms: N_25  and  C_26
REMARK    7  A    between atoms: C_26  and  C_27
REMARK    8  A    between atoms: C_30  and  C_33
REMARK                            x       y       z     vdW  Elec       q    Type
REMARK                         _______ _______ _______ _____ _____    ______ ____
ROOT
ATOM      1  C   UNL     1       2.049  -2.321  -3.755  0.00  0.00    +0.249 C 
ATOM      2  O   UNL     1       2.046  -1.131  -4.003  0.00  0.00    -0.270 OA
ATOM      3  N   UNL     1       2.686  -3.179  -4.576  0.00  0.00    -0.296 N 
ATOM      4  C   UNL     1       2.711  -4.659  -4.501  0.00  0.00    +0.121 C 
ATOM      5  C   UNL     1       2.626  -5.126  -5.971  0.00  0.00    +0.100 C 
ATOM      6  C   UNL     1       3.159  -3.940  -6.791  0.00  0.00    -0.004 C 
ATOM      7  C   UNL     1       3.514  -2.856  -5.763  0.00  0.00    +0.115 C 
ATOM      8  C   UNL     1       4.401  -4.354  -7.574  0.00  0.00    -0.010 C 
ATOM      9  C   UNL     1       4.879  -3.175  -8.426  0.00  0.00    -0.082 C 
ATOM     10  N   UNL     1       3.810  -2.770  -9.346  0.00  0.00    +0.379 N 
ATOM     11  C   UNL     1       2.652  -2.285  -8.585  0.00  0.00    -0.082 C 
ATOM     12  C   UNL     1       2.080  -3.426  -7.740  0.00  0.00    -0.010 C 
ATOM     13  H   UNL     1       4.147  -2.033  -9.948  0.00  0.00    -0.086 HD
ATOM     14  H   UNL     1       3.534  -3.560  -9.909  0.00  0.00    -0.086 HD
ENDROOT
BRANCH   1  16
ATOM     15  C   UNL     1       0.161  -2.229  -2.115  0.00  0.00    +0.109 A 
ATOM     16  C   UNL     1       1.356  -2.825  -2.556  0.00  0.00    +0.069 A 
ATOM     17  C   UNL     1       1.875  -3.906  -1.835  0.00  0.00    +0.017 A 
ATOM     18  C   UNL     1       1.186  -4.342  -0.716  0.00  0.00    +0.020 A 
ATOM     19  C   UNL     1       0.016  -3.704  -0.345  0.00  0.00    +0.112 A 
ATOM     20  N   UNL     1      -0.455  -2.684  -1.034  0.00  0.00    -0.248 NA
BRANCH  15  21
ATOM     21  S   UNL     1      -0.517  -0.866  -3.002  0.00  0.00    -0.105 S 
BRANCH  21  23
ATOM     22  C   UNL     1      -2.714   0.744  -2.746  0.00  0.00    +0.015 C 
ATOM     23  C   UNL     1      -2.018  -0.442  -2.075  0.00  0.00    +0.072 C 
ENDBRANCH  21  23
ENDBRANCH  15  21
ENDBRANCH   1  16
BRANCH   5  24
ATOM     24  C   UNL     1       1.196  -5.425  -6.344  0.00  0.00    +0.218 C 
ATOM     25  O   UNL     1       0.291  -4.822  -5.809  0.00  0.00    -0.275 OA
ATOM     26  N   UNL     1       0.925  -6.364  -7.273  0.00  0.00    -0.311 N 
ATOM     27  H   UNL     1       1.649  -6.847  -7.701  0.00  0.00    +0.149 HD
BRANCH  26  28
ATOM     28  C   UNL     1      -0.464  -6.654  -7.636  0.00  0.00    +0.139 C 
BRANCH  28  29
ATOM     29  C   UNL     1      -0.494  -7.734  -8.687  0.00  0.00    -0.030 A 
ATOM     30  C   UNL     1      -0.452  -7.391 -10.027  0.00  0.00    +0.006 A 
ATOM     31  C   UNL     1      -0.478  -8.374 -10.995  0.00  0.00    +0.019 A 
ATOM     32  C   UNL     1      -0.547  -9.717 -10.619  0.00  0.00    +0.052 A 
ATOM     33  C   UNL     1      -0.589 -10.056  -9.265  0.00  0.00    +0.019 A 
ATOM     34  C   UNL     1      -0.557  -9.063  -8.308  0.00  0.00    +0.006 A 
BRANCH  32  35
ATOM     35  C   UNL     1      -0.575 -10.743 -11.618  0.00  0.00    +0.099 C 
ATOM     36  N   UNL     1      -0.597 -11.556 -12.411  0.00  0.00    -0.191 NA
ENDBRANCH  32  35
ENDBRANCH  28  29
ENDBRANCH  26  28
ENDBRANCH   5  24
TORSDOF 7
