REMARK  Name = ZINC02772414
REMARK  13 active torsions:
REMARK  status: ('A' for Active; 'I' for Inactive)
REMARK    1  A    between atoms: C_1  and  C_2
REMARK    2  A    between atoms: C_2  and  C_4
REMARK    3  A    between atoms: C_5  and  C_27
REMARK    4  A    between atoms: C_10  and  C_12
REMARK    5  A    between atoms: C_14  and  C_23
REMARK    6  A    between atoms: C_15  and  O_22
REMARK    7  A    between atoms: C_16  and  C_18
REMARK    8  A    between atoms: C_18  and  C_19
REMARK    9  A    between atoms: C_18  and  C_20
REMARK   10  A    between atoms: C_18  and  C_21
REMARK   11  A    between atoms: C_23  and  C_24
REMARK   12  A    between atoms: C_23  and  C_25
REMARK   13  A    between atoms: C_23  and  C_26
REMARK                            x       y       z     vdW  Elec       q    Type
REMARK                         _______ _______ _______ _____ _____    ______ ____
ROOT
ATOM      1  C   UNL     1       1.401   1.758  -0.319  0.00  0.00    +0.041 C 
ATOM      2  C   UNL     1       1.643   2.966  -0.941  0.00  0.00    +0.051 C 
ATOM      3  N   UNL     1       0.629   3.637  -1.579  0.00  0.00    -0.268 N 
ATOM      4  C   UNL     1      -0.630   3.187  -1.644  0.00  0.00    +0.305 C 
ATOM      5  O   UNL     1      -1.459   3.853  -2.232  0.00  0.00    -0.252 OA
ATOM      6  N   UNL     1      -1.014   2.024  -1.084  0.00  0.00    -0.288 N 
ATOM      7  C   UNL     1      -0.013   1.214  -0.371  0.00  0.00    +0.140 C 
ATOM      8  H   UNL     1       0.836   4.484  -2.005  0.00  0.00    +0.156 HD
ATOM      9  H   UNL     1      -1.934   1.725  -1.149  0.00  0.00    +0.151 HD
ENDROOT
BRANCH   7  10
ATOM     10  C   UNL     1       0.036  -0.144  -1.022  0.00  0.00    -0.022 A 
ATOM     11  C   UNL     1       0.130  -0.246  -2.398  0.00  0.00    +0.013 A 
ATOM     12  C   UNL     1       0.180  -1.490  -2.997  0.00  0.00    +0.000 A 
ATOM     13  C   UNL     1       0.124  -2.637  -2.219  0.00  0.00    +0.124 A 
ATOM     14  C   UNL     1       0.024  -2.531  -0.839  0.00  0.00    +0.000 A 
ATOM     15  C   UNL     1      -0.020  -1.285  -0.244  0.00  0.00    +0.013 A 
BRANCH  14  16
ATOM     16  C   UNL     1      -0.036  -3.775   0.010  0.00  0.00    -0.009 C 
ATOM     17  C   UNL     1      -0.143  -3.381   1.485  0.00  0.00    +0.015 C 
ATOM     18  C   UNL     1      -1.260  -4.604  -0.386  0.00  0.00    +0.015 C 
ATOM     19  C   UNL     1       1.232  -4.602  -0.206  0.00  0.00    +0.015 C 
ENDBRANCH  14  16
BRANCH  12  20
ATOM     20  C   UNL     1       0.289  -1.601  -4.496  0.00  0.00    -0.009 C 
ATOM     21  C   UNL     1       0.333  -0.200  -5.110  0.00  0.00    +0.015 C 
ATOM     22  C   UNL     1       1.569  -2.357  -4.860  0.00  0.00    +0.015 C 
ATOM     23  C   UNL     1      -0.923  -2.358  -5.041  0.00  0.00    +0.015 C 
ENDBRANCH  12  20
BRANCH  13  24
ATOM     24  O   UNL     1       0.167  -3.861  -2.806  0.00  0.00    -0.506 OA
ATOM     25  H   UNL     1      -0.702  -4.216  -3.040  0.00  0.00    +0.292 HD
ENDBRANCH  13  24
ENDBRANCH   7  10
BRANCH   2  26
ATOM     26  C   UNL     1       3.001   3.542  -0.921  0.00  0.00    -0.003 A 
ATOM     27  C   UNL     1       3.719   3.607   0.276  0.00  0.00    +0.010 A 
ATOM     28  C   UNL     1       4.990   4.140   0.286  0.00  0.00    +0.001 A 
ATOM     29  C   UNL     1       5.552   4.621  -0.884  0.00  0.00    +0.000 A 
ATOM     30  C   UNL     1       4.845   4.564  -2.073  0.00  0.00    +0.001 A 
ATOM     31  C   UNL     1       3.575   4.029  -2.099  0.00  0.00    +0.010 A 
ENDBRANCH   2  26
BRANCH   1  33
ATOM     32  C   UNL     1       2.363   0.863   1.828  0.00  0.00    +0.091 C 
ATOM     33  C   UNL     1       2.423   1.062   0.336  0.00  0.00    +0.160 C 
ATOM     34  O   UNL     1       3.359   0.617  -0.299  0.00  0.00    -0.293 OA
ENDBRANCH   1  33
TORSDOF 6
