REMARK  Name = ZINC14474647
REMARK  6 active torsions:
REMARK  status: ('A' for Active; 'I' for Inactive)
REMARK    1  A    between atoms: C_4  and  O_34
REMARK    2  A    between atoms: C_5  and  C_7
REMARK    3  A    between atoms: C_18  and  S_23
REMARK    4  A    between atoms: S_23  and  N_26
REMARK    5  A    between atoms: N_26  and  C_27
REMARK    6  A    between atoms: C_27  and  C_28
REMARK                            x       y       z     vdW  Elec       q    Type
REMARK                         _______ _______ _______ _____ _____    ______ ____
ROOT
ATOM      1  C   UNL     1       0.104   1.802   2.428  0.00  0.00    +0.108 C 
ATOM      2  C   UNL     1      -0.813   1.569   1.248  0.00  0.00    +0.029 C 
ATOM      3  C   UNL     1      -0.029   1.036   0.024  0.00  0.00    +0.033 C 
ATOM      4  C   UNL     1      -0.857   1.525  -1.151  0.00  0.00    -0.030 C 
ATOM      5  C   UNL     1      -1.599   2.545  -0.797  0.00  0.00    -0.023 C 
ATOM      6  C   UNL     1      -1.368   2.885   0.669  0.00  0.00    +0.049 C 
ATOM      7  C   UNL     1      -0.358   4.000   0.720  0.00  0.00    -0.018 A 
ATOM      8  C   UNL     1      -0.670   5.193   0.081  0.00  0.00    +0.034 A 
ATOM      9  C   UNL     1       0.221   6.247   0.092  0.00  0.00    +0.106 A 
ATOM     10  C   UNL     1       1.437   6.125   0.739  0.00  0.00    +0.030 A 
ATOM     11  C   UNL     1       1.757   4.944   1.379  0.00  0.00    +0.025 A 
ATOM     12  C   UNL     1       0.858   3.884   1.369  0.00  0.00    +0.031 A 
ATOM     13  N   UNL     1       1.196   2.698   2.031  0.00  0.00    -0.336 N 
ATOM     14  H   UNL     1       2.121   2.475   2.220  0.00  0.00    +0.147 HD
ENDROOT
BRANCH   1  19
ATOM     15  C   UNL     1      -1.280   4.360   4.835  0.00  0.00    +0.001 A 
ATOM     16  C   UNL     1      -2.108   3.582   5.624  0.00  0.00    +0.004 A 
ATOM     17  C   UNL     1      -2.223   2.228   5.380  0.00  0.00    +0.046 A 
ATOM     18  C   UNL     1      -1.510   1.648   4.341  0.00  0.00    +0.122 A 
ATOM     19  C   UNL     1      -0.676   2.429   3.555  0.00  0.00    +0.014 A 
ATOM     20  C   UNL     1      -0.565   3.784   3.802  0.00  0.00    +0.009 A 
BRANCH  18  21
ATOM     21  O   UNL     1      -1.625   0.316   4.097  0.00  0.00    -0.506 OA
ATOM     22  H   UNL     1      -0.987  -0.229   4.579  0.00  0.00    +0.292 HD
ENDBRANCH  18  21
ENDBRANCH   1  19
BRANCH   9  23
ATOM     23  S   UNL     1      -0.193   7.753  -0.723  0.00  0.00    +0.058 S 
ATOM     24  O   UNL     1       1.036   8.397  -1.034  0.00  0.00    -0.153 OA
ATOM     25  O   UNL     1      -1.154   7.427  -1.717  0.00  0.00    -0.153 OA
BRANCH  23  26
ATOM     26  N   UNL     1      -0.963   8.713   0.384  0.00  0.00    -0.187 NA
ATOM     27  H   UNL     1      -1.895   8.952   0.255  0.00  0.00    +0.148 HD
BRANCH  26  28
ATOM     28  C   UNL     1      -0.239   9.202   1.560  0.00  0.00    +0.137 C 
BRANCH  28  29
ATOM     29  C   UNL     1      -1.029  10.340   2.209  0.00  0.00    +0.134 C 
ATOM     30  C   UNL     1      -0.220  10.939   3.380  0.00  0.00    +0.035 C 
ATOM     31  C   UNL     1      -1.323  11.208   4.439  0.00  0.00    +0.031 C 
ATOM     32  C   UNL     1      -2.286  10.024   4.169  0.00  0.00    +0.160 C 
ATOM     33  O   UNL     1      -2.257   9.835   2.745  0.00  0.00    -0.375 OA
ENDBRANCH  28  29
ENDBRANCH  26  28
ENDBRANCH  23  26
ENDBRANCH   9  23
TORSDOF 6
