REMARK  Name = ZINC45971960
REMARK  6 active torsions:
REMARK  status: ('A' for Active; 'I' for Inactive)
REMARK    1  A    between atoms: C_8  and  C_10
REMARK    2  A    between atoms: C_10  and  C_11
REMARK    3  A    between atoms: C_11  and  C_12
REMARK    4  A    between atoms: C_12  and  C_13
REMARK    5  A    between atoms: N_15  and  N_16
REMARK    6  A    between atoms: N_16  and  C_17
REMARK                            x       y       z     vdW  Elec       q    Type
REMARK                         _______ _______ _______ _____ _____    ______ ____
ROOT
ATOM      1  C   UNL     1       3.740  -6.403  -2.933  0.00  0.00    +0.229 C 
ATOM      2  O   UNL     1       3.517  -5.640  -3.848  0.00  0.00    -0.274 OA
ATOM      3  N   UNL     1       4.097  -7.677  -3.189  0.00  0.00    -0.237 N 
ATOM      4  H   UNL     1       4.275  -8.288  -2.457  0.00  0.00    +0.173 HD
ENDROOT
BRANCH   3   5
ATOM      5  N   UNL     1       4.210  -8.120  -4.514  0.00  0.00    -0.264 N 
ATOM      6  H   UNL     1       4.032  -7.509  -5.246  0.00  0.00    +0.170 HD
BRANCH   5   7
ATOM      7  C   UNL     1       4.581  -9.441  -4.780  0.00  0.00    +0.045 A 
ATOM      8  C   UNL     1       4.831 -10.318  -3.732  0.00  0.00    +0.027 A 
ATOM      9  C   UNL     1       5.196 -11.623  -3.997  0.00  0.00    +0.040 A 
ATOM     10  C   UNL     1       5.314 -12.058  -5.307  0.00  0.00    +0.124 A 
ATOM     11  C   UNL     1       5.065 -11.186  -6.353  0.00  0.00    +0.040 A 
ATOM     12  C   UNL     1       4.694  -9.881  -6.092  0.00  0.00    +0.027 A 
ATOM     13  F   UNL     1       5.671 -13.335  -5.564  0.00  0.00    -0.205 F 
ENDBRANCH   5   7
ENDBRANCH   3   5
BRANCH   1  14
ATOM     14  C   UNL     1       3.617  -5.927  -1.508  0.00  0.00    +0.098 C 
BRANCH  14  15
ATOM     15  C   UNL     1       3.202  -4.455  -1.496  0.00  0.00    +0.016 C 
BRANCH  15  16
ATOM     16  C   UNL     1       3.078  -3.972  -0.050  0.00  0.00    +0.063 C 
BRANCH  16  24
ATOM     17  C   UNL     1      -0.016   1.357   0.009  0.00  0.00    +0.002 A 
ATOM     18  C   UNL     1       1.156   2.100   0.002  0.00  0.00    +0.001 A 
ATOM     19  C   UNL     1       2.375   1.449  -0.013  0.00  0.00    +0.017 A 
ATOM     20  C   UNL     1       2.404   0.076  -0.021  0.00  0.00    +0.039 A 
ATOM     21  C   UNL     1       1.226  -0.705  -0.013  0.00  0.00    +0.078 A 
ATOM     22  C   UNL     1       0.002  -0.004   0.002  0.00  0.00    +0.029 A 
ATOM     23  N   UNL     1       1.464  -2.033  -0.023  0.00  0.00    -0.244 NA
ATOM     24  C   UNL     1       2.669  -2.521  -0.038  0.00  0.00    +0.080 A 
ATOM     25  S   UNL     1       3.669  -1.167  -0.040  0.00  0.00    -0.072 S 
ENDBRANCH  16  24
ENDBRANCH  15  16
ENDBRANCH  14  15
ENDBRANCH   1  14
TORSDOF 6
