REMARK  Name = ZINC19852332
REMARK  5 active torsions:
REMARK  status: ('A' for Active; 'I' for Inactive)
REMARK    1  A    between atoms: C_1  and  C_2
REMARK    2  A    between atoms: C_4  and  S_11
REMARK    3  A    between atoms: S_11  and  C_12
REMARK    4  A    between atoms: C_12  and  C_13
REMARK    5  A    between atoms: N_15  and  C_16
REMARK                            x       y       z     vdW  Elec       q    Type
REMARK                         _______ _______ _______ _____ _____    ______ ____
ROOT
ATOM      1  C   UNL     1      -1.256   7.405  -0.164  0.00  0.00    +0.171 C 
ENDROOT
BRANCH   1   2
ATOM      2  C   UNL     1      -1.242   5.902  -0.058  0.00  0.00    +0.227 C 
ATOM      3  O   UNL     1      -2.286   5.284  -0.050  0.00  0.00    -0.275 OA
ATOM      4  N   UNL     1      -0.069   5.243   0.029  0.00  0.00    -0.285 N 
ATOM      5  H   UNL     1       0.873   5.806   0.110  0.00  0.00    +0.155 HD
BRANCH   4   6
ATOM      6  C   UNL     1      -0.050   3.844   0.017  0.00  0.00    +0.036 A 
ATOM      7  C   UNL     1      -0.989   3.142  -0.727  0.00  0.00    +0.043 A 
ATOM      8  C   UNL     1      -0.968   1.760  -0.738  0.00  0.00    +0.044 A 
ATOM      9  C   UNL     1      -0.012   1.076  -0.007  0.00  0.00    +0.040 A 
ATOM     10  C   UNL     1       0.921   1.773   0.740  0.00  0.00    +0.044 A 
ATOM     11  C   UNL     1       0.908   3.155   0.749  0.00  0.00    +0.043 A 
ATOM     12 CL   UNL     1       2.114   0.911   1.661  0.00  0.00    -0.083 Cl
ATOM     13 CL   UNL     1      -2.141   0.882  -1.668  0.00  0.00    -0.083 Cl
ENDBRANCH   4   6
ENDBRANCH   1   2
BRANCH   1  14
ATOM     14  S   UNL     1      -2.967   7.987  -0.264  0.00  0.00    -0.096 S 
BRANCH  14  18
ATOM     15  C   UNL     1      -4.651  12.936  -0.671  0.00  0.00    +0.066 C 
ATOM     16  C   UNL     1      -3.503  11.965  -0.563  0.00  0.00    +0.045 A 
ATOM     17  C   UNL     1      -3.758  10.600  -0.475  0.00  0.00    +0.058 A 
ATOM     18  C   UNL     1      -2.693   9.723  -0.377  0.00  0.00    +0.104 A 
ATOM     19  N   UNL     1      -1.425  10.231  -0.363  0.00  0.00    -0.190 N 
ATOM     20  C   UNL     1      -1.224  11.580  -0.457  0.00  0.00    +0.254 A 
ATOM     21  N   UNL     1      -2.265  12.415  -0.552  0.00  0.00    -0.216 NA
ATOM     22  N   UNL     1       0.088  11.783  -0.426  0.00  0.00    -0.197 NA
ATOM     23  C   UNL     1       0.720  10.622  -0.306  0.00  0.00    +0.247 A 
ATOM     24  N   UNL     1      -0.156   9.647  -0.271  0.00  0.00    -0.151 NA
ENDBRANCH  14  18
ENDBRANCH   1  14
TORSDOF 4
