REMARK  Name = ZINC39931245
REMARK  4 active torsions:
REMARK  status: ('A' for Active; 'I' for Inactive)
REMARK    1  A    between atoms: C_6  and  C_7
REMARK    2  A    between atoms: C_7  and  N_8
REMARK    3  A    between atoms: C_16  and  C_21
REMARK    4  A    between atoms: N_23  and  C_24
REMARK                            x       y       z     vdW  Elec       q    Type
REMARK                         _______ _______ _______ _____ _____    ______ ____
ROOT
ATOM      1  N   UNL     1      -1.327  -1.073  -1.291  0.00  0.00    -0.282 N 
ATOM      2  C   UNL     1      -1.817  -0.010  -1.890  0.00  0.00    +0.217 C 
ATOM      3  O   UNL     1      -1.752   1.037  -1.282  0.00  0.00    -0.276 OA
ATOM      4  C   UNL     1      -2.431   0.037  -3.217  0.00  0.00    +0.106 C 
ATOM      5  C   UNL     1      -3.086  -1.218  -3.774  0.00  0.00    +0.078 C 
ATOM      6  S   UNL     1      -3.875  -2.174  -2.440  0.00  0.00    -0.154 S 
ATOM      7  C   UNL     1      -2.512  -3.149  -1.727  0.00  0.00    +0.079 C 
ATOM      8  C   UNL     1      -1.203  -2.392  -1.869  0.00  0.00    +0.125 C 
ATOM      9  C   UNL     1      -0.064  -3.186  -1.228  0.00  0.00    +0.036 C 
ATOM     10  C   UNL     1       0.055  -4.541  -1.931  0.00  0.00    +0.003 C 
ATOM     11  C   UNL     1      -1.262  -5.309  -1.806  0.00  0.00    +0.001 C 
ATOM     12  C   UNL     1      -2.411  -4.499  -2.438  0.00  0.00    +0.017 C 
ENDROOT
BRANCH   8  13
ATOM     13  C   UNL     1      -0.896  -2.241  -3.337  0.00  0.00    +0.238 C 
ATOM     14  O   UNL     1      -1.193  -3.125  -4.113  0.00  0.00    -0.273 OA
ATOM     15  N   UNL     1      -0.291  -1.124  -3.788  0.00  0.00    -0.311 N 
ATOM     16  H   UNL     1      -0.053  -0.417  -3.167  0.00  0.00    +0.149 HD
BRANCH  15  17
ATOM     17  C   UNL     1       0.007  -0.978  -5.215  0.00  0.00    +0.073 C 
ATOM     18  C   UNL     1       1.345  -1.652  -5.528  0.00  0.00    +0.022 C 
ATOM     19  C   UNL     1       1.656  -1.499  -7.018  0.00  0.00    +0.002 C 
ATOM     20  C   UNL     1       1.739  -0.012  -7.372  0.00  0.00    +0.000 C 
ATOM     21  C   UNL     1       0.402   0.662  -7.058  0.00  0.00    +0.002 C 
ATOM     22  C   UNL     1       0.090   0.509  -5.568  0.00  0.00    +0.022 C 
ENDBRANCH  15  17
ENDBRANCH   8  13
BRANCH   1  23
ATOM     23  C   UNL     1      -0.860  -0.904   0.087  0.00  0.00    +0.144 C 
BRANCH  23  29
ATOM     24  C   UNL     1      -2.189  -2.376   1.613  0.00  0.00    +0.009 A 
ATOM     25  C   UNL     1      -3.240  -2.590   2.486  0.00  0.00    +0.050 A 
ATOM     26  C   UNL     1      -4.113  -1.558   2.786  0.00  0.00    +0.166 A 
ATOM     27  C   UNL     1      -3.929  -0.304   2.207  0.00  0.00    +0.167 A 
ATOM     28  C   UNL     1      -2.875  -0.097   1.333  0.00  0.00    +0.054 A 
ATOM     29  C   UNL     1      -2.007  -1.132   1.038  0.00  0.00    -0.026 A 
ATOM     30  O   UNL     1      -4.909   0.532   2.657  0.00  0.00    -0.453 OA
ATOM     31  C   UNL     1      -5.931  -0.328   3.196  0.00  0.00    +0.466 C 
ATOM     32  O   UNL     1      -5.208  -1.506   3.599  0.00  0.00    -0.453 OA
ENDBRANCH  23  29
ENDBRANCH   1  23
TORSDOF 4
