REMARK  Name = ZINC59819206
REMARK  9 active torsions:
REMARK  status: ('A' for Active; 'I' for Inactive)
REMARK    1  A    between atoms: C_1  and  C_2
REMARK    2  A    between atoms: C_2  and  C_4
REMARK    3  A    between atoms: C_2  and  S_10
REMARK    4  A    between atoms: N_6  and  C_7
REMARK    5  A    between atoms: C_7  and  C_8
REMARK    6  A    between atoms: S_10  and  C_11
REMARK    7  A    between atoms: N_16  and  N_17
REMARK    8  A    between atoms: C_18  and  C_19
REMARK    9  A    between atoms: C_24  and  O_25
REMARK                            x       y       z     vdW  Elec       q    Type
REMARK                         _______ _______ _______ _____ _____    ______ ____
ROOT
ATOM      1  C   UNL     1       2.533  -0.042   1.241  0.00  0.00    +0.211 A 
ATOM      2  N   UNL     1       3.551  -0.257   2.081  0.00  0.00    -0.186 NA
ATOM      3  C   UNL     1       4.644   0.300   1.603  0.00  0.00    +0.232 A 
ATOM      4  N   UNL     1       4.333   0.890   0.429  0.00  0.00    -0.245 N 
ATOM      5  N   UNL     1       2.966   0.650   0.214  0.00  0.00    -0.144 NA
ATOM      6  N   UNL     1       5.892   0.285   2.199  0.00  0.00    -0.205 N 
ATOM      7  H   UNL     1       6.641   0.727   1.769  0.00  0.00    +0.177 HD
ATOM      8  H   UNL     1       4.935   1.379  -0.153  0.00  0.00    +0.192 HD
ENDROOT
BRANCH   6   9
ATOM      9  N   UNL     1       6.074  -0.367   3.426  0.00  0.00    -0.187 NA
ATOM     10  C   UNL     1       7.245  -0.381   3.986  0.00  0.00    +0.142 C 
BRANCH  10  11
ATOM     11  C   UNL     1       7.437  -1.068   5.276  0.00  0.00    +0.038 A 
ATOM     12  C   UNL     1       8.694  -1.080   5.884  0.00  0.00    +0.028 A 
ATOM     13  C   UNL     1       8.868  -1.725   7.092  0.00  0.00    +0.020 A 
ATOM     14  C   UNL     1       7.799  -2.360   7.704  0.00  0.00    +0.034 A 
ATOM     15  C   UNL     1       6.550  -2.354   7.111  0.00  0.00    +0.061 A 
ATOM     16  C   UNL     1       6.358  -1.706   5.901  0.00  0.00    +0.139 A 
ATOM     17 BR   UNL     1       5.100  -3.225   7.956  0.00  0.00    -0.046 Br
ATOM     18 BR   UNL     1      10.570  -1.741   7.915  0.00  0.00    -0.050 Br
BRANCH  16  19
ATOM     19  O   UNL     1       5.130  -1.695   5.321  0.00  0.00    -0.505 OA
ATOM     20  H   UNL     1       4.969  -2.440   4.726  0.00  0.00    +0.292 HD
ENDBRANCH  16  19
ENDBRANCH  10  11
ENDBRANCH   6   9
BRANCH   1  21
ATOM     21  S   UNL     1       0.879  -0.605   1.472  0.00  0.00    -0.072 S 
BRANCH  21  23
ATOM     22  C   UNL     1      -0.019   1.526   0.010  0.00  0.00    +0.029 C 
ATOM     23  C   UNL     1       0.002  -0.004   0.002  0.00  0.00    +0.137 C 
BRANCH  23  24
ATOM     24  C   UNL     1      -1.412  -0.526   0.013  0.00  0.00    +0.226 C 
ATOM     25  O   UNL     1      -1.939  -0.827   1.062  0.00  0.00    -0.275 OA
ATOM     26  N   UNL     1      -2.090  -0.657  -1.144  0.00  0.00    -0.311 N 
ATOM     27  H   UNL     1      -1.669  -0.416  -1.984  0.00  0.00    +0.149 HD
BRANCH  26  28
ATOM     28  C   UNL     1      -3.465  -1.164  -1.134  0.00  0.00    +0.131 C 
BRANCH  28  29
ATOM     29  C   UNL     1      -3.992  -1.214  -2.545  0.00  0.00    -0.016 C 
ATOM     30  C   UNL     1      -4.469  -2.336  -3.026  0.00  0.00    +0.005 C 
ENDBRANCH  28  29
ENDBRANCH  26  28
ENDBRANCH  23  24
ENDBRANCH  21  23
ENDBRANCH   1  21
TORSDOF 8
