REMARK  Name = ZINC14957641
REMARK  10 active torsions:
REMARK  status: ('A' for Active; 'I' for Inactive)
REMARK    1  A    between atoms: C_1  and  C_2
REMARK    2  A    between atoms: C_3  and  C_7
REMARK    3  A    between atoms: C_7  and  N_8
REMARK    4  A    between atoms: N_8  and  C_9
REMARK    5  A    between atoms: C_10  and  C_12
REMARK    6  A    between atoms: C_12  and  C_13
REMARK    7  A    between atoms: N_20  and  C_21
REMARK    8  A    between atoms: C_21  and  C_22
REMARK    9  A    between atoms: C_22  and  C_23
REMARK   10  A    between atoms: C_22  and  C_29
REMARK                            x       y       z     vdW  Elec       q    Type
REMARK                         _______ _______ _______ _____ _____    ______ ____
ROOT
ATOM      1  C   UNL     1       4.069   1.087  -2.685  0.00  0.00    +0.152 C 
ATOM      2  C   UNL     1       5.168   1.287  -3.690  0.00  0.00    +0.231 C 
ATOM      3  O   UNL     1       5.593   0.321  -4.287  0.00  0.00    -0.274 OA
ATOM      4  N   UNL     1       5.697   2.487  -3.953  0.00  0.00    -0.313 N 
ATOM      5  C   UNL     1       5.282   3.706  -3.265  0.00  0.00    +0.119 C 
ATOM      6  C   UNL     1       3.924   3.492  -2.594  0.00  0.00    +0.104 C 
ATOM      7  N   UNL     1       3.982   2.255  -1.799  0.00  0.00    -0.289 NA
ATOM      8  H   UNL     1       6.388   2.550  -4.631  0.00  0.00    +0.149 HD
ENDROOT
BRANCH   1   9
ATOM      9  C   UNL     1       4.364  -0.162  -1.852  0.00  0.00    +0.124 C 
BRANCH   9  12
ATOM     10  N   UNL     1       6.179  -0.992  -0.391  0.00  0.00    -0.298 N 
ATOM     11  C   UNL     1       5.418  -2.233  -0.225  0.00  0.00    +0.132 C 
ATOM     12  C   UNL     1       5.665   0.023  -1.114  0.00  0.00    +0.218 C 
ATOM     13  O   UNL     1       6.249   1.084  -1.171  0.00  0.00    -0.276 OA
BRANCH  10  14
ATOM     14  C   UNL     1       7.498  -0.853   0.231  0.00  0.00    +0.168 C 
BRANCH  14  17
ATOM     15  C   UNL     1       9.085   0.758  -1.964  0.00  0.00    +0.071 C 
ATOM     16  C   UNL     1       9.258  -0.709  -1.665  0.00  0.00    +0.106 A 
ATOM     17  C   UNL     1       8.548  -1.430  -0.684  0.00  0.00    +0.124 A 
ATOM     18  N   UNL     1       8.939  -2.669  -0.692  0.00  0.00    -0.052 NA
ATOM     19  O   UNL     1       9.933  -2.795  -1.696  0.00  0.00    -0.242 OA
ATOM     20  N   UNL     1      10.080  -1.508  -2.277  0.00  0.00    -0.054 NA
ENDBRANCH  14  17
ENDBRANCH  10  14
ENDBRANCH   9  12
ENDBRANCH   1   9
BRANCH   7  21
ATOM     21  C   UNL     1       2.822   2.152  -0.904  0.00  0.00    +0.098 C 
BRANCH  21  22
ATOM     22  C   UNL     1       3.079   2.974   0.361  0.00  0.00    +0.063 C 
BRANCH  22  23
ATOM     23  C   UNL     1       3.124   4.438   0.008  0.00  0.00    -0.039 A 
ATOM     24  C   UNL     1       2.031   5.040  -0.588  0.00  0.00    +0.004 A 
ATOM     25  C   UNL     1       2.073   6.383  -0.912  0.00  0.00    +0.000 A 
ATOM     26  C   UNL     1       3.207   7.125  -0.640  0.00  0.00    +0.000 A 
ATOM     27  C   UNL     1       4.300   6.523  -0.043  0.00  0.00    +0.000 A 
ATOM     28  C   UNL     1       4.256   5.181   0.284  0.00  0.00    +0.004 A 
ENDBRANCH  22  23
BRANCH  22  29
ATOM     29  C   UNL     1       1.970   2.730   1.352  0.00  0.00    -0.039 A 
ATOM     30  C   UNL     1       2.272   2.400   2.660  0.00  0.00    +0.004 A 
ATOM     31  C   UNL     1       1.255   2.177   3.569  0.00  0.00    +0.000 A 
ATOM     32  C   UNL     1      -0.064   2.284   3.170  0.00  0.00    +0.000 A 
ATOM     33  C   UNL     1      -0.366   2.614   1.863  0.00  0.00    +0.000 A 
ATOM     34  C   UNL     1       0.651   2.842   0.955  0.00  0.00    +0.004 A 
ENDBRANCH  22  29
ENDBRANCH  21  22
ENDBRANCH   7  21
TORSDOF 8
