REMARK  Name = ZINC36220423
REMARK  9 active torsions:
REMARK  status: ('A' for Active; 'I' for Inactive)
REMARK    1  A    between atoms: C_1  and  C_2
REMARK    2  A    between atoms: C_2  and  O_3
REMARK    3  A    between atoms: O_3  and  C_4
REMARK    4  A    between atoms: C_4  and  C_6
REMARK    5  A    between atoms: C_6  and  C_7
REMARK    6  A    between atoms: C_13  and  C_15
REMARK    7  A    between atoms: C_15  and  S_16
REMARK    8  A    between atoms: S_16  and  C_17
REMARK    9  A    between atoms: C_27  and  C_31
REMARK                            x       y       z     vdW  Elec       q    Type
REMARK                         _______ _______ _______ _____ _____    ______ ____
ROOT
ATOM      1  S   UNL     1       2.095 -10.654   0.299  0.00  0.00    -0.077 S 
ENDROOT
BRANCH   1   2
ATOM      2  C   UNL     1       2.923 -11.565   1.559  0.00  0.00    +0.191 A 
ATOM      3  N   UNL     1       3.435 -10.920   2.601  0.00  0.00    -0.207 NA
ATOM      4  C   UNL     1       4.067 -11.549   3.577  0.00  0.00    +0.129 A 
ATOM      5  C   UNL     1       4.207 -12.964   3.515  0.00  0.00    +0.051 A 
ATOM      6  C   UNL     1       4.862 -13.861   4.470  0.00  0.00    -0.025 A 
ATOM      7  C   UNL     1       4.858 -15.176   4.176  0.00  0.00    -0.004 A 
ATOM      8  S   UNL     1       3.994 -15.303   2.633  0.00  0.00    -0.073 S 
ATOM      9  C   UNL     1       3.640 -13.582   2.384  0.00  0.00    +0.115 A 
ATOM     10  N   UNL     1       3.019 -12.884   1.452  0.00  0.00    -0.214 NA
ATOM     11  C   UNL     1       5.456 -16.289   4.982  0.00  0.00    +0.046 C 
ATOM     12  C   UNL     1       6.408 -15.678   6.020  0.00  0.00    -0.009 C 
ATOM     13  C   UNL     1       5.693 -14.518   6.719  0.00  0.00    +0.008 C 
ATOM     14  C   UNL     1       5.527 -13.350   5.746  0.00  0.00    +0.037 C 
ATOM     15  C   UNL     1       6.795 -16.741   7.050  0.00  0.00    +0.008 C 
ATOM     16  N   UNL     1       4.586 -10.841   4.645  0.00  0.00    -0.343 N 
ATOM     17  H   UNL     1       4.295  -9.930   4.810  0.00  0.00    +0.144 HD
ATOM     18  H   UNL     1       5.241 -11.254   5.229  0.00  0.00    +0.144 HD
ENDBRANCH   1   2
BRANCH   1  19
ATOM     19  C   UNL     1       2.209  -8.932   0.856  0.00  0.00    +0.173 C 
BRANCH  19  26
ATOM     20  C   UNL     1       0.100  -3.920  -1.793  0.00  0.00    +0.061 A 
ATOM     21  C   UNL     1      -0.395  -4.663  -2.813  0.00  0.00    +0.072 A 
ATOM     22  S   UNL     1       0.094  -6.301  -2.298  0.00  0.00    -0.060 S 
ATOM     23  C   UNL     1       0.863  -5.874  -0.863  0.00  0.00    +0.165 A 
ATOM     24  N   UNL     1       0.732  -4.566  -0.831  0.00  0.00    -0.229 NA
ATOM     25  N   UNL     1       1.490  -6.702   0.061  0.00  0.00    -0.264 N 
ATOM     26  C   UNL     1       1.530  -8.034  -0.146  0.00  0.00    +0.229 C 
ATOM     27  O   UNL     1       1.020  -8.509  -1.138  0.00  0.00    -0.275 OA
ATOM     28  H   UNL     1       1.897  -6.322   0.855  0.00  0.00    +0.157 HD
BRANCH  20  29
ATOM     29  C   UNL     1      -0.060  -2.421  -1.762  0.00  0.00    +0.176 C 
BRANCH  29  30
ATOM     30  C   UNL     1      -0.712  -2.013  -0.466  0.00  0.00    +0.313 C 
ATOM     31  O   UNL     1      -1.015  -2.852   0.349  0.00  0.00    -0.250 OA
BRANCH  30  32
ATOM     32  O   UNL     1      -0.955  -0.716  -0.217  0.00  0.00    -0.465 OA
BRANCH  32  34
ATOM     33  C   UNL     1      -1.770   1.113   1.136  0.00  0.00    +0.048 C 
ATOM     34  C   UNL     1      -1.575  -0.401   1.032  0.00  0.00    +0.229 C 
ENDBRANCH  32  34
ENDBRANCH  30  32
ENDBRANCH  29  30
ENDBRANCH  20  29
ENDBRANCH  19  26
ENDBRANCH   1  19
TORSDOF 7
