REMARK  Name = ZINC64338125
REMARK  10 active torsions:
REMARK  status: ('A' for Active; 'I' for Inactive)
REMARK    1  A    between atoms: C_1  and  C_2
REMARK    2  A    between atoms: C_4  and  C_12
REMARK    3  A    between atoms: C_18  and  C_20
REMARK    4  A    between atoms: C_20  and  C_22
REMARK    5  A    between atoms: C_20  and  N_25
REMARK    6  A    between atoms: C_22  and  C_23
REMARK    7  A    between atoms: C_22  and  C_24
REMARK    8  A    between atoms: C_26  and  C_28
REMARK    9  A    between atoms: C_31  and  O_34
REMARK   10  A    between atoms: O_34  and  C_35
REMARK                            x       y       z     vdW  Elec       q    Type
REMARK                         _______ _______ _______ _____ _____    ______ ____
ROOT
ATOM      1  C   UNL     1      -0.068  -0.895  -2.616  0.00  0.00    +0.079 A 
ATOM      2  C   UNL     1       0.988  -0.932  -3.517  0.00  0.00    +0.076 A 
ATOM      3  S   UNL     1       0.338  -0.170  -4.869  0.00  0.00    -0.060 S 
ATOM      4  C   UNL     1      -1.288   0.173  -4.221  0.00  0.00    +0.165 A 
ATOM      5  N   UNL     1      -1.216  -0.329  -3.007  0.00  0.00    -0.225 NA
ATOM      6  N   UNL     1      -2.356   0.805  -4.840  0.00  0.00    -0.263 N 
ATOM      7  C   UNL     1      -2.234   1.251  -6.106  0.00  0.00    +0.239 C 
ATOM      8  O   UNL     1      -1.226   1.014  -6.738  0.00  0.00    -0.273 OA
ATOM      9  H   UNL     1      -3.192   0.926  -4.362  0.00  0.00    +0.157 HD
ENDROOT
BRANCH   1  12
ATOM     10  C   UNL     1       1.464  -3.492  -1.599  0.00  0.00    +0.035 C 
ATOM     11  C   UNL     1       1.241  -2.222  -0.775  0.00  0.00    +0.109 C 
ATOM     12  C   UNL     1       0.064  -1.446  -1.323  0.00  0.00    +0.009 C 
ATOM     13  C   UNL     1      -0.862  -1.387  -0.285  0.00  0.00    +0.005 A 
ATOM     14  C   UNL     1      -2.144  -0.804  -0.182  0.00  0.00    +0.010 A 
ATOM     15  C   UNL     1      -2.839  -0.904   0.980  0.00  0.00    +0.001 A 
ATOM     16  C   UNL     1      -2.316  -1.574   2.089  0.00  0.00    +0.002 A 
ATOM     17  C   UNL     1      -1.093  -2.157   2.062  0.00  0.00    +0.026 A 
ATOM     18  C   UNL     1      -0.308  -2.095   0.881  0.00  0.00    +0.043 A 
ATOM     19  N   UNL     1       0.892  -2.571   0.605  0.00  0.00    -0.377 N 
ATOM     20  H   UNL     1       1.453  -3.072   1.217  0.00  0.00    +0.160 HD
ENDBRANCH   1  12
BRANCH   7  21
ATOM     21  C   UNL     1      -3.349   2.044  -6.737  0.00  0.00    +0.162 C 
BRANCH  21  22
ATOM     22  N   UNL     1      -3.297   1.887  -8.193  0.00  0.00    -0.300 N 
ATOM     23  C   UNL     1      -4.414   2.053  -8.929  0.00  0.00    +0.245 C 
ATOM     24  O   UNL     1      -5.465   2.332  -8.385  0.00  0.00    -0.270 OA
ATOM     25  H   UNL     1      -2.459   1.664  -8.627  0.00  0.00    +0.150 HD
BRANCH  23  26
ATOM     26  C   UNL     1      -4.362   1.895 -10.395  0.00  0.00    +0.037 A 
ATOM     27  C   UNL     1      -3.156   1.568 -11.022  0.00  0.00    +0.016 A 
ATOM     28  C   UNL     1      -3.111   1.421 -12.390  0.00  0.00    +0.046 A 
ATOM     29  C   UNL     1      -4.263   1.598 -13.148  0.00  0.00    +0.120 A 
ATOM     30  C   UNL     1      -5.464   1.923 -12.529  0.00  0.00    +0.046 A 
ATOM     31  C   UNL     1      -5.518   2.066 -11.160  0.00  0.00    +0.016 A 
BRANCH  29  32
ATOM     32  O   UNL     1      -4.214   1.453 -14.497  0.00  0.00    -0.495 OA
ATOM     33  C   UNL     1      -5.434   1.649 -15.215  0.00  0.00    +0.277 C 
ENDBRANCH  29  32
ENDBRANCH  23  26
ENDBRANCH  21  22
BRANCH  21  34
ATOM     34  C   UNL     1      -3.191   3.522  -6.377  0.00  0.00    +0.012 C 
ATOM     35  C   UNL     1      -4.264   4.340  -7.098  0.00  0.00    +0.009 C 
ATOM     36  C   UNL     1      -3.345   3.699  -4.865  0.00  0.00    +0.009 C 
ENDBRANCH  21  34
ENDBRANCH   7  21
TORSDOF 6
