REMARK  Name = ZINC02420731
REMARK  9 active torsions:
REMARK  status: ('A' for Active; 'I' for Inactive)
REMARK    1  A    between atoms: C_1  and  C_2
REMARK    2  A    between atoms: C_2  and  C_3
REMARK    3  A    between atoms: C_2  and  S_4
REMARK    4  A    between atoms: S_4  and  C_5
REMARK    5  A    between atoms: C_14  and  C_16
REMARK    6  A    between atoms: C_14  and  C_17
REMARK    7  A    between atoms: C_18  and  S_20
REMARK    8  A    between atoms: S_20  and  C_21
REMARK    9  A    between atoms: C_21  and  C_22
REMARK                            x       y       z     vdW  Elec       q    Type
REMARK                         _______ _______ _______ _____ _____    ______ ____
ROOT
ATOM      1  C   UNL     1       0.002  -0.004   0.002  0.00  0.00    +0.191 A 
ATOM      2  N   UNL     1      -0.016   1.323   0.009  0.00  0.00    -0.215 NA
ATOM      3  C   UNL     1       1.114   2.003   0.002  0.00  0.00    +0.114 A 
ATOM      4  C   UNL     1       2.366   1.356  -0.013  0.00  0.00    +0.043 A 
ATOM      5  C   UNL     1       3.534   2.236  -0.019  0.00  0.00    -0.020 A 
ATOM      6  C   UNL     1       3.301   3.566  -0.011  0.00  0.00    +0.021 A 
ATOM      7  S   UNL     1       1.539   3.726   0.005  0.00  0.00    -0.071 S 
ATOM      8  C   UNL     1       4.338   4.646  -0.016  0.00  0.00    +0.203 C 
ATOM      9  O   UNL     1       5.606   4.043   0.290  0.00  0.00    -0.368 OA
ATOM     10  C   UNL     1       5.881   2.871  -0.481  0.00  0.00    +0.068 C 
ATOM     11  C   UNL     1       4.971   1.722  -0.036  0.00  0.00    +0.071 C 
ATOM     12  C   UNL     1       5.635   3.169  -1.962  0.00  0.00    +0.041 C 
ATOM     13  C   UNL     1       7.342   2.464  -0.282  0.00  0.00    +0.041 C 
ATOM     14  C   UNL     1       2.321  -0.067  -0.020  0.00  0.00    +0.110 A 
ATOM     15  N   UNL     1       1.146  -0.677  -0.012  0.00  0.00    -0.215 NA
ENDROOT
BRANCH   1  16
ATOM     16  S   UNL     1      -1.521  -0.889   0.011  0.00  0.00    -0.083 S 
BRANCH  16  18
ATOM     17  C   UNL     1      -2.563   1.284  -1.276  0.00  0.00    +0.019 C 
ATOM     18  C   UNL     1      -2.689   0.494   0.028  0.00  0.00    +0.048 C 
ATOM     19  C   UNL     1      -4.115  -0.044   0.164  0.00  0.00    +0.019 C 
ENDBRANCH  16  18
ENDBRANCH   1  16
BRANCH  14  20
ATOM     20  S   UNL     1       3.812  -1.006  -0.038  0.00  0.00    -0.100 S 
BRANCH  20  21
ATOM     21  C   UNL     1       3.128  -2.682  -0.042  0.00  0.00    +0.114 C 
BRANCH  21  22
ATOM     22  C   UNL     1       4.253  -3.684  -0.058  0.00  0.00    -0.001 A 
ATOM     23  C   UNL     1       4.755  -4.141  -1.263  0.00  0.00    +0.046 A 
ATOM     24  C   UNL     1       5.792  -5.058  -1.277  0.00  0.00    +0.020 A 
ATOM     25  C   UNL     1       6.319  -5.523  -0.087  0.00  0.00    +0.003 A 
ATOM     26  C   UNL     1       5.814  -5.071   1.118  0.00  0.00    +0.020 A 
ATOM     27  C   UNL     1       4.781  -4.150   1.133  0.00  0.00    +0.046 A 
ATOM     28 CL   UNL     1       4.147  -3.582   2.646  0.00  0.00    -0.083 Cl
ATOM     29 CL   UNL     1       4.088  -3.562  -2.757  0.00  0.00    -0.083 Cl
ENDBRANCH  21  22
ENDBRANCH  20  21
ENDBRANCH  14  20
TORSDOF 5
