REMARK  Name = ZINC02422724
REMARK  8 active torsions:
REMARK  status: ('A' for Active; 'I' for Inactive)
REMARK    1  A    between atoms: C_1  and  C_2
REMARK    2  A    between atoms: C_5  and  N_8
REMARK    3  A    between atoms: C_9  and  C_11
REMARK    4  A    between atoms: C_11  and  C_32
REMARK    5  A    between atoms: C_12  and  C_13
REMARK    6  A    between atoms: C_14  and  O_24
REMARK    7  A    between atoms: O_24  and  C_25
REMARK    8  A    between atoms: C_30  and  C_31
REMARK                            x       y       z     vdW  Elec       q    Type
REMARK                         _______ _______ _______ _____ _____    ______ ____
ROOT
ATOM      1  C   UNL     1       3.285  -6.264   0.231  0.00  0.00    +0.103 A 
ATOM      2  C   UNL     1       4.418  -7.113   0.202  0.00  0.00    +0.235 A 
ATOM      3  N   UNL     1       4.255  -8.422   0.288  0.00  0.00    -0.194 NA
ATOM      4  C   UNL     1       3.044  -8.973   0.403  0.00  0.00    +0.144 A 
ATOM      5  C   UNL     1       2.936 -10.371   0.490  0.00  0.00    +0.047 A 
ATOM      6  C   UNL     1       1.704 -10.944   0.608  0.00  0.00    +0.005 A 
ATOM      7  C   UNL     1       0.564 -10.131   0.640  0.00  0.00    +0.018 A 
ATOM      8  C   UNL     1       0.688  -8.787   0.555  0.00  0.00    +0.096 A 
ATOM      9  N   UNL     1       1.914  -8.205   0.437  0.00  0.00    -0.268 N 
ATOM     10  C   UNL     1       2.002  -6.860   0.359  0.00  0.00    +0.269 A 
ATOM     11  O   UNL     1       0.999  -6.170   0.394  0.00  0.00    -0.266 OA
ENDROOT
BRANCH   1  13
ATOM     12  C   UNL     1       4.189  -4.186   1.081  0.00  0.00    +0.114 C 
ATOM     13  C   UNL     1       3.427  -4.868   0.142  0.00  0.00    +0.042 C 
BRANCH  12  15
ATOM     14  N   UNL     1       5.022  -2.062   1.939  0.00  0.00    -0.281 N 
ATOM     15  C   UNL     1       4.283  -2.724   1.027  0.00  0.00    +0.259 C 
ATOM     16  O   UNL     1       3.693  -2.108   0.159  0.00  0.00    -0.269 OA
ATOM     17  H   UNL     1       5.553  -2.556   2.584  0.00  0.00    +0.155 HD
BRANCH  14  22
ATOM     18  C   UNL     1       5.034   3.610   2.006  0.00  0.00    +0.044 C 
ATOM     19  C   UNL     1       5.030   2.103   1.988  0.00  0.00    -0.050 A 
ATOM     20  C   UNL     1       3.925   1.421   1.513  0.00  0.00    +0.005 A 
ATOM     21  C   UNL     1       3.920   0.040   1.495  0.00  0.00    +0.023 A 
ATOM     22  C   UNL     1       5.025  -0.664   1.955  0.00  0.00    +0.034 A 
ATOM     23  C   UNL     1       6.134   0.025   2.432  0.00  0.00    +0.023 A 
ATOM     24  C   UNL     1       6.133   1.405   2.447  0.00  0.00    +0.005 A 
ENDBRANCH  14  22
ENDBRANCH  12  15
BRANCH  12  25
ATOM     25  C   UNL     1       4.882  -4.911   2.103  0.00  0.00    +0.104 C 
ATOM     26  N   UNL     1       5.433  -5.486   2.913  0.00  0.00    -0.191 NA
ENDBRANCH  12  25
ENDBRANCH   1  13
BRANCH   2  27
ATOM     27  O   UNL     1       5.659  -6.588   0.086  0.00  0.00    -0.437 OA
BRANCH  27  28
ATOM     28  C   UNL     1       6.704  -7.446  -0.049  0.00  0.00    +0.133 A 
ATOM     29  C   UNL     1       7.401  -7.875   1.073  0.00  0.00    +0.046 A 
ATOM     30  C   UNL     1       8.460  -8.750   0.933  0.00  0.00    +0.004 A 
ATOM     31  C   UNL     1       8.834  -9.191  -0.324  0.00  0.00    +0.000 A 
ATOM     32  C   UNL     1       8.145  -8.761  -1.442  0.00  0.00    +0.007 A 
ATOM     33  C   UNL     1       7.081  -7.889  -1.308  0.00  0.00    -0.008 A 
ATOM     34  C   UNL     1       6.331  -7.421  -2.528  0.00  0.00    +0.047 C 
ENDBRANCH  27  28
ENDBRANCH   2  27
TORSDOF 6
