REMARK  Name = ZINC12603071
REMARK  7 active torsions:
REMARK  status: ('A' for Active; 'I' for Inactive)
REMARK    1  A    between atoms: C_1  and  O_2
REMARK    2  A    between atoms: O_2  and  C_3
REMARK    3  A    between atoms: C_3  and  C_5
REMARK    4  A    between atoms: C_21  and  C_35
REMARK    5  A    between atoms: C_24  and  N_27
REMARK    6  A    between atoms: N_27  and  C_28
REMARK    7  A    between atoms: C_28  and  C_29
REMARK                            x       y       z     vdW  Elec       q    Type
REMARK                         _______ _______ _______ _____ _____    ______ ____
ROOT
ATOM      1  C   UNL     1       0.679  -2.115   1.088  0.00  0.00    +0.172 C 
ATOM      2  C   UNL     1      -0.741  -2.679   1.249  0.00  0.00    +0.068 C 
ATOM      3  C   UNL     1      -1.213  -2.373   2.648  0.00  0.00    -0.016 A 
ATOM      4  C   UNL     1      -2.552  -2.410   3.191  0.00  0.00    +0.003 A 
ATOM      5  C   UNL     1      -3.796  -2.724   2.633  0.00  0.00    +0.010 A 
ATOM      6  C   UNL     1      -4.886  -2.651   3.465  0.00  0.00    +0.001 A 
ATOM      7  C   UNL     1      -4.773  -2.285   4.796  0.00  0.00    +0.002 A 
ATOM      8  C   UNL     1      -3.556  -1.969   5.374  0.00  0.00    +0.026 A 
ATOM      9  C   UNL     1      -2.431  -2.034   4.554  0.00  0.00    +0.047 A 
ATOM     10  N   UNL     1      -1.109  -1.791   4.794  0.00  0.00    -0.356 N 
ATOM     11  H   UNL     1      -0.738  -1.516   5.647  0.00  0.00    +0.166 HD
ATOM     12  C   UNL     1      -0.386  -1.993   3.650  0.00  0.00    +0.038 A 
ATOM     13  C   UNL     1       1.103  -1.834   3.466  0.00  0.00    +0.103 C 
ATOM     14  N   UNL     1       1.500  -2.527   2.232  0.00  0.00    -0.274 NA
ATOM     15  C   UNL     1       2.932  -2.345   1.966  0.00  0.00    +0.087 C 
ATOM     16  C   UNL     1       3.741  -2.966   3.108  0.00  0.00    +0.008 C 
ATOM     17  C   UNL     1       3.353  -2.302   4.431  0.00  0.00    -0.068 C 
ATOM     18  C   UNL     1       1.844  -2.445   4.656  0.00  0.00    +0.009 C 
ENDROOT
BRANCH  15  19
ATOM     19  C   UNL     1       3.293  -3.019   0.668  0.00  0.00    -0.030 A 
ATOM     20  C   UNL     1       2.736  -4.242   0.346  0.00  0.00    +0.005 A 
ATOM     21  C   UNL     1       3.067  -4.861  -0.845  0.00  0.00    +0.000 A 
ATOM     22  C   UNL     1       3.955  -4.255  -1.715  0.00  0.00    +0.000 A 
ATOM     23  C   UNL     1       4.511  -3.031  -1.393  0.00  0.00    +0.000 A 
ATOM     24  C   UNL     1       4.177  -2.411  -0.204  0.00  0.00    +0.005 A 
ENDBRANCH  15  19
BRANCH  17  25
ATOM     25  N   UNL     1       4.077  -2.946   5.535  0.00  0.00    +0.384 N 
ATOM     26  H   UNL     1       3.760  -2.564   6.413  0.00  0.00    -0.085 HD
ATOM     27  H   UNL     1       3.902  -3.940   5.517  0.00  0.00    -0.085 HD
BRANCH  25  28
ATOM     28  C   UNL     1       5.518  -2.700   5.385  0.00  0.00    -0.046 C 
BRANCH  28  29
ATOM     29  C   UNL     1       6.261  -3.361   6.517  0.00  0.00    -0.064 A 
ATOM     30  C   UNL     1       6.494  -2.667   7.689  0.00  0.00    +0.002 A 
ATOM     31  C   UNL     1       7.176  -3.273   8.727  0.00  0.00    +0.000 A 
ATOM     32  C   UNL     1       7.624  -4.574   8.594  0.00  0.00    +0.000 A 
ATOM     33  C   UNL     1       7.390  -5.269   7.422  0.00  0.00    +0.000 A 
ATOM     34  C   UNL     1       6.704  -4.664   6.385  0.00  0.00    +0.002 A 
ENDBRANCH  28  29
ENDBRANCH  25  28
ENDBRANCH  17  25
BRANCH   1  35
ATOM     35  C   UNL     1       0.618  -0.611   1.029  0.00  0.00    +0.325 C 
ATOM     36  O   UNL     1       1.355   0.051   1.721  0.00  0.00    -0.249 OA
BRANCH  35  38
ATOM     37  C   UNL     1      -0.257   1.423   0.201  0.00  0.00    +0.280 C 
ATOM     38  O   UNL     1      -0.254  -0.006   0.207  0.00  0.00    -0.467 OA
ENDBRANCH  35  38
ENDBRANCH   1  35
TORSDOF 6
