REMARK  Name = ZINC39677730
REMARK  9 active torsions:
REMARK  status: ('A' for Active; 'I' for Inactive)
REMARK    1  A    between atoms: C_1  and  C_2
REMARK    2  A    between atoms: C_2  and  C_3
REMARK    3  A    between atoms: C_3  and  C_5
REMARK    4  A    between atoms: C_3  and  C_6
REMARK    5  A    between atoms: C_6  and  C_7
REMARK    6  A    between atoms: C_11  and  C_20
REMARK    7  A    between atoms: N_22  and  C_23
REMARK    8  A    between atoms: C_23  and  C_24
REMARK    9  A    between atoms: C_27  and  C_29
REMARK                            x       y       z     vdW  Elec       q    Type
REMARK                         _______ _______ _______ _____ _____    ______ ____
ROOT
ATOM      1  C   UNL     1      -2.986  -2.594   0.242  0.00  0.00    +0.216 C 
ATOM      2  O   UNL     1      -3.931  -1.836   0.301  0.00  0.00    -0.276 OA
ATOM      3  N   UNL     1      -3.176  -3.920   0.393  0.00  0.00    -0.300 N 
ATOM      4  C   UNL     1      -2.155  -4.994   0.360  0.00  0.00    +0.121 C 
ATOM      5  C   UNL     1      -2.586  -5.978   1.470  0.00  0.00    +0.100 C 
ATOM      6  C   UNL     1      -4.096  -5.738   1.642  0.00  0.00    -0.004 C 
ATOM      7  C   UNL     1      -4.453  -4.633   0.637  0.00  0.00    +0.115 C 
ATOM      8  C   UNL     1      -4.398  -5.269   3.062  0.00  0.00    -0.010 C 
ATOM      9  C   UNL     1      -5.910  -5.093   3.225  0.00  0.00    -0.082 C 
ATOM     10  N   UNL     1      -6.585  -6.368   2.955  0.00  0.00    +0.379 N 
ATOM     11  C   UNL     1      -6.366  -6.766   1.559  0.00  0.00    -0.082 C 
ATOM     12  C   UNL     1      -4.873  -7.012   1.325  0.00  0.00    -0.010 C 
ATOM     13  H   UNL     1      -6.216  -7.079   3.568  0.00  0.00    -0.086 HD
ATOM     14  H   UNL     1      -7.575  -6.265   3.122  0.00  0.00    -0.086 HD
ENDROOT
BRANCH   5  15
ATOM     15  C   UNL     1      -2.323  -7.399   1.043  0.00  0.00    +0.218 C 
ATOM     16  O   UNL     1      -2.379  -7.699  -0.131  0.00  0.00    -0.275 OA
ATOM     17  N   UNL     1      -2.026  -8.335   1.965  0.00  0.00    -0.310 N 
ATOM     18  H   UNL     1      -1.982  -8.095   2.904  0.00  0.00    +0.149 HD
BRANCH  17  19
ATOM     19  C   UNL     1      -1.770  -9.717   1.550  0.00  0.00    +0.146 C 
BRANCH  19  20
ATOM     20  C   UNL     1      -1.464 -10.557   2.763  0.00  0.00    +0.007 A 
ATOM     21  C   UNL     1      -2.317 -11.260   3.552  0.00  0.00    +0.013 A 
ATOM     22  C   UNL     1      -1.814 -11.967   4.621  0.00  0.00    +0.018 A 
ATOM     23  C   UNL     1      -0.465 -11.937   4.854  0.00  0.00    +0.038 A 
ATOM     24  S   UNL     1       0.114 -10.892   3.526  0.00  0.00    -0.090 S 
BRANCH  23  25
ATOM     25  C   UNL     1       0.311 -12.602   5.920  0.00  0.00    +0.078 A 
ATOM     26  C   UNL     1       1.696 -12.433   5.979  0.00  0.00    +0.029 A 
ATOM     27  C   UNL     1       2.407 -13.061   6.984  0.00  0.00    +0.004 A 
ATOM     28  C   UNL     1       1.713 -13.840   7.901  0.00  0.00    +0.020 A 
ATOM     29  C   UNL     1       0.342 -13.965   7.785  0.00  0.00    +0.111 A 
ATOM     30  N   UNL     1      -0.315 -13.351   6.821  0.00  0.00    -0.254 NA
ENDBRANCH  23  25
ENDBRANCH  19  20
ENDBRANCH  17  19
ENDBRANCH   5  15
BRANCH   1  31
ATOM     31  C   UNL     1      -1.600  -2.054  -0.000  0.00  0.00    +0.099 C 
BRANCH  31  32
ATOM     32  C   UNL     1      -1.663  -0.532  -0.135  0.00  0.00    -0.006 C 
ATOM     33  C   UNL     1      -2.465  -0.163  -1.384  0.00  0.00    +0.008 C 
BRANCH  32  35
ATOM     34  C   UNL     1      -0.298   1.557  -0.266  0.00  0.00    +0.004 C 
ATOM     35  C   UNL     1      -0.244   0.028  -0.257  0.00  0.00    +0.000 C 
ENDBRANCH  32  35
ENDBRANCH  31  32
ENDBRANCH   1  31
TORSDOF 7
