REMARK  Name = ZINC45286231
REMARK  9 active torsions:
REMARK  status: ('A' for Active; 'I' for Inactive)
REMARK    1  A    between atoms: C_1  and  C_2
REMARK    2  A    between atoms: C_5  and  N_32
REMARK    3  A    between atoms: C_6  and  O_8
REMARK    4  A    between atoms: O_8  and  C_9
REMARK    5  A    between atoms: C_13  and  O_15
REMARK    6  A    between atoms: O_15  and  C_16
REMARK    7  A    between atoms: C_20  and  C_22
REMARK    8  A    between atoms: C_26  and  C_28
REMARK    9  A    between atoms: C_28  and  N_29
REMARK                            x       y       z     vdW  Elec       q    Type
REMARK                         _______ _______ _______ _____ _____    ______ ____
ROOT
ATOM      1  C   UNL     1      -1.113  -2.073   3.938  0.00  0.00    +0.260 A 
ATOM      2  C   UNL     1      -0.234  -2.768   4.761  0.00  0.00    +0.188 A 
ATOM      3  C   UNL     1       0.681  -2.059   5.525  0.00  0.00    +0.087 A 
ATOM      4  C   UNL     1       0.686  -0.675   5.437  0.00  0.00    +0.188 A 
ATOM      5  C   UNL     1      -0.221  -0.046   4.594  0.00  0.00    +0.260 A 
ATOM      6  N   UNL     1      -1.078  -0.752   3.874  0.00  0.00    -0.172 NA
ATOM      7  F   UNL     1       1.561   0.053   6.165  0.00  0.00    -0.200 F 
ATOM      8  F   UNL     1      -0.272  -4.117   4.817  0.00  0.00    -0.200 F 
ENDROOT
BRANCH   1   9
ATOM      9  O   UNL     1      -2.012  -2.758   3.187  0.00  0.00    -0.433 OA
BRANCH   9  15
ATOM     10  C   UNL     1      -4.408   1.428   2.445  0.00  0.00    +0.044 C 
ATOM     11  C   UNL     1      -4.114  -0.003   2.076  0.00  0.00    -0.047 A 
ATOM     12  C   UNL     1      -4.768  -0.588   1.006  0.00  0.00    +0.005 A 
ATOM     13  C   UNL     1      -4.502  -1.900   0.664  0.00  0.00    +0.032 A 
ATOM     14  C   UNL     1      -3.578  -2.634   1.392  0.00  0.00    +0.111 A 
ATOM     15  C   UNL     1      -2.919  -2.044   2.469  0.00  0.00    +0.156 A 
ATOM     16  C   UNL     1      -3.188  -0.726   2.803  0.00  0.00    +0.052 A 
BRANCH  14  17
ATOM     17  N   UNL     1      -3.307  -3.966   1.046  0.00  0.00    -0.197 N 
ATOM     18  C   UNL     1      -3.852  -4.678   0.036  0.00  0.00    +0.251 A 
ATOM     19  N   UNL     1      -3.320  -5.872   0.071  0.00  0.00    -0.116 NA
ATOM     20  N   UNL     1      -2.477  -5.964   1.036  0.00  0.00    -0.023 NA
ATOM     21  N   UNL     1      -2.406  -4.845   1.673  0.00  0.00    -0.039 NA
ENDBRANCH  14  17
ENDBRANCH   9  15
ENDBRANCH   1   9
BRANCH   5  22
ATOM     22  O   UNL     1      -0.224   1.309   4.502  0.00  0.00    -0.436 OA
BRANCH  22  23
ATOM     23  C   UNL     1      -0.332   1.865   3.267  0.00  0.00    +0.131 A 
ATOM     24  C   UNL     1      -0.312   1.056   2.138  0.00  0.00    +0.046 A 
ATOM     25  C   UNL     1      -0.421   1.617   0.879  0.00  0.00    +0.004 A 
ATOM     26  C   UNL     1      -0.552   2.985   0.738  0.00  0.00    +0.009 A 
ATOM     27  C   UNL     1      -0.573   3.803   1.866  0.00  0.00    -0.014 A 
ATOM     28  C   UNL     1      -0.468   3.237   3.134  0.00  0.00    +0.054 A 
BRANCH  27  29
ATOM     29  C   UNL     1      -0.712   5.273   1.716  0.00  0.00    -0.018 A 
ATOM     30  C   UNL     1      -0.728   6.092   2.843  0.00  0.00    +0.008 A 
ATOM     31  C   UNL     1      -0.858   7.458   2.698  0.00  0.00    +0.001 A 
ATOM     32  C   UNL     1      -0.972   8.015   1.437  0.00  0.00    +0.002 A 
ATOM     33  C   UNL     1      -0.958   7.206   0.315  0.00  0.00    -0.064 A 
ATOM     34  C   UNL     1      -0.822   5.839   0.448  0.00  0.00    +0.010 A 
BRANCH  33  35
ATOM     35  C   UNL     1      -1.085   7.820  -1.056  0.00  0.00    -0.051 C 
BRANCH  35  36
ATOM     36  N   UNL     1       0.252   8.143  -1.573  0.00  0.00    +0.381 N 
ATOM     37  H   UNL     1       0.703   8.798  -0.952  0.00  0.00    -0.090 HD
ATOM     38  H   UNL     1       0.803   7.300  -1.631  0.00  0.00    -0.090 HD
ATOM     39  H   UNL     1       0.167   8.554  -2.491  0.00  0.00    -0.090 HD
ENDBRANCH  35  36
ENDBRANCH  33  35
ENDBRANCH  27  29
ENDBRANCH  22  23
ENDBRANCH   5  22
TORSDOF 8
