REMARK  Name = ZINC59310303
REMARK  8 active torsions:
REMARK  status: ('A' for Active; 'I' for Inactive)
REMARK    1  A    between atoms: C_1  and  C_2
REMARK    2  A    between atoms: C_5  and  C_37
REMARK    3  A    between atoms: C_6  and  N_8
REMARK    4  A    between atoms: C_9  and  C_11
REMARK    5  A    between atoms: C_11  and  S_12
REMARK    6  A    between atoms: S_12  and  C_13
REMARK    7  A    between atoms: N_18  and  N_19
REMARK    8  A    between atoms: C_20  and  C_21
REMARK                            x       y       z     vdW  Elec       q    Type
REMARK                         _______ _______ _______ _____ _____    ______ ____
ROOT
ATOM      1  C   UNL     1       0.589  -2.769   7.652  0.00  0.00    +0.211 A 
ATOM      2  N   UNL     1       0.683  -2.346   8.918  0.00  0.00    -0.186 NA
ATOM      3  C   UNL     1       0.759  -3.382   9.727  0.00  0.00    +0.232 A 
ATOM      4  N   UNL     1       0.714  -4.502   8.975  0.00  0.00    -0.245 N 
ATOM      5  N   UNL     1       0.600  -4.081   7.640  0.00  0.00    -0.144 NA
ATOM      6  N   UNL     1       0.867  -3.331  11.105  0.00  0.00    -0.205 N 
ATOM      7  H   UNL     1       0.918  -4.152  11.618  0.00  0.00    +0.177 HD
ATOM      8  H   UNL     1       0.750  -5.417   9.294  0.00  0.00    +0.192 HD
ENDROOT
BRANCH   6   9
ATOM      9  N   UNL     1       0.904  -2.093  11.759  0.00  0.00    -0.188 NA
ATOM     10  C   UNL     1       1.004  -2.046  13.035  0.00  0.00    +0.139 C 
BRANCH  10  11
ATOM     11  C   UNL     1       1.042  -0.744  13.723  0.00  0.00    +0.002 A 
ATOM     12  C   UNL     1       1.283  -0.684  15.176  0.00  0.00    +0.010 A 
ATOM     13  C   UNL     1       1.319   0.475  15.802  0.00  0.00    +0.009 A 
ATOM     14  C   UNL     1       1.119   1.721  15.042  0.00  0.00    -0.017 A 
ATOM     15  C   UNL     1       1.154   3.032  15.712  0.00  0.00    +0.009 A 
ATOM     16  C   UNL     1       0.973   4.137  15.014  0.00  0.00    +0.009 A 
ATOM     17  C   UNL     1       0.733   4.062  13.563  0.00  0.00    -0.017 A 
ATOM     18  C   UNL     1       0.528   5.283  12.764  0.00  0.00    +0.008 A 
ATOM     19  C   UNL     1       0.317   5.186  11.467  0.00  0.00    +0.001 A 
ATOM     20  C   UNL     1       0.283   3.868  10.809  0.00  0.00    +0.008 A 
ATOM     21  C   UNL     1       0.466   2.776  11.520  0.00  0.00    -0.017 A 
ATOM     22  C   UNL     1       0.702   2.892  12.970  0.00  0.00    -0.002 A 
ATOM     23  C   UNL     1       0.905   1.660  13.749  0.00  0.00    -0.002 A 
ATOM     24  C   UNL     1       0.867   0.367  13.042  0.00  0.00    -0.008 A 
ATOM     25  C   UNL     1       0.630   0.346  11.591  0.00  0.00    +0.010 A 
ATOM     26  C   UNL     1       0.439   1.444  10.898  0.00  0.00    +0.009 A 
ENDBRANCH  10  11
ENDBRANCH   6   9
BRANCH   1  27
ATOM     27  S   UNL     1       0.465  -1.733   6.233  0.00  0.00    -0.075 S 
BRANCH  27  28
ATOM     28  C   UNL     1       0.362  -2.899   4.846  0.00  0.00    +0.173 C 
BRANCH  28  30
ATOM     29  N   UNL     1       0.161  -2.796   2.383  0.00  0.00    -0.285 N 
ATOM     30  C   UNL     1       0.250  -2.133   3.554  0.00  0.00    +0.227 C 
ATOM     31  O   UNL     1       0.240  -0.920   3.566  0.00  0.00    -0.275 OA
ATOM     32  H   UNL     1       0.087  -3.763   2.378  0.00  0.00    +0.155 HD
BRANCH  29  38
ATOM     33  C   UNL     1       1.425   1.220  -0.155  0.00  0.00    +0.044 C 
ATOM     34  C   UNL     1       0.780  -0.139  -0.083  0.00  0.00    -0.049 A 
ATOM     35  C   UNL     1       0.200  -0.690  -1.211  0.00  0.00    +0.004 A 
ATOM     36  C   UNL     1      -0.393  -1.937  -1.149  0.00  0.00    +0.005 A 
ATOM     37  C   UNL     1      -0.408  -2.638   0.041  0.00  0.00    -0.029 A 
ATOM     38  C   UNL     1       0.174  -2.088   1.176  0.00  0.00    +0.037 A 
ATOM     39  C   UNL     1       0.773  -0.837   1.109  0.00  0.00    +0.027 A 
ATOM     40  C   UNL     1      -1.054  -3.998   0.108  0.00  0.00    +0.045 C 
ENDBRANCH  29  38
ENDBRANCH  28  30
ENDBRANCH  27  28
ENDBRANCH   1  27
TORSDOF 6
