REMARK  Name = ZINC12325758
REMARK  8 active torsions:
REMARK  status: ('A' for Active; 'I' for Inactive)
REMARK    1  A    between atoms: C_1  and  C_2
REMARK    2  A    between atoms: C_4  and  C_7
REMARK    3  A    between atoms: C_7  and  C_9
REMARK    4  A    between atoms: C_7  and  N_10
REMARK    5  A    between atoms: C_21  and  N_56
REMARK    6  A    between atoms: C_25  and  C_26
REMARK    7  A    between atoms: C_25  and  N_56
REMARK    8  A    between atoms: C_26  and  C_27
REMARK                            x       y       z     vdW  Elec       q    Type
REMARK                         _______ _______ _______ _____ _____    ______ ____
ROOT
ATOM      1  N   UNL     1       1.197   6.073   0.017  0.00  0.00    -0.290 N 
ATOM      2  C   UNL     1      -0.135   6.320   0.032  0.00  0.00    +0.203 A 
ATOM      3  N   UNL     1      -1.040   5.367   0.038  0.00  0.00    -0.230 NA
ATOM      4  C   UNL     1      -0.606   4.111   0.028  0.00  0.00    +0.116 A 
ATOM      5  C   UNL     1       0.760   3.751   0.013  0.00  0.00    +0.076 A 
ATOM      6  C   UNL     1       1.716   4.822   0.008  0.00  0.00    +0.263 A 
ATOM      7  O   UNL     1       2.918   4.618  -0.004  0.00  0.00    -0.267 OA
ATOM      8  C   UNL     1       1.048   2.328   0.005  0.00  0.00    -0.023 A 
ATOM      9  C   UNL     1      -0.018   1.493   0.010  0.00  0.00    -0.006 A 
ATOM     10  S   UNL     1      -1.440   2.556   0.022  0.00  0.00    -0.073 S 
ATOM     11  C   UNL     1       0.002  -0.004   0.002  0.00  0.00    +0.027 C 
ATOM     12  C   UNL     1       1.412  -0.469  -0.389  0.00  0.00    -0.067 C 
ATOM     13  C   UNL     1       2.433   0.311   0.445  0.00  0.00    -0.011 C 
ATOM     14  C   UNL     1       2.469   1.770  -0.011  0.00  0.00    +0.035 C 
ENDROOT
BRANCH  12  15
ATOM     15  N   UNL     1       1.554  -1.910  -0.108  0.00  0.00    +0.381 N 
ATOM     16  H   UNL     1       1.020  -2.145   0.737  0.00  0.00    -0.086 HD
ATOM     17  H   UNL     1       2.546  -2.130   0.041  0.00  0.00    -0.086 HD
BRANCH  15  18
ATOM     18  C   UNL     1       1.045  -2.705  -1.242  0.00  0.00    -0.078 C 
BRANCH  18  19
ATOM     19  C   UNL     1       1.205  -4.193  -0.923  0.00  0.00    +0.016 C 
BRANCH  19  20
ATOM     20  C   UNL     1       0.687  -5.012  -2.077  0.00  0.00    -0.049 A 
ATOM     21  C   UNL     1      -0.639  -5.403  -2.107  0.00  0.00    +0.005 A 
ATOM     22  C   UNL     1      -1.116  -6.150  -3.167  0.00  0.00    +0.020 A 
ATOM     23  C   UNL     1      -0.264  -6.516  -4.194  0.00  0.00    +0.041 A 
ATOM     24  C   UNL     1       1.064  -6.129  -4.162  0.00  0.00    +0.020 A 
ATOM     25  C   UNL     1       1.538  -5.377  -3.103  0.00  0.00    +0.005 A 
ATOM     26 CL   UNL     1      -0.861  -7.459  -5.524  0.00  0.00    -0.084 Cl
ENDBRANCH  19  20
ENDBRANCH  18  19
ENDBRANCH  15  18
ENDBRANCH  12  15
BRANCH   1  27
ATOM     27  C   UNL     1       2.119   7.211   0.011  0.00  0.00    +0.137 C 
ATOM     28  C   UNL     1       1.866   8.065  -1.233  0.00  0.00    +0.038 C 
BRANCH  27  32
ATOM     29  C   UNL     1      -0.722   8.870   3.780  0.00  0.00    +0.073 C 
ATOM     30  C   UNL     1       0.527   8.755   2.944  0.00  0.00    +0.076 A 
ATOM     31  N   UNL     1       0.735   8.034   1.867  0.00  0.00    -0.247 NA
ATOM     32  C   UNL     1       1.896   8.045   1.247  0.00  0.00    +0.071 A 
ATOM     33  C   UNL     1       2.889   8.820   1.751  0.00  0.00    +0.072 A 
ATOM     34  S   UNL     1       2.059   9.543   3.159  0.00  0.00    -0.080 S 
ENDBRANCH  27  32
ENDBRANCH   1  27
TORSDOF 6
