REMARK  Name = ZINC13801113
REMARK  13 active torsions:
REMARK  status: ('A' for Active; 'I' for Inactive)
REMARK    1  A    between atoms: C_1  and  C_2
REMARK    2  A    between atoms: C_2  and  C_3
REMARK    3  A    between atoms: C_3  and  C_4
REMARK    4  A    between atoms: C_4  and  S_5
REMARK    5  A    between atoms: S_5  and  C_6
REMARK    6  A    between atoms: C_6  and  S_28
REMARK    7  A    between atoms: C_7  and  C_26
REMARK    8  A    between atoms: C_13  and  C_20
REMARK    9  A    between atoms: C_15  and  C_18
REMARK   10  A    between atoms: S_28  and  C_29
REMARK   11  A    between atoms: C_29  and  C_30
REMARK   12  A    between atoms: C_30  and  C_31
REMARK   13  A    between atoms: C_31  and  C_32
REMARK                            x       y       z     vdW  Elec       q    Type
REMARK                         _______ _______ _______ _____ _____    ______ ____
ROOT
ATOM      1  C   UNL     1      -2.545  -0.749  -0.167  0.00  0.00    +0.157 C 
ATOM      2  C   UNL     1      -1.170  -1.350   0.141  0.00  0.00    +0.148 C 
ATOM      3  C   UNL     1       0.048  -0.553  -0.186  0.00  0.00    -0.029 C 
ATOM      4  C   UNL     1       1.120  -1.159  -0.704  0.00  0.00    -0.011 C 
ATOM      5  C   UNL     1       2.232  -0.164  -0.916  0.00  0.00    +0.049 C 
ATOM      6  C   UNL     1       1.834   1.072  -0.077  0.00  0.00    +0.010 C 
ATOM      7  C   UNL     1       0.297   0.917  -0.002  0.00  0.00    +0.034 C 
ATOM      8  C   UNL     1      -0.021  -3.366  -0.732  0.00  0.00    +0.113 C 
ATOM      9  C   UNL     1      -1.206  -2.469  -0.950  0.00  0.00    +0.156 C 
ATOM     10  C   UNL     1      -2.605  -2.954  -0.859  0.00  0.00    +0.092 C 
ATOM     11  N   UNL     1      -3.037  -4.217  -1.167  0.00  0.00    -0.347 N 
ATOM     12  H   UNL     1      -2.405  -4.884  -1.476  0.00  0.00    +0.143 HD
ATOM     13  H   UNL     1      -3.976  -4.444  -1.076  0.00  0.00    +0.143 HD
ATOM     14  N   UNL     1       1.231  -2.553  -1.026  0.00  0.00    -0.401 NA
ATOM     15  H   UNL     1       2.007  -2.946  -0.481  0.00  0.00    +0.124 HD
ATOM     16  H   UNL     1       1.441  -2.634  -2.028  0.00  0.00    +0.124 HD
ATOM     17  N   UNL     1      -3.369  -1.969  -0.431  0.00  0.00    -0.351 N 
ATOM     18  H   UNL     1      -4.385  -2.030  -0.299  0.00  0.00    +0.163 HD
ENDROOT
BRANCH   8  19
ATOM     19  C   UNL     1      -0.065  -4.531  -1.686  0.00  0.00    -0.027 A 
ATOM     20  C   UNL     1       0.279  -4.352  -3.013  0.00  0.00    +0.005 A 
ATOM     21  C   UNL     1       0.244  -5.422  -3.887  0.00  0.00    +0.000 A 
ATOM     22  C   UNL     1      -0.146  -6.670  -3.437  0.00  0.00    +0.000 A 
ATOM     23  C   UNL     1      -0.495  -6.848  -2.111  0.00  0.00    +0.000 A 
ATOM     24  C   UNL     1      -0.454  -5.779  -1.236  0.00  0.00    +0.005 A 
ENDBRANCH   8  19
BRANCH   9  25
ATOM     25  C   UNL     1      -1.053  -1.817  -2.261  0.00  0.00    +0.081 C 
ATOM     26  N   UNL     1      -0.934  -1.315  -3.273  0.00  0.00    -0.195 NA
ENDBRANCH   9  25
BRANCH   2  27
ATOM     27  C   UNL     1      -1.097  -1.909   1.501  0.00  0.00    +0.080 C 
ATOM     28  N   UNL     1      -1.041  -2.340   2.550  0.00  0.00    -0.195 NA
ENDBRANCH   2  27
BRANCH   1  29
ATOM     29  S   UNL     1      -3.190   0.162   1.263  0.00  0.00    -0.120 S 
BRANCH  29  30
ATOM     30  C   UNL     1      -4.918  -0.377   1.383  0.00  0.00    +0.072 C 
BRANCH  30  31
ATOM     31  C   UNL     1      -5.629   0.430   2.472  0.00  0.00    +0.010 C 
BRANCH  31  33
ATOM     32  C   UNL     1      -7.797   0.783   3.662  0.00  0.00    +0.004 C 
ATOM     33  C   UNL     1      -7.086  -0.024   2.574  0.00  0.00    -0.003 C 
ENDBRANCH  31  33
ENDBRANCH  30  31
ENDBRANCH  29  30
ENDBRANCH   1  29
BRANCH   1  34
ATOM     34  S   UNL     1      -2.474   0.316  -1.633  0.00  0.00    -0.120 S 
BRANCH  34  35
ATOM     35  C   UNL     1      -4.203   0.787  -1.917  0.00  0.00    +0.072 C 
BRANCH  35  36
ATOM     36  C   UNL     1      -4.285   1.721  -3.127  0.00  0.00    +0.010 C 
BRANCH  36  37
ATOM     37  C   UNL     1      -5.743   2.119  -3.366  0.00  0.00    -0.003 C 
ATOM     38  C   UNL     1      -5.825   3.053  -4.575  0.00  0.00    +0.004 C 
ENDBRANCH  36  37
ENDBRANCH  35  36
ENDBRANCH  34  35
ENDBRANCH   1  34
TORSDOF 11
