REMARK  Name = ZINC09466667
REMARK  9 active torsions:
REMARK  status: ('A' for Active; 'I' for Inactive)
REMARK    1  A    between atoms: C_1  and  O_2
REMARK    2  A    between atoms: O_2  and  C_3
REMARK    3  A    between atoms: C_6  and  C_9
REMARK    4  A    between atoms: C_9  and  C_11
REMARK    5  A    between atoms: C_9  and  N_63
REMARK    6  A    between atoms: C_11  and  N_12
REMARK    7  A    between atoms: C_13  and  C_15
REMARK    8  A    between atoms: C_15  and  N_16
REMARK    9  A    between atoms: C_24  and  C_25
REMARK                            x       y       z     vdW  Elec       q    Type
REMARK                         _______ _______ _______ _____ _____    ______ ____
ROOT
ATOM      1  N   UNL     1       6.514  -0.738   3.756  0.00  0.00    -0.315 N 
ATOM      2  C   UNL     1       5.602  -1.699   4.005  0.00  0.00    +0.233 C 
ATOM      3  O   UNL     1       4.438  -1.519   3.719  0.00  0.00    -0.274 OA
ATOM      4  H   UNL     1       7.445  -0.882   3.985  0.00  0.00    +0.149 HD
ENDROOT
BRANCH   1   5
ATOM      5  C   UNL     1       6.098   0.525   3.140  0.00  0.00    +0.093 C 
BRANCH   5   6
ATOM      6  C   UNL     1       7.286   1.488   3.098  0.00  0.00    -0.020 C 
BRANCH   6  12
ATOM      7  C   UNL     1       6.398   2.446   1.060  0.00  0.00    -0.078 C 
ATOM      8  C   UNL     1       5.859   3.734   0.434  0.00  0.00    -0.019 C 
ATOM      9  C   UNL     1       6.977   4.779   0.386  0.00  0.00    -0.004 C 
ATOM     10  C   UNL     1       7.503   5.017   1.804  0.00  0.00    -0.019 C 
ATOM     11  C   UNL     1       7.995   3.691   2.390  0.00  0.00    -0.078 C 
ATOM     12  N   UNL     1       6.866   2.738   2.431  0.00  0.00    +0.385 N 
ATOM     13  H   UNL     1       6.095   3.157   2.964  0.00  0.00    -0.081 HD
ENDBRANCH   6  12
BRANCH   6  17
ATOM     14  C   UNL     1       8.529   2.394   7.084  0.00  0.00    +0.120 A 
ATOM     15  C   UNL     1       9.221   1.452   6.338  0.00  0.00    +0.046 A 
ATOM     16  C   UNL     1       8.817   1.160   5.050  0.00  0.00    +0.005 A 
ATOM     17  C   UNL     1       7.724   1.807   4.503  0.00  0.00    -0.059 A 
ATOM     18  C   UNL     1       7.037   2.752   5.243  0.00  0.00    +0.005 A 
ATOM     19  C   UNL     1       7.433   3.042   6.534  0.00  0.00    +0.046 A 
BRANCH  14  21
ATOM     20  C   UNL     1       8.166   3.665   9.061  0.00  0.00    +0.277 C 
ATOM     21  O   UNL     1       8.925   2.683   8.352  0.00  0.00    -0.495 OA
ENDBRANCH  14  21
ENDBRANCH   6  17
ENDBRANCH   5   6
ENDBRANCH   1   5
BRANCH   2  22
ATOM     22  C   UNL     1       6.030  -2.998   4.638  0.00  0.00    +0.219 C 
BRANCH  22  23
ATOM     23  N   UNL     1       4.864  -3.869   4.802  0.00  0.00    -0.313 N 
ATOM     24  C   UNL     1       4.030  -3.924   5.903  0.00  0.00    +0.070 A 
ATOM     25  C   UNL     1       3.994  -3.255   7.118  0.00  0.00    +0.028 A 
ATOM     26  C   UNL     1       3.003  -3.548   8.031  0.00  0.00    +0.002 A 
ATOM     27  C   UNL     1       2.043  -4.508   7.744  0.00  0.00    +0.002 A 
ATOM     28  C   UNL     1       2.063  -5.178   6.553  0.00  0.00    +0.030 A 
ATOM     29  C   UNL     1       3.058  -4.897   5.611  0.00  0.00    +0.090 A 
ATOM     30  N   UNL     1       3.330  -5.377   4.373  0.00  0.00    -0.226 NA
ATOM     31  C   UNL     1       4.396  -4.780   3.893  0.00  0.00    +0.161 A 
BRANCH  31  32
ATOM     32  C   UNL     1       4.995  -5.046   2.571  0.00  0.00    +0.113 A 
ATOM     33  C   UNL     1       4.457  -5.981   1.722  0.00  0.00    +0.078 A 
ATOM     34  S   UNL     1       5.577  -5.851   0.337  0.00  0.00    -0.083 S 
ATOM     35  C   UNL     1       6.610  -4.619   0.991  0.00  0.00    +0.156 A 
ATOM     36  N   UNL     1       6.073  -4.390   2.162  0.00  0.00    -0.244 NA
ENDBRANCH  31  32
ENDBRANCH  22  23
ENDBRANCH   2  22
TORSDOF 8
