REMARK  Name = ZINC54568310
REMARK  3 active torsions:
REMARK  status: ('A' for Active; 'I' for Inactive)
REMARK    1  A    between atoms: N_7  and  C_11
REMARK    2  A    between atoms: C_11  and  N_12
REMARK    3  A    between atoms: C_16  and  C_19
REMARK                            x       y       z     vdW  Elec       q    Type
REMARK                         _______ _______ _______ _____ _____    ______ ____
ROOT
ATOM      1  N   UNL     1       0.303  -3.531  -1.404  0.00  0.00    -0.280 NA
ATOM      2  C   UNL     1       1.357  -4.375  -1.984  0.00  0.00    +0.114 C 
ATOM      3  C   UNL     1       1.008  -4.688  -3.442  0.00  0.00    +0.176 C 
ATOM      4  O   UNL     1      -0.277  -5.313  -3.495  0.00  0.00    -0.369 OA
ATOM      5  C   UNL     1      -1.328  -4.518  -2.939  0.00  0.00    +0.162 C 
ATOM      6  C   UNL     1      -1.002  -4.204  -1.476  0.00  0.00    +0.122 C 
ENDROOT
BRANCH   5   7
ATOM      7  C   UNL     1      -2.627  -5.277  -3.014  0.00  0.00    -0.018 A 
ATOM      8  C   UNL     1      -2.652  -6.633  -2.744  0.00  0.00    +0.007 A 
ATOM      9  C   UNL     1      -3.844  -7.330  -2.813  0.00  0.00    +0.020 A 
ATOM     10  C   UNL     1      -5.012  -6.671  -3.152  0.00  0.00    +0.041 A 
ATOM     11  C   UNL     1      -4.986  -5.314  -3.422  0.00  0.00    +0.020 A 
ATOM     12  C   UNL     1      -3.795  -4.617  -3.347  0.00  0.00    +0.007 A 
ATOM     13 CL   UNL     1      -6.509  -7.546  -3.239  0.00  0.00    -0.084 Cl
ENDBRANCH   5   7
BRANCH   1  14
ATOM     14  C   UNL     1       0.628  -3.160  -0.020  0.00  0.00    +0.216 C 
BRANCH  14  21
ATOM     15  C   UNL     1      -0.017   1.377   0.010  0.00  0.00    +0.002 A 
ATOM     16  C   UNL     1       1.170   2.089   0.002  0.00  0.00    +0.004 A 
ATOM     17  C   UNL     1       2.381   1.425  -0.013  0.00  0.00    +0.048 A 
ATOM     18  C   UNL     1       2.410   0.040  -0.021  0.00  0.00    +0.157 A 
ATOM     19  C   UNL     1       1.214  -0.677  -0.013  0.00  0.00    +0.091 A 
ATOM     20  C   UNL     1       0.002  -0.004   0.002  0.00  0.00    +0.030 A 
ATOM     21  N   UNL     1       1.559  -2.028  -0.024  0.00  0.00    -0.261 N 
ATOM     22  C   UNL     1       2.904  -2.103  -0.037  0.00  0.00    +0.422 A 
ATOM     23  O   UNL     1       3.550  -3.133  -0.049  0.00  0.00    -0.223 OA
ATOM     24  O   UNL     1       3.421  -0.864  -0.035  0.00  0.00    -0.407 OA
ENDBRANCH  14  21
ENDBRANCH   1  14
TORSDOF 3
