REMARK  Name = ZINC09049021
REMARK  6 active torsions:
REMARK  status: ('A' for Active; 'I' for Inactive)
REMARK    1  A    between atoms: C_1  and  C_2
REMARK    2  A    between atoms: C_2  and  C_3
REMARK    3  A    between atoms: C_3  and  C_11
REMARK    4  A    between atoms: C_14  and  N_17
REMARK    5  A    between atoms: C_18  and  C_20
REMARK    6  A    between atoms: C_20  and  C_21
REMARK                            x       y       z     vdW  Elec       q    Type
REMARK                         _______ _______ _______ _____ _____    ______ ____
ROOT
ATOM      1  C   UNL     1       2.628   8.689  -5.617  0.00  0.00    -0.032 A 
ATOM      2  C   UNL     1       3.265   9.392  -4.612  0.00  0.00    +0.006 A 
ATOM      3  C   UNL     1       3.004   9.097  -3.288  0.00  0.00    +0.023 A 
ATOM      4  C   UNL     1       2.099   8.092  -2.968  0.00  0.00    +0.033 A 
ATOM      5  C   UNL     1       1.466   7.384  -3.980  0.00  0.00    +0.023 A 
ATOM      6  C   UNL     1       1.727   7.688  -5.302  0.00  0.00    +0.006 A 
ENDROOT
BRANCH   1   7
ATOM      7  C   UNL     1       2.916   9.013  -7.061  0.00  0.00    +0.072 C 
ATOM      8  C   UNL     1       2.021   8.161  -7.966  0.00  0.00    +0.030 C 
ATOM      9  C   UNL     1       2.249   8.587  -9.420  0.00  0.00    +0.097 C 
ATOM     10  C   UNL     1       2.002  10.067  -9.546  0.00  0.00    +0.219 C 
ATOM     11  O   UNL     1       1.609  10.516 -10.601  0.00  0.00    -0.275 OA
ATOM     12  N   UNL     1       2.209  10.898  -8.514  0.00  0.00    -0.256 N 
ATOM     13  C   UNL     1       2.632  10.470  -7.315  0.00  0.00    +0.230 C 
ATOM     14  O   UNL     1       2.790  11.272  -6.419  0.00  0.00    -0.274 OA
ATOM     15  H   UNL     1       2.045  11.846  -8.639  0.00  0.00    +0.157 HD
BRANCH   7  17
ATOM     16  C   UNL     1       4.700   7.265  -7.004  0.00  0.00    +0.005 C 
ATOM     17  C   UNL     1       4.386   8.717  -7.368  0.00  0.00    +0.017 C 
ENDBRANCH   7  17
ENDBRANCH   1   7
BRANCH   4  18
ATOM     18  N   UNL     1       1.832   7.791  -1.628  0.00  0.00    -0.285 N 
ATOM     19  C   UNL     1       1.815   8.774  -0.706  0.00  0.00    +0.222 C 
ATOM     20  O   UNL     1       2.100   9.909  -1.025  0.00  0.00    -0.275 OA
ATOM     21  H   UNL     1       1.659   6.874  -1.362  0.00  0.00    +0.155 HD
BRANCH  19  22
ATOM     22  C   UNL     1       1.440   8.464   0.720  0.00  0.00    +0.133 C 
BRANCH  22  23
ATOM     23  C   UNL     1       1.498   9.726   1.541  0.00  0.00    -0.014 A 
ATOM     24  C   UNL     1       2.535  10.152   2.280  0.00  0.00    +0.087 A 
ATOM     25  N   UNL     1       2.221  11.338   2.884  0.00  0.00    -0.360 N 
ATOM     26  H   UNL     1       2.812  11.839   3.468  0.00  0.00    +0.165 HD
ATOM     27  C   UNL     1       0.943  11.716   2.540  0.00  0.00    +0.047 A 
ATOM     28  C   UNL     1       0.433  10.723   1.683  0.00  0.00    +0.003 A 
ATOM     29  C   UNL     1      -0.859  10.841   1.169  0.00  0.00    +0.010 A 
ATOM     30  C   UNL     1      -1.624  11.924   1.502  0.00  0.00    +0.001 A 
ATOM     31  C   UNL     1      -1.127  12.906   2.346  0.00  0.00    +0.002 A 
ATOM     32  C   UNL     1       0.148  12.812   2.860  0.00  0.00    +0.026 A 
ENDBRANCH  22  23
ENDBRANCH  19  22
ENDBRANCH   4  18
TORSDOF 5
