REMARK  Name = ZINC36583956
REMARK  11 active torsions:
REMARK  status: ('A' for Active; 'I' for Inactive)
REMARK    1  A    between atoms: C_1  and  C_2
REMARK    2  A    between atoms: C_2  and  C_3
REMARK    3  A    between atoms: C_2  and  C_4
REMARK    4  A    between atoms: C_2  and  N_5
REMARK    5  A    between atoms: N_5  and  C_6
REMARK    6  A    between atoms: C_6  and  C_8
REMARK    7  A    between atoms: C_6  and  C_17
REMARK    8  A    between atoms: C_11  and  N_14
REMARK    9  A    between atoms: N_19  and  C_20
REMARK   10  A    between atoms: C_26  and  C_28
REMARK   11  A    between atoms: C_28  and  C_29
REMARK                            x       y       z     vdW  Elec       q    Type
REMARK                         _______ _______ _______ _____ _____    ______ ____
ROOT
ATOM      1  C   UNL     1       2.838  -0.494  -1.532  0.00  0.00    +0.193 C 
ENDROOT
BRANCH   1   2
ATOM      2  C   UNL     1       3.912  -1.542  -1.383  0.00  0.00    -0.018 A 
ATOM      3  C   UNL     1       4.019  -2.259  -0.205  0.00  0.00    +0.008 A 
ATOM      4  C   UNL     1       5.003  -3.219  -0.068  0.00  0.00    +0.033 A 
ATOM      5  C   UNL     1       5.880  -3.463  -1.108  0.00  0.00    +0.126 A 
ATOM      6  C   UNL     1       5.773  -2.747  -2.286  0.00  0.00    +0.033 A 
ATOM      7  C   UNL     1       4.786  -1.789  -2.425  0.00  0.00    +0.008 A 
BRANCH   5   8
ATOM      8  N   UNL     1       6.935  -4.491  -0.961  0.00  0.00    +0.056 N 
ATOM      9  O   UNL     1       7.029  -5.117   0.069  0.00  0.00    -0.126 OA
ATOM     10  O   UNL     1       7.702  -4.705  -1.871  0.00  0.00    -0.126 OA
ENDBRANCH   5   8
ENDBRANCH   1   2
BRANCH   1  11
ATOM     11  C   UNL     1       3.429   0.870  -1.284  0.00  0.00    +0.238 C 
ATOM     12  O   UNL     1       2.962   1.585  -0.423  0.00  0.00    -0.273 OA
ATOM     13  N   UNL     1       4.477   1.294  -2.018  0.00  0.00    -0.311 N 
ATOM     14  H   UNL     1       4.851   0.722  -2.706  0.00  0.00    +0.149 HD
BRANCH  13  15
ATOM     15  C   UNL     1       5.051   2.620  -1.776  0.00  0.00    +0.073 C 
ATOM     16  C   UNL     1       4.263   3.669  -2.563  0.00  0.00    +0.022 C 
ATOM     17  C   UNL     1       4.863   5.053  -2.310  0.00  0.00    +0.002 C 
ATOM     18  C   UNL     1       6.324   5.067  -2.765  0.00  0.00    +0.000 C 
ATOM     19  C   UNL     1       7.112   4.018  -1.978  0.00  0.00    +0.002 C 
ATOM     20  C   UNL     1       6.512   2.633  -2.230  0.00  0.00    +0.022 C 
ENDBRANCH  13  15
ENDBRANCH   1  11
BRANCH   1  21
ATOM     21  N   UNL     1       1.770  -0.748  -0.562  0.00  0.00    -0.281 N 
ATOM     22  C   UNL     1       2.013  -0.619   0.757  0.00  0.00    +0.221 C 
ATOM     23  O   UNL     1       3.083  -0.194   1.138  0.00  0.00    -0.275 OA
BRANCH  21  25
ATOM     24  C   UNL     1       0.475  -1.383  -2.537  0.00  0.00    +0.031 C 
ATOM     25  C   UNL     1       0.438  -1.141  -1.027  0.00  0.00    +0.030 C 
ATOM     26  C   UNL     1      -0.562  -0.025  -0.714  0.00  0.00    +0.031 C 
ATOM     27  C   UNL     1       0.007  -2.425  -0.315  0.00  0.00    +0.031 C 
ENDBRANCH  21  25
BRANCH  22  28
ATOM     28  C   UNL     1       0.956  -1.005   1.759  0.00  0.00    +0.131 C 
BRANCH  28  29
ATOM     29  C   UNL     1       1.401  -0.600   3.140  0.00  0.00    -0.039 A 
ATOM     30  C   UNL     1       2.135  -1.478   3.915  0.00  0.00    +0.005 A 
ATOM     31  C   UNL     1       2.544  -1.107   5.182  0.00  0.00    +0.015 A 
ATOM     32  C   UNL     1       2.219   0.144   5.675  0.00  0.00    +0.018 A 
ATOM     33  C   UNL     1       1.485   1.023   4.899  0.00  0.00    +0.015 A 
ATOM     34  C   UNL     1       1.081   0.653   3.630  0.00  0.00    +0.005 A 
ATOM     35 BR   UNL     1       2.779   0.653   7.408  0.00  0.00    -0.050 Br
ENDBRANCH  28  29
ENDBRANCH  22  28
ENDBRANCH   1  21
TORSDOF 8
