REMARK  Name = ZINC64023991
REMARK  7 active torsions:
REMARK  status: ('A' for Active; 'I' for Inactive)
REMARK    1  A    between atoms: C_1  and  C_2
REMARK    2  A    between atoms: C_6  and  C_8
REMARK    3  A    between atoms: C_11  and  O_14
REMARK    4  A    between atoms: O_14  and  C_15
REMARK    5  A    between atoms: C_17  and  C_20
REMARK    6  A    between atoms: C_20  and  N_21
REMARK    7  A    between atoms: C_22  and  C_24
REMARK                            x       y       z     vdW  Elec       q    Type
REMARK                         _______ _______ _______ _____ _____    ______ ____
ROOT
ATOM      1  C   UNL     1       0.393  -5.579  -2.209  0.00  0.00    +0.149 C 
ENDROOT
BRANCH   1  10
ATOM      2  C   UNL     1      -0.018   1.503   0.010  0.00  0.00    +0.044 C 
ATOM      3  C   UNL     1       0.002  -0.004   0.002  0.00  0.00    -0.049 A 
ATOM      4  C   UNL     1       0.006  -0.691  -1.201  0.00  0.00    +0.010 A 
ATOM      5  C   UNL     1       0.025  -2.068  -1.213  0.00  0.00    -0.001 A 
ATOM      6  C   UNL     1       0.048  -2.791  -0.029  0.00  0.00    +0.133 A 
ATOM      7  C   UNL     1       0.040  -2.093   1.189  0.00  0.00    +0.044 A 
ATOM      8  C   UNL     1       0.023  -0.701   1.193  0.00  0.00    +0.017 A 
ATOM      9  O   UNL     1       0.087  -4.130  -0.267  0.00  0.00    -0.486 OA
ATOM     10  C   UNL     1      -0.353  -4.384  -1.612  0.00  0.00    +0.195 C 
ATOM     11  C   UNL     1       0.022  -3.075  -2.347  0.00  0.00    +0.085 C 
BRANCH   7  12
ATOM     12  C   UNL     1       0.055  -2.837   2.471  0.00  0.00    +0.097 A 
ATOM     13  C   UNL     1       0.041  -2.144   3.686  0.00  0.00    +0.035 A 
ATOM     14  C   UNL     1       0.056  -2.884   4.855  0.00  0.00    +0.071 A 
ATOM     15  C   UNL     1       0.084  -4.274   4.750  0.00  0.00    +0.234 A 
ATOM     16  N   UNL     1       0.095  -4.846   3.557  0.00  0.00    -0.111 NA
ATOM     17  N   UNL     1       0.076  -4.164   2.470  0.00  0.00    -0.146 NA
BRANCH  15  18
ATOM     18  O   UNL     1       0.100  -5.039   5.870  0.00  0.00    -0.479 OA
ATOM     19  C   UNL     1       0.128  -6.456   5.688  0.00  0.00    +0.279 C 
ENDBRANCH  15  18
ENDBRANCH   7  12
ENDBRANCH   1  10
BRANCH   1  20
ATOM     20  N   UNL     1       0.017  -6.798  -1.489  0.00  0.00    -0.311 N 
ATOM     21  C   UNL     1       0.554  -7.983  -1.844  0.00  0.00    +0.219 C 
ATOM     22  O   UNL     1       1.347  -8.039  -2.760  0.00  0.00    -0.275 OA
ATOM     23  H   UNL     1      -0.617  -6.753  -0.757  0.00  0.00    +0.149 HD
BRANCH  21  24
ATOM     24  C   UNL     1       0.168  -9.237  -1.104  0.00  0.00    +0.101 C 
ATOM     25  C   UNL     1      -1.341  -9.471  -1.238  0.00  0.00    +0.015 C 
ATOM     26  C   UNL     1      -1.769  -9.496  -2.704  0.00  0.00    +0.005 C 
ATOM     27  C   UNL     1      -1.107 -10.681  -3.428  0.00  0.00    +0.033 C 
ATOM     28  C   UNL     1       0.369 -10.598  -3.128  0.00  0.00    -0.038 C 
ATOM     29  C   UNL     1       1.433 -10.621  -3.921  0.00  0.00    -0.001 A 
ATOM     30  C   UNL     1       1.573 -10.855  -5.367  0.00  0.00    +0.010 A 
ATOM     31  C   UNL     1       2.836 -10.783  -5.867  0.00  0.00    +0.001 A 
ATOM     32  C   UNL     1       3.959 -10.505  -5.082  0.00  0.00    +0.002 A 
ATOM     33  C   UNL     1       3.924 -10.287  -3.743  0.00  0.00    +0.026 A 
ATOM     34  C   UNL     1       2.653 -10.345  -3.102  0.00  0.00    +0.043 A 
ATOM     35  N   UNL     1       2.336 -10.204  -1.848  0.00  0.00    -0.377 N 
ATOM     36  C   UNL     1       0.903 -10.436  -1.705  0.00  0.00    +0.118 C 
ATOM     37  H   UNL     1       2.948  -9.983  -1.129  0.00  0.00    +0.160 HD
ENDBRANCH  21  24
ENDBRANCH   1  20
TORSDOF 5
