REMARK  Name = ZINC36951230
REMARK  9 active torsions:
REMARK  status: ('A' for Active; 'I' for Inactive)
REMARK    1  A    between atoms: C_1  and  C_2
REMARK    2  A    between atoms: C_2  and  C_3
REMARK    3  A    between atoms: C_3  and  N_4
REMARK    4  A    between atoms: N_4  and  C_5
REMARK    5  A    between atoms: C_5  and  C_6
REMARK    6  A    between atoms: C_6  and  C_8
REMARK    7  A    between atoms: C_6  and  O_19
REMARK    8  A    between atoms: C_8  and  O_9
REMARK    9  A    between atoms: O_9  and  C_10
REMARK                            x       y       z     vdW  Elec       q    Type
REMARK                         _______ _______ _______ _____ _____    ______ ____
ROOT
ATOM      1  C   UNL     1      -4.206  -4.570   0.018  0.00  0.00    +0.258 C 
ENDROOT
BRANCH   1   2
ATOM      2  C   UNL     1      -2.771  -4.041   0.007  0.00  0.00    +0.135 C 
BRANCH   2   3
ATOM      3  O   UNL     1      -2.102  -4.502  -1.169  0.00  0.00    -0.390 OA
ATOM      4  H   UNL     1      -2.517  -4.217  -1.995  0.00  0.00    +0.210 HD
ENDBRANCH   2   3
BRANCH   2   5
ATOM      5  C   UNL     1      -2.792  -2.511   0.015  0.00  0.00    -0.048 C 
BRANCH   5   6
ATOM      6  N   UNL     1      -1.413  -2.002   0.005  0.00  0.00    +0.381 N 
ATOM      7  H   UNL     1      -0.941  -2.328  -0.825  0.00  0.00    -0.086 HD
ATOM      8  H   UNL     1      -0.925  -2.337   0.822  0.00  0.00    -0.086 HD
BRANCH   6   9
ATOM      9  C   UNL     1      -1.433  -0.534   0.013  0.00  0.00    -0.083 C 
BRANCH   9  11
ATOM     10  C   UNL     1      -0.019   1.526   0.010  0.00  0.00    +0.002 C 
ATOM     11  C   UNL     1       0.002  -0.004   0.002  0.00  0.00    -0.022 C 
ENDBRANCH   9  11
ENDBRANCH   6   9
ENDBRANCH   5   6
ENDBRANCH   2   5
ENDBRANCH   1   2
BRANCH   1  12
ATOM     12  O   UNL     1      -4.188  -5.995   0.127  0.00  0.00    -0.487 OA
BRANCH  12  13
ATOM     13  C   UNL     1      -5.390  -6.628   0.151  0.00  0.00    +0.148 A 
ATOM     14  C   UNL     1      -6.033  -6.855   1.360  0.00  0.00    +0.062 A 
ATOM     15  C   UNL     1      -7.256  -7.499   1.381  0.00  0.00    +0.034 A 
ATOM     16  C   UNL     1      -7.839  -7.917   0.199  0.00  0.00    +0.020 A 
ATOM     17  C   UNL     1      -7.201  -7.692  -1.008  0.00  0.00    +0.034 A 
ATOM     18  C   UNL     1      -5.980  -7.043  -1.034  0.00  0.00    +0.062 A 
ATOM     19 BR   UNL     1      -5.112  -6.729  -2.685  0.00  0.00    -0.046 Br
ATOM     20 BR   UNL     1      -9.512  -8.798   0.232  0.00  0.00    -0.050 Br
ATOM     21 BR   UNL     1      -5.235  -6.284   2.977  0.00  0.00    -0.046 Br
ENDBRANCH  12  13
ENDBRANCH   1  12
TORSDOF 8
