REMARK  Name = ZINC01353198
REMARK  8 active torsions:
REMARK  status: ('A' for Active; 'I' for Inactive)
REMARK    1  A    between atoms: C_1  and  C_2
REMARK    2  A    between atoms: C_6  and  C_8
REMARK    3  A    between atoms: C_8  and  C_9
REMARK    4  A    between atoms: C_9  and  N_10
REMARK    5  A    between atoms: N_10  and  C_11
REMARK    6  A    between atoms: C_11  and  C_12
REMARK    7  A    between atoms: C_16  and  C_24
REMARK    8  A    between atoms: N_27  and  C_28
REMARK                            x       y       z     vdW  Elec       q    Type
REMARK                         _______ _______ _______ _____ _____    ______ ____
ROOT
ATOM      1  N   UNL     1      -0.118   7.346  -1.562  0.00  0.00    -0.281 N 
ATOM      2  C   UNL     1      -1.302   7.990  -1.553  0.00  0.00    +0.307 C 
ATOM      3  O   UNL     1      -1.338   9.196  -1.701  0.00  0.00    -0.252 OA
ATOM      4  N   UNL     1      -2.445   7.297  -1.380  0.00  0.00    -0.269 N 
ATOM      5  H   UNL     1      -2.424   6.329  -1.339  0.00  0.00    +0.156 HD
ENDROOT
BRANCH   4   6
ATOM      6  C   UNL     1      -3.663   7.976  -1.260  0.00  0.00    +0.035 A 
ATOM      7  C   UNL     1      -3.709   9.219  -0.642  0.00  0.00    +0.025 A 
ATOM      8  C   UNL     1      -4.911   9.889  -0.529  0.00  0.00    +0.022 A 
ATOM      9  C   UNL     1      -6.072   9.318  -1.021  0.00  0.00    +0.041 A 
ATOM     10  C   UNL     1      -6.030   8.077  -1.632  0.00  0.00    +0.022 A 
ATOM     11  C   UNL     1      -4.829   7.406  -1.753  0.00  0.00    +0.025 A 
ATOM     12 CL   UNL     1      -7.582  10.160  -0.872  0.00  0.00    -0.084 Cl
ENDBRANCH   4   6
BRANCH   1  13
ATOM     13  C   UNL     1      -0.074   5.892  -1.384  0.00  0.00    +0.114 C 
BRANCH  13  14
ATOM     14  C   UNL     1       0.049   5.564   0.105  0.00  0.00    +0.054 C 
BRANCH  14  20
ATOM     15  C   UNL     1      -2.316   1.211   0.815  0.00  0.00    +0.044 C 
ATOM     16  C   UNL     1      -1.037   1.986   0.628  0.00  0.00    -0.050 A 
ATOM     17  C   UNL     1       0.177   1.326   0.624  0.00  0.00    +0.003 A 
ATOM     18  C   UNL     1       1.350   2.036   0.447  0.00  0.00    +0.001 A 
ATOM     19  C   UNL     1       1.308   3.408   0.279  0.00  0.00    +0.004 A 
ATOM     20  C   UNL     1       0.094   4.069   0.288  0.00  0.00    -0.046 A 
ATOM     21  C   UNL     1      -1.078   3.358   0.466  0.00  0.00    +0.007 A 
ENDBRANCH  14  20
ENDBRANCH  13  14
ENDBRANCH   1  13
BRANCH   1  22
ATOM     22  C   UNL     1       1.125   8.098  -1.750  0.00  0.00    +0.150 C 
BRANCH  22  23
ATOM     23  C   UNL     1       1.444   8.181  -3.220  0.00  0.00    +0.035 A 
ATOM     24  C   UNL     1       1.058   9.267  -3.936  0.00  0.00    +0.020 A 
ATOM     25  C   UNL     1       1.384   9.316  -5.362  0.00  0.00    -0.001 A 
ATOM     26  C   UNL     1       1.013  10.410  -6.151  0.00  0.00    +0.013 A 
ATOM     27  C   UNL     1       1.332  10.426  -7.479  0.00  0.00    -0.050 A 
ATOM     28  C   UNL     1       2.023   9.367  -8.053  0.00  0.00    +0.005 A 
ATOM     29  C   UNL     1       2.400   8.280  -7.294  0.00  0.00    +0.026 A 
ATOM     30  C   UNL     1       2.084   8.241  -5.940  0.00  0.00    +0.049 A 
ATOM     31  N   UNL     1       2.449   7.166  -5.157  0.00  0.00    -0.322 N 
ATOM     32  H   UNL     1       2.932   6.425  -5.557  0.00  0.00    +0.169 HD
ATOM     33  C   UNL     1       2.150   7.131  -3.847  0.00  0.00    +0.254 A 
ATOM     34  O   UNL     1       2.492   6.167  -3.184  0.00  0.00    -0.268 OA
ATOM     35  C   UNL     1       0.931  11.604  -8.330  0.00  0.00    +0.044 C 
ENDBRANCH  22  23
ENDBRANCH   1  22
TORSDOF 6
