REMARK  Name = ZINC57934920
REMARK  5 active torsions:
REMARK  status: ('A' for Active; 'I' for Inactive)
REMARK    1  A    between atoms: C_1  and  C_2
REMARK    2  A    between atoms: C_2  and  C_3
REMARK    3  A    between atoms: N_7  and  C_18
REMARK    4  A    between atoms: C_18  and  C_19
REMARK    5  A    between atoms: C_24  and  C_25
REMARK                            x       y       z     vdW  Elec       q    Type
REMARK                         _______ _______ _______ _____ _____    ______ ____
ROOT
ATOM      1  C   UNL     1       0.502  -0.492  -1.164  0.00  0.00    +0.157 C 
ATOM      2  C   UNL     1       0.434  -1.996  -1.230  0.00  0.00    +0.240 C 
ATOM      3  O   UNL     1      -0.561  -2.533  -1.671  0.00  0.00    -0.273 OA
ATOM      4  N   UNL     1       1.463  -2.751  -0.806  0.00  0.00    -0.264 N 
ATOM      5  C   UNL     1       2.677  -2.163  -0.425  0.00  0.00    +0.061 A 
ATOM      6  C   UNL     1       3.659  -2.917   0.200  0.00  0.00    +0.075 A 
ATOM      7  C   UNL     1       4.852  -2.322   0.580  0.00  0.00    +0.168 A 
ATOM      8  C   UNL     1       5.066  -0.968   0.336  0.00  0.00    +0.168 A 
ATOM      9  C   UNL     1       4.087  -0.213  -0.291  0.00  0.00    +0.074 A 
ATOM     10  C   UNL     1       2.898  -0.809  -0.674  0.00  0.00    +0.053 A 
ATOM     11  N   UNL     1       1.900  -0.067  -1.331  0.00  0.00    -0.331 N 
ATOM     12  O   UNL     1       6.304  -0.630   0.804  0.00  0.00    -0.453 OA
ATOM     13  C   UNL     1       6.680  -1.694   1.699  0.00  0.00    +0.466 C 
ATOM     14  O   UNL     1       5.958  -2.834   1.198  0.00  0.00    -0.453 OA
ATOM     15  H   UNL     1       2.125   0.702  -1.879  0.00  0.00    +0.147 HD
ENDROOT
BRANCH   1  17
ATOM     16  C   UNL     1      -0.062   1.515   0.213  0.00  0.00    +0.006 C 
ATOM     17  C   UNL     1      -0.020  -0.014   0.193  0.00  0.00    +0.028 C 
ENDBRANCH   1  17
BRANCH   4  18
ATOM     18  C   UNL     1       1.314  -4.207  -0.741  0.00  0.00    +0.149 C 
BRANCH  18  19
ATOM     19  C   UNL     1       1.854  -4.824  -2.006  0.00  0.00    -0.027 A 
ATOM     20  C   UNL     1       2.471  -4.029  -2.954  0.00  0.00    +0.005 A 
ATOM     21  C   UNL     1       2.966  -4.594  -4.114  0.00  0.00    +0.000 A 
ATOM     22  C   UNL     1       2.844  -5.955  -4.326  0.00  0.00    +0.000 A 
ATOM     23  C   UNL     1       2.228  -6.750  -3.378  0.00  0.00    +0.003 A 
ATOM     24  C   UNL     1       1.736  -6.185  -2.216  0.00  0.00    -0.046 A 
ATOM     25  C   UNL     1       1.069  -7.052  -1.180  0.00  0.00    +0.044 C 
ENDBRANCH  18  19
ENDBRANCH   4  18
TORSDOF 3
