REMARK  Name = ZINC16026189
REMARK  6 active torsions:
REMARK  status: ('A' for Active; 'I' for Inactive)
REMARK    1  A    between atoms: C_1  and  C_2
REMARK    2  A    between atoms: C_7  and  C_8
REMARK    3  A    between atoms: C_17  and  C_20
REMARK    4  A    between atoms: C_20  and  C_21
REMARK    5  A    between atoms: N_26  and  C_29
REMARK    6  A    between atoms: C_29  and  C_30
REMARK                            x       y       z     vdW  Elec       q    Type
REMARK                         _______ _______ _______ _____ _____    ______ ____
ROOT
ATOM      1  C   UNL     1       3.792   0.982  -0.696  0.00  0.00    +0.044 C 
ATOM      2  C   UNL     1       3.111  -0.354  -0.540  0.00  0.00    -0.046 A 
ATOM      3  C   UNL     1       2.530  -0.961  -1.638  0.00  0.00    +0.004 A 
ATOM      4  C   UNL     1       1.905  -2.188  -1.496  0.00  0.00    +0.008 A 
ATOM      5  C   UNL     1       1.863  -2.800  -0.263  0.00  0.00    +0.004 A 
ATOM      6  C   UNL     1       2.445  -2.198   0.848  0.00  0.00    +0.042 A 
ATOM      7  C   UNL     1       3.077  -0.967   0.695  0.00  0.00    -0.026 A 
ATOM      8  C   UNL     1       3.719  -0.298   1.883  0.00  0.00    +0.046 C 
ATOM      9  N   UNL     1       2.274  -3.002   1.977  0.00  0.00    -0.283 N 
ATOM     10  C   UNL     1       1.599  -4.134   1.698  0.00  0.00    +0.243 C 
ATOM     11  O   UNL     1       1.304  -5.013   2.480  0.00  0.00    -0.273 OA
ATOM     12  C   UNL     1       1.280  -4.095   0.229  0.00  0.00    +0.136 C 
ATOM     13  C   UNL     1      -0.232  -4.161  -0.020  0.00  0.00    +0.122 C 
ATOM     14  C   UNL     1      -0.507  -5.653  -0.357  0.00  0.00    +0.107 C 
ATOM     15  C   UNL     1       0.868  -6.345  -0.245  0.00  0.00    +0.076 C 
ATOM     16  N   UNL     1       1.858  -5.253  -0.479  0.00  0.00    -0.295 NA
ATOM     17  C   UNL     1      -0.946  -5.610  -1.803  0.00  0.00    +0.227 C 
ATOM     18  O   UNL     1      -1.252  -6.574  -2.471  0.00  0.00    -0.275 OA
ATOM     19  N   UNL     1      -0.943  -4.342  -2.231  0.00  0.00    -0.237 N 
ATOM     20  C   UNL     1      -0.565  -3.432  -1.303  0.00  0.00    +0.229 C 
ATOM     21  O   UNL     1      -0.500  -2.232  -1.464  0.00  0.00    -0.275 OA
ATOM     22  H   UNL     1       2.604  -2.773   2.860  0.00  0.00    +0.155 HD
ATOM     23  H   UNL     1       1.969  -5.057  -1.463  0.00  0.00    +0.124 HD
ENDROOT
BRANCH  15  24
ATOM     24  C   UNL     1       1.040  -6.966   1.143  0.00  0.00    +0.115 C 
BRANCH  24  25
ATOM     25  C   UNL     1       0.549  -8.391   1.120  0.00  0.00    +0.212 C 
ATOM     26  O   UNL     1       0.106  -8.863   0.095  0.00  0.00    -0.276 OA
ATOM     27  N   UNL     1       0.604  -9.140   2.239  0.00  0.00    -0.329 N 
ATOM     28  H   UNL     1       0.959  -8.762   3.059  0.00  0.00    +0.145 HD
ATOM     29  H   UNL     1       0.288 -10.057   2.224  0.00  0.00    +0.145 HD
ENDBRANCH  24  25
ENDBRANCH  15  24
BRANCH  19  30
ATOM     30  C   UNL     1      -1.324  -3.966  -3.594  0.00  0.00    +0.151 C 
BRANCH  30  31
ATOM     31  C   UNL     1      -2.805  -3.692  -3.644  0.00  0.00    -0.030 A 
ATOM     32  C   UNL     1      -3.688  -4.718  -3.923  0.00  0.00    +0.005 A 
ATOM     33  C   UNL     1      -5.047  -4.467  -3.969  0.00  0.00    +0.000 A 
ATOM     34  C   UNL     1      -5.522  -3.190  -3.736  0.00  0.00    +0.000 A 
ATOM     35  C   UNL     1      -4.639  -2.164  -3.457  0.00  0.00    +0.000 A 
ATOM     36  C   UNL     1      -3.280  -2.416  -3.406  0.00  0.00    +0.005 A 
ENDBRANCH  30  31
ENDBRANCH  19  30
TORSDOF 4
