REMARK  Name = ZINC63291124
REMARK  15 active torsions:
REMARK  status: ('A' for Active; 'I' for Inactive)
REMARK    1  A    between atoms: C_1  and  C_2
REMARK    2  A    between atoms: C_2  and  C_3
REMARK    3  A    between atoms: C_7  and  C_33
REMARK    4  A    between atoms: C_8  and  N_9
REMARK    5  A    between atoms: N_9  and  C_10
REMARK    6  A    between atoms: C_10  and  C_12
REMARK    7  A    between atoms: C_10  and  C_13
REMARK    8  A    between atoms: C_13  and  O_14
REMARK    9  A    between atoms: O_14  and  C_15
REMARK   10  A    between atoms: C_16  and  C_18
REMARK   11  A    between atoms: C_18  and  S_19
REMARK   12  A    between atoms: S_19  and  C_20
REMARK   13  A    between atoms: C_26  and  O_30
REMARK   14  A    between atoms: O_30  and  C_31
REMARK   15  A    between atoms: C_31  and  C_32
REMARK                            x       y       z     vdW  Elec       q    Type
REMARK                         _______ _______ _______ _____ _____    ______ ____
ROOT
ATOM      1  N   UNL     1      -1.615  -0.739  -2.078  0.00  0.00    -0.265 N 
ATOM      2  C   UNL     1      -2.017   0.428  -2.620  0.00  0.00    +0.230 C 
ATOM      3  O   UNL     1      -1.752   0.682  -3.776  0.00  0.00    -0.274 OA
ENDROOT
BRANCH   1   9
ATOM      4  C   UNL     1      -1.268  -0.800   0.311  0.00  0.00    -0.026 A 
ATOM      5  C   UNL     1      -1.701  -1.154   1.575  0.00  0.00    +0.005 A 
ATOM      6  C   UNL     1      -2.907  -1.812   1.735  0.00  0.00    +0.001 A 
ATOM      7  C   UNL     1      -3.683  -2.117   0.632  0.00  0.00    +0.005 A 
ATOM      8  C   UNL     1      -3.256  -1.766  -0.634  0.00  0.00    -0.029 A 
ATOM      9  C   UNL     1      -2.048  -1.101  -0.798  0.00  0.00    +0.043 A 
ATOM     10  C   UNL     1      -4.103  -2.099  -1.835  0.00  0.00    +0.045 C 
BRANCH   4  12
ATOM     11  C   UNL     1      -0.059   1.324   0.728  0.00  0.00    +0.009 C 
ATOM     12  C   UNL     1       0.046  -0.084   0.138  0.00  0.00    +0.033 C 
ENDBRANCH   4  12
ENDBRANCH   1   9
BRANCH   1  13
ATOM     13  C   UNL     1      -0.724  -1.627  -2.829  0.00  0.00    +0.104 C 
ATOM     14  C   UNL     1      -1.487  -2.891  -3.233  0.00  0.00    +0.031 C 
BRANCH  13  15
ATOM     15  C   UNL     1       0.470  -2.010  -1.953  0.00  0.00    +0.182 C 
BRANCH  15  16
ATOM     16  O   UNL     1       0.014  -2.764  -0.828  0.00  0.00    -0.381 OA
ATOM     17  C   UNL     1       1.057  -3.174   0.058  0.00  0.00    +0.194 C 
ENDBRANCH  15  16
ENDBRANCH  13  15
ENDBRANCH   1  13
BRANCH   2  18
ATOM     18  C   UNL     1      -2.796   1.416  -1.791  0.00  0.00    +0.169 C 
BRANCH  18  19
ATOM     19  S   UNL     1      -3.225   2.855  -2.809  0.00  0.00    -0.106 S 
BRANCH  19  20
ATOM     20  C   UNL     1      -4.146   3.933  -1.678  0.00  0.00    +0.236 C 
ATOM     21  N   UNL     1      -5.312   3.221  -1.141  0.00  0.00    -0.355 N 
ATOM     22  C   UNL     1      -5.176   3.165   0.152  0.00  0.00    +0.061 A 
ATOM     23  C   UNL     1      -6.016   2.584   1.211  0.00  0.00    +0.031 A 
ATOM     24  C   UNL     1      -5.627   2.672   2.497  0.00  0.00    +0.048 A 
ATOM     25  C   UNL     1      -4.387   3.333   2.882  0.00  0.00    +0.123 A 
ATOM     26  C   UNL     1      -3.560   3.892   1.966  0.00  0.00    +0.073 A 
ATOM     27  C   UNL     1      -3.909   3.839   0.545  0.00  0.00    +0.064 A 
ATOM     28  N   UNL     1      -3.309   4.288  -0.526  0.00  0.00    -0.355 N 
ATOM     29  H   UNL     1      -6.050   2.858  -1.657  0.00  0.00    +0.162 HD
ATOM     30  H   UNL     1      -2.466   4.766  -0.554  0.00  0.00    +0.162 HD
BRANCH  25  31
ATOM     31  O   UNL     1      -4.051   3.389   4.195  0.00  0.00    -0.492 OA
BRANCH  31  32
ATOM     32  C   UNL     1      -4.955   2.786   5.123  0.00  0.00    +0.225 C 
ATOM     33  C   UNL     1      -4.411   2.949   6.544  0.00  0.00    +0.048 C 
ENDBRANCH  31  32
ENDBRANCH  25  31
ENDBRANCH  19  20
ENDBRANCH  18  19
ENDBRANCH   2  18
TORSDOF 10
