REMARK  Name = ZINC59045320
REMARK  10 active torsions:
REMARK  status: ('A' for Active; 'I' for Inactive)
REMARK    1  A    between atoms: C_1  and  C_2
REMARK    2  A    between atoms: C_2  and  C_3
REMARK    3  A    between atoms: C_3  and  C_4
REMARK    4  A    between atoms: C_4  and  S_5
REMARK    5  A    between atoms: S_5  and  C_6
REMARK    6  A    between atoms: C_12  and  C_14
REMARK    7  A    between atoms: C_14  and  S_15
REMARK    8  A    between atoms: S_15  and  C_16
REMARK    9  A    between atoms: C_19  and  C_22
REMARK   10  A    between atoms: N_20  and  N_21
REMARK                            x       y       z     vdW  Elec       q    Type
REMARK                         _______ _______ _______ _____ _____    ______ ____
ROOT
ATOM      1  S   UNL     1       0.668 -11.687  -0.975  0.00  0.00    -0.075 S 
ENDROOT
BRANCH   1   2
ATOM      2  C   UNL     1       0.935 -13.374  -1.407  0.00  0.00    +0.209 A 
ATOM      3  N   UNL     1       1.559 -13.816  -2.476  0.00  0.00    -0.121 NA
ATOM      4  N   UNL     1       1.573 -15.101  -2.479  0.00  0.00    -0.127 NA
ATOM      5  C   UNL     1       0.959 -15.558  -1.413  0.00  0.00    +0.182 A 
ATOM      6  N   UNL     1       0.537 -14.466  -0.691  0.00  0.00    -0.224 N 
BRANCH   5   7
ATOM      7  C   UNL     1       0.764 -16.979  -1.053  0.00  0.00    +0.021 A 
ATOM      8  C   UNL     1      -0.167 -17.332  -0.076  0.00  0.00    +0.013 A 
ATOM      9  C   UNL     1      -0.344 -18.660   0.255  0.00  0.00    +0.016 A 
ATOM     10  C   UNL     1       0.399 -19.640  -0.379  0.00  0.00    +0.018 A 
ATOM     11  C   UNL     1       1.325 -19.295  -1.349  0.00  0.00    +0.016 A 
ATOM     12  C   UNL     1       1.507 -17.972  -1.694  0.00  0.00    +0.013 A 
ATOM     13 BR   UNL     1       0.150 -21.457   0.082  0.00  0.00    -0.050 Br
ENDBRANCH   5   7
BRANCH   6  14
ATOM     14  N   UNL     1      -0.141 -14.473   0.495  0.00  0.00    -0.295 N 
ATOM     15  H   UNL     1      -1.139 -14.485   0.341  0.00  0.00    +0.163 HD
ATOM     16  H   UNL     1       0.144 -15.251   1.071  0.00  0.00    +0.163 HD
ENDBRANCH   6  14
ENDBRANCH   1   2
BRANCH   1  17
ATOM     17  C   UNL     1       1.435 -10.759  -2.333  0.00  0.00    +0.173 C 
BRANCH  17  24
ATOM     18  C   UNL     1       1.529  -4.368  -2.621  0.00  0.00    +0.160 A 
ATOM     19  N   UNL     1       0.998  -5.132  -1.678  0.00  0.00    -0.133 NA
ATOM     20  N   UNL     1       1.044  -6.391  -1.734  0.00  0.00    -0.125 NA
ATOM     21  C   UNL     1       1.626  -7.027  -2.738  0.00  0.00    +0.189 A 
ATOM     22  S   UNL     1       2.164  -5.630  -3.721  0.00  0.00    -0.024 S 
ATOM     23  N   UNL     1       1.772  -8.393  -2.968  0.00  0.00    -0.263 N 
ATOM     24  C   UNL     1       1.277  -9.281  -2.084  0.00  0.00    +0.229 C 
ATOM     25  O   UNL     1       0.702  -8.892  -1.089  0.00  0.00    -0.275 OA
ATOM     26  H   UNL     1       2.232  -8.704  -3.763  0.00  0.00    +0.157 HD
BRANCH  18  27
ATOM     27  S   UNL     1       1.588  -2.612  -2.758  0.00  0.00    -0.097 S 
BRANCH  27  28
ATOM     28  C   UNL     1       0.739  -2.027  -1.265  0.00  0.00    +0.076 C 
BRANCH  28  29
ATOM     29  C   UNL     1       0.718  -0.497  -1.257  0.00  0.00    +0.011 C 
BRANCH  29  31
ATOM     30  C   UNL     1      -0.019   1.526   0.010  0.00  0.00    +0.004 C 
ATOM     31  C   UNL     1       0.002  -0.004   0.002  0.00  0.00    -0.003 C 
ENDBRANCH  29  31
ENDBRANCH  28  29
ENDBRANCH  27  28
ENDBRANCH  18  27
ENDBRANCH  17  24
ENDBRANCH   1  17
TORSDOF 9
