REMARK  Name = ZINC08130950
REMARK  7 active torsions:
REMARK  status: ('A' for Active; 'I' for Inactive)
REMARK    1  A    between atoms: C_1  and  C_2
REMARK    2  A    between atoms: C_7  and  N_12
REMARK    3  A    between atoms: C_9  and  C_11
REMARK    4  A    between atoms: C_13  and  C_15
REMARK    5  A    between atoms: C_15  and  N_55
REMARK    6  A    between atoms: N_18  and  S_21
REMARK    7  A    between atoms: S_21  and  C_24
REMARK                            x       y       z     vdW  Elec       q    Type
REMARK                         _______ _______ _______ _____ _____    ______ ____
ROOT
ATOM      1  C   UNL     1       1.344   2.016   0.000  0.00  0.00    -0.061 C 
ATOM      2  C   UNL     1       2.072   1.594   1.280  0.00  0.00    +0.091 C 
ATOM      3  N   UNL     1       1.995   0.130   1.400  0.00  0.00    -0.180 NA
ATOM      4  C   UNL     1       0.675  -0.509   1.282  0.00  0.00    +0.091 C 
ATOM      5  C   UNL     1       0.002  -0.004   0.002  0.00  0.00    -0.061 C 
ATOM      6  N   UNL     1      -0.032   1.474   0.035  0.00  0.00    +0.387 N 
ATOM      7  H   UNL     1      -0.487   1.777   0.905  0.00  0.00    -0.081 HD
ENDROOT
BRANCH   3   8
ATOM      8  S   UNL     1       3.357  -0.775   1.661  0.00  0.00    +0.067 S 
ATOM      9  O   UNL     1       4.308   0.089   2.268  0.00  0.00    -0.152 OA
ATOM     10  O   UNL     1       2.930  -1.986   2.271  0.00  0.00    -0.152 OA
BRANCH   8  11
ATOM     11  C   UNL     1       4.006  -1.208   0.082  0.00  0.00    +0.143 A 
ATOM     12  C   UNL     1       4.903  -0.540  -0.685  0.00  0.00    +0.036 A 
ATOM     13  C   UNL     1       5.271  -1.075  -1.905  0.00  0.00    +0.010 A 
ATOM     14  C   UNL     1       4.725  -2.252  -2.299  0.00  0.00    +0.047 A 
ATOM     15  S   UNL     1       3.659  -2.643  -0.922  0.00  0.00    -0.077 S 
ENDBRANCH   8  11
ENDBRANCH   3   8
BRANCH   6  16
ATOM     16  C   UNL     1      -0.806   1.987  -1.115  0.00  0.00    +0.019 C 
BRANCH  16  18
ATOM     17  N   UNL     1      -1.709   4.166  -1.857  0.00  0.00    -0.314 N 
ATOM     18  C   UNL     1      -1.010   3.470  -0.939  0.00  0.00    +0.197 C 
ATOM     19  O   UNL     1      -0.545   4.036   0.027  0.00  0.00    -0.278 OA
ATOM     20  H   UNL     1      -2.081   3.714  -2.630  0.00  0.00    +0.149 HD
BRANCH  17  26
ATOM     21  C   UNL     1      -1.109   8.374  -2.228  0.00  0.00    +0.008 C 
ATOM     22  C   UNL     1      -2.352   7.761  -2.874  0.00  0.00    -0.009 C 
ATOM     23  C   UNL     1      -3.567   8.005  -1.977  0.00  0.00    +0.003 C 
ATOM     24  C   UNL     1      -3.331   7.358  -0.611  0.00  0.00    +0.002 C 
ATOM     25  C   UNL     1      -3.123   5.853  -0.789  0.00  0.00    +0.022 C 
ATOM     26  C   UNL     1      -1.908   5.608  -1.686  0.00  0.00    +0.076 C 
ATOM     27  C   UNL     1      -2.144   6.255  -3.053  0.00  0.00    +0.009 C 
ATOM     28  C   UNL     1      -0.929   6.010  -3.950  0.00  0.00    +0.009 C 
ENDBRANCH  17  26
ENDBRANCH  16  18
ENDBRANCH   6  16
TORSDOF 5
