REMARK  Name = ZINC12800687
REMARK  9 active torsions:
REMARK  status: ('A' for Active; 'I' for Inactive)
REMARK    1  A    between atoms: C_1  and  C_2
REMARK    2  A    between atoms: C_2  and  N_3
REMARK    3  A    between atoms: C_4  and  C_6
REMARK    4  A    between atoms: C_6  and  O_7
REMARK    5  A    between atoms: O_7  and  C_8
REMARK    6  A    between atoms: C_11  and  C_16
REMARK    7  A    between atoms: C_13  and  O_14
REMARK    8  A    between atoms: O_14  and  C_15
REMARK    9  A    between atoms: C_30  and  C_31
REMARK                            x       y       z     vdW  Elec       q    Type
REMARK                         _______ _______ _______ _____ _____    ______ ____
ROOT
ATOM      1  C   UNL     1       0.002  -0.004   0.002  0.00  0.00    +0.013 C 
ATOM      2  C   UNL     1      -0.026   1.332  -0.151  0.00  0.00    -0.021 C 
ATOM      3  C   UNL     1      -1.329   2.065  -0.383  0.00  0.00    +0.037 C 
ATOM      4  C   UNL     1      -1.089   3.104  -1.481  0.00  0.00    +0.009 C 
ATOM      5  C   UNL     1      -0.077   4.137  -0.990  0.00  0.00    +0.038 C 
ATOM      6  C   UNL     1       1.188   3.478  -0.516  0.00  0.00    -0.007 A 
ATOM      7  C   UNL     1       1.217   2.133  -0.103  0.00  0.00    +0.072 A 
ATOM      8  N   UNL     1       2.327   1.558   0.329  0.00  0.00    -0.247 NA
ATOM      9  C   UNL     1       3.490   2.203   0.399  0.00  0.00    +0.072 A 
ATOM     10  C   UNL     1       4.652   1.560   0.867  0.00  0.00    +0.028 A 
ATOM     11  C   UNL     1       5.826   2.245   0.924  0.00  0.00    +0.002 A 
ATOM     12  C   UNL     1       5.901   3.578   0.527  0.00  0.00    +0.001 A 
ATOM     13  C   UNL     1       4.795   4.234   0.069  0.00  0.00    +0.011 A 
ATOM     14  C   UNL     1       3.572   3.560  -0.002  0.00  0.00    +0.015 A 
ATOM     15  C   UNL     1       2.359   4.223  -0.481  0.00  0.00    +0.077 A 
ENDROOT
BRANCH   1  19
ATOM     16  C   UNL     1      -3.632  -2.174   0.349  0.00  0.00    +0.163 A 
ATOM     17  C   UNL     1      -3.543  -0.885   0.856  0.00  0.00    +0.050 A 
ATOM     18  C   UNL     1      -2.364  -0.179   0.750  0.00  0.00    +0.012 A 
ATOM     19  C   UNL     1      -1.257  -0.758   0.121  0.00  0.00    -0.021 A 
ATOM     20  C   UNL     1      -1.347  -2.057  -0.389  0.00  0.00    +0.057 A 
ATOM     21  C   UNL     1      -2.531  -2.760  -0.275  0.00  0.00    +0.162 A 
BRANCH  21  22
ATOM     22  O   UNL     1      -2.623  -4.023  -0.770  0.00  0.00    -0.491 OA
ATOM     23  C   UNL     1      -1.456  -4.560  -1.396  0.00  0.00    +0.277 C 
ENDBRANCH  21  22
BRANCH  16  24
ATOM     24  O   UNL     1      -4.796  -2.868   0.460  0.00  0.00    -0.479 OA
BRANCH  24  25
ATOM     25  C   UNL     1      -5.884  -2.208   1.111  0.00  0.00    +0.324 C 
BRANCH  25  27
ATOM     26  N   UNL     1      -8.231  -2.711   1.709  0.00  0.00    -0.313 N 
ATOM     27  C   UNL     1      -7.080  -3.124   1.141  0.00  0.00    +0.251 C 
ATOM     28  O   UNL     1      -7.008  -4.232   0.653  0.00  0.00    -0.272 OA
ATOM     29  H   UNL     1      -8.288  -1.825   2.099  0.00  0.00    +0.149 HD
BRANCH  26  31
ATOM     30  C   UNL     1     -10.559  -2.895   2.434  0.00  0.00    +0.024 C 
ATOM     31  C   UNL     1      -9.394  -3.601   1.738  0.00  0.00    +0.101 C 
ENDBRANCH  26  31
ENDBRANCH  25  27
ENDBRANCH  24  25
ENDBRANCH  16  24
ENDBRANCH   1  19
BRANCH  15  32
ATOM     32  C   UNL     1       2.380   5.637  -0.913  0.00  0.00    +0.388 C 
ATOM     33  O   UNL     1       2.610   5.914  -2.073  0.00  0.00    -0.241 OA
ATOM     34  O   UNL     1       2.142   6.617  -0.020  0.00  0.00    -0.241 OA
ENDBRANCH  15  32
TORSDOF 7
