REMARK  Name = ZINC14548267
REMARK  6 active torsions:
REMARK  status: ('A' for Active; 'I' for Inactive)
REMARK    1  A    between atoms: C_1  and  C_2
REMARK    2  A    between atoms: C_2  and  C_3
REMARK    3  A    between atoms: C_3  and  C_4
REMARK    4  A    between atoms: N_6  and  C_7
REMARK    5  A    between atoms: C_20  and  C_23
REMARK    6  A    between atoms: C_32  and  O_33
REMARK                            x       y       z     vdW  Elec       q    Type
REMARK                         _______ _______ _______ _____ _____    ______ ____
ROOT
ATOM      1  C   UNL     1      -4.100   0.638  -0.167  0.00  0.00    +0.039 A 
ATOM      2  C   UNL     1      -4.891  -0.501  -0.168  0.00  0.00    +0.025 A 
ATOM      3  C   UNL     1      -4.425  -1.663  -0.751  0.00  0.00    +0.023 A 
ATOM      4  C   UNL     1      -3.173  -1.687  -1.332  0.00  0.00    +0.062 A 
ATOM      5  C   UNL     1      -2.373  -0.543  -1.332  0.00  0.00    +0.052 A 
ATOM      6  C   UNL     1      -2.834   0.622  -0.752  0.00  0.00    +0.003 A 
ATOM      7  C   UNL     1      -2.032   1.895  -0.717  0.00  0.00    +0.050 C 
ATOM      8  C   UNL     1      -1.739   2.228   0.737  0.00  0.00    -0.023 C 
ATOM      9  C   UNL     1      -0.548   1.795   1.079  0.00  0.00    -0.030 C 
ATOM     10  C   UNL     1       0.122   1.111  -0.098  0.00  0.00    +0.033 C 
ATOM     11  C   UNL     1      -0.628   1.691  -1.322  0.00  0.00    +0.029 C 
ATOM     12  C   UNL     1      -0.674   0.669  -2.447  0.00  0.00    +0.109 C 
ATOM     13  N   UNL     1      -1.113  -0.627  -1.928  0.00  0.00    -0.335 N 
ATOM     14 CL   UNL     1      -2.589  -3.148  -2.064  0.00  0.00    -0.082 Cl
ATOM     15  H   UNL     1      -1.102  -1.329  -2.653  0.00  0.00    +0.147 HD
ENDROOT
BRANCH  12  16
ATOM     16  C   UNL     1      -1.637   1.136  -3.507  0.00  0.00    +0.022 A 
ATOM     17  C   UNL     1      -2.021   0.270  -4.544  0.00  0.00    -0.009 A 
ATOM     18  C   UNL     1      -1.530  -1.045  -4.614  0.00  0.00    +0.009 A 
ATOM     19  C   UNL     1      -1.928  -1.860  -5.629  0.00  0.00    +0.001 A 
ATOM     20  C   UNL     1      -2.820  -1.411  -6.601  0.00  0.00    +0.001 A 
ATOM     21  C   UNL     1      -3.320  -0.145  -6.563  0.00  0.00    +0.008 A 
ATOM     22  C   UNL     1      -2.932   0.725  -5.530  0.00  0.00    -0.017 A 
ATOM     23  C   UNL     1      -3.428   2.038  -5.459  0.00  0.00    +0.012 A 
ATOM     24  C   UNL     1      -3.033   2.854  -4.446  0.00  0.00    +0.046 A 
ATOM     25  C   UNL     1      -2.139   2.406  -3.469  0.00  0.00    +0.122 A 
BRANCH  25  26
ATOM     26  O   UNL     1      -1.763   3.245  -2.468  0.00  0.00    -0.506 OA
ATOM     27  H   UNL     1      -1.027   3.828  -2.698  0.00  0.00    +0.292 HD
ENDBRANCH  25  26
ENDBRANCH  12  16
BRANCH   1  30
ATOM     28  C   UNL     1      -5.495   1.748   1.410  0.00  0.00    +0.217 C 
ATOM     29  O   UNL     1      -5.960   0.676   1.735  0.00  0.00    -0.275 OA
ATOM     30  N   UNL     1      -4.576   1.814   0.426  0.00  0.00    -0.285 N 
ATOM     31  H   UNL     1      -4.244   2.675   0.129  0.00  0.00    +0.155 HD
BRANCH  28  32
ATOM     32  C   UNL     1      -5.944   3.006   2.106  0.00  0.00    +0.096 C 
BRANCH  32  34
ATOM     33  C   UNL     1      -7.439   3.933   3.880  0.00  0.00    +0.004 C 
ATOM     34  C   UNL     1      -6.983   2.656   3.173  0.00  0.00    +0.006 C 
ENDBRANCH  32  34
ENDBRANCH  28  32
ENDBRANCH   1  30
TORSDOF 5
