REMARK  Name = ZINC66976354
REMARK  8 active torsions:
REMARK  status: ('A' for Active; 'I' for Inactive)
REMARK    1  A    between atoms: C_1  and  C_2
REMARK    2  A    between atoms: N_8  and  C_9
REMARK    3  A    between atoms: C_9  and  C_10
REMARK    4  A    between atoms: C_10  and  C_11
REMARK    5  A    between atoms: C_11  and  N_12
REMARK    6  A    between atoms: N_15  and  N_16
REMARK    7  A    between atoms: C_17  and  C_19
REMARK    8  A    between atoms: C_19  and  C_20
REMARK                            x       y       z     vdW  Elec       q    Type
REMARK                         _______ _______ _______ _____ _____    ______ ____
ROOT
ATOM      1  N   UNL     1       0.983  -0.177   6.069  0.00  0.00    -0.298 N 
ATOM      2  C   UNL     1       0.579   0.209   7.295  0.00  0.00    +0.316 C 
ATOM      3  O   UNL     1      -0.429   0.877   7.421  0.00  0.00    -0.251 OA
ATOM      4  N   UNL     1       1.292  -0.145   8.382  0.00  0.00    -0.218 N 
ATOM      5  H   UNL     1       1.787  -0.710   5.968  0.00  0.00    +0.150 HD
ATOM      6  H   UNL     1       1.002   0.132   9.265  0.00  0.00    +0.174 HD
ENDROOT
BRANCH   4   7
ATOM      7  N   UNL     1       2.454  -0.915   8.237  0.00  0.00    -0.233 N 
ATOM      8  C   UNL     1       3.167  -1.270   9.324  0.00  0.00    +0.234 C 
ATOM      9  O   UNL     1       2.804  -0.923  10.428  0.00  0.00    -0.274 OA
ATOM     10  H   UNL     1       2.745  -1.193   7.354  0.00  0.00    +0.173 HD
BRANCH   8  11
ATOM     11  C   UNL     1       4.417  -2.098   9.168  0.00  0.00    +0.135 C 
BRANCH  11  12
ATOM     12  C   UNL     1       5.022  -2.355  10.524  0.00  0.00    -0.003 A 
ATOM     13  C   UNL     1       6.020  -1.528  11.004  0.00  0.00    +0.007 A 
ATOM     14  C   UNL     1       6.575  -1.763  12.248  0.00  0.00    +0.000 A 
ATOM     15  C   UNL     1       6.132  -2.826  13.014  0.00  0.00    +0.003 A 
ATOM     16  C   UNL     1       5.134  -3.654  12.536  0.00  0.00    +0.038 A 
ATOM     17  C   UNL     1       4.574  -3.416  11.292  0.00  0.00    +0.127 A 
ATOM     18  F   UNL     1       3.595  -4.222  10.826  0.00  0.00    -0.205 F 
ENDBRANCH  11  12
ENDBRANCH   8  11
ENDBRANCH   4   7
BRANCH   1  19
ATOM     19  C   UNL     1       0.207   0.209   4.887  0.00  0.00    +0.104 C 
BRANCH  19  20
ATOM     20  C   UNL     1       0.877  -0.353   3.631  0.00  0.00    +0.000 C 
BRANCH  20  21
ATOM     21  C   UNL     1       0.067   0.050   2.397  0.00  0.00    -0.077 C 
BRANCH  21  28
ATOM     22  C   UNL     1      -0.019   1.526   0.010  0.00  0.00    -0.013 C 
ATOM     23  C   UNL     1       0.002  -0.004   0.002  0.00  0.00    -0.072 C 
ATOM     24  C   UNL     1       0.717  -0.497  -1.258  0.00  0.00    -0.016 C 
ATOM     25  C   UNL     1       0.735  -2.028  -1.262  0.00  0.00    -0.003 C 
ATOM     26  C   UNL     1       1.410  -2.524   0.020  0.00  0.00    -0.019 C 
ATOM     27  C   UNL     1       0.669  -1.956   1.232  0.00  0.00    -0.078 C 
ATOM     28  N   UNL     1       0.711  -0.490   1.192  0.00  0.00    +0.381 N 
ATOM     29  H   UNL     1       1.671  -0.182   1.159  0.00  0.00    -0.081 HD
ENDBRANCH  21  28
ENDBRANCH  20  21
ENDBRANCH  19  20
ENDBRANCH   1  19
TORSDOF 7
