REMARK  Name = ZINC35937660
REMARK  4 active torsions:
REMARK  status: ('A' for Active; 'I' for Inactive)
REMARK    1  A    between atoms: C_1  and  C_2
REMARK    2  A    between atoms: C_2  and  C_3
REMARK    3  A    between atoms: C_3  and  C_5
REMARK    4  A    between atoms: C_3  and  C_11
REMARK                            x       y       z     vdW  Elec       q    Type
REMARK                         _______ _______ _______ _____ _____    ______ ____
ROOT
ATOM      1  C   UNL     1       2.022   0.011  -1.292  0.00  0.00    +0.223 C 
ATOM      2  O   UNL     1       2.922  -0.774  -1.503  0.00  0.00    -0.275 OA
ATOM      3  N   UNL     1       2.295   1.319  -1.117  0.00  0.00    -0.301 N 
ATOM      4  C   UNL     1       1.208   2.297  -0.968  0.00  0.00    +0.111 C 
ATOM      5  C   UNL     1       1.407   3.415  -1.995  0.00  0.00    +0.064 C 
ATOM      6  C   UNL     1       2.810   4.007  -1.832  0.00  0.00    +0.102 C 
ATOM      7  C   UNL     1       3.854   2.920  -2.096  0.00  0.00    +0.064 C 
ATOM      8  C   UNL     1       3.684   1.793  -1.066  0.00  0.00    +0.111 C 
ATOM      9  N   UNL     1       2.966   4.503  -0.459  0.00  0.00    -0.323 N 
ATOM     10  C   UNL     1       2.340   5.694  -0.110  0.00  0.00    +0.041 A 
ATOM     11  C   UNL     1       1.901   5.942   1.179  0.00  0.00    +0.024 A 
ATOM     12  C   UNL     1       1.280   7.142   1.470  0.00  0.00    +0.002 A 
ATOM     13  C   UNL     1       1.093   8.097   0.483  0.00  0.00    +0.001 A 
ATOM     14  C   UNL     1       1.526   7.866  -0.806  0.00  0.00    +0.015 A 
ATOM     15  C   UNL     1       2.156   6.662  -1.113  0.00  0.00    +0.058 A 
ATOM     16  C   UNL     1       2.646   6.367  -2.472  0.00  0.00    +0.247 C 
ATOM     17  O   UNL     1       2.740   7.253  -3.298  0.00  0.00    -0.270 OA
ATOM     18  N   UNL     1       2.991   5.101  -2.787  0.00  0.00    -0.290 N 
ATOM     19  H   UNL     1       3.494   4.011   0.190  0.00  0.00    +0.148 HD
ATOM     20  H   UNL     1       3.365   4.912  -3.662  0.00  0.00    +0.151 HD
ENDROOT
BRANCH   1  21
ATOM     21  C   UNL     1       0.597  -0.477  -1.226  0.00  0.00    +0.105 C 
BRANCH  21  22
ATOM     22  C   UNL     1       0.018  -0.527  -2.616  0.00  0.00    -0.036 A 
ATOM     23  C   UNL     1       0.598  -1.333  -3.578  0.00  0.00    +0.004 A 
ATOM     24  C   UNL     1       0.067  -1.379  -4.854  0.00  0.00    +0.000 A 
ATOM     25  C   UNL     1      -1.045  -0.619  -5.167  0.00  0.00    +0.000 A 
ATOM     26  C   UNL     1      -1.625   0.186  -4.205  0.00  0.00    +0.000 A 
ATOM     27  C   UNL     1      -1.096   0.229  -2.928  0.00  0.00    +0.004 A 
ENDBRANCH  21  22
BRANCH  21  29
ATOM     28  C   UNL     1       1.021  -1.804   0.849  0.00  0.00    +0.005 C 
ATOM     29  C   UNL     1       0.566  -1.878  -0.610  0.00  0.00    +0.014 C 
ENDBRANCH  21  29
ENDBRANCH   1  21
TORSDOF 3
