REMARK  Name = ZINC67602448
REMARK  14 active torsions:
REMARK  status: ('A' for Active; 'I' for Inactive)
REMARK    1  A    between atoms: C_1  and  C_2
REMARK    2  A    between atoms: C_6  and  C_29
REMARK    3  A    between atoms: C_7  and  O_8
REMARK    4  A    between atoms: O_8  and  C_9
REMARK    5  A    between atoms: C_9  and  C_10
REMARK    6  A    between atoms: C_10  and  C_12
REMARK    7  A    between atoms: C_10  and  O_28
REMARK    8  A    between atoms: C_12  and  N_13
REMARK    9  A    between atoms: N_16  and  C_17
REMARK   10  A    between atoms: C_17  and  C_18
REMARK   11  A    between atoms: C_18  and  C_20
REMARK   12  A    between atoms: C_18  and  N_25
REMARK   13  A    between atoms: N_25  and  C_26
REMARK   14  A    between atoms: N_25  and  C_27
REMARK                            x       y       z     vdW  Elec       q    Type
REMARK                         _______ _______ _______ _____ _____    ______ ____
ROOT
ATOM      1  N   UNL     1      -1.977   2.296   6.138  0.00  0.00    -0.297 N 
ATOM      2  C   UNL     1      -3.075   2.680   6.820  0.00  0.00    +0.300 C 
ATOM      3  O   UNL     1      -4.171   2.272   6.487  0.00  0.00    -0.253 OA
ATOM      4  N   UNL     1      -2.957   3.515   7.871  0.00  0.00    -0.301 N 
ATOM      5  H   UNL     1      -1.103   2.621   6.404  0.00  0.00    +0.150 HD
ATOM      6  H   UNL     1      -2.083   3.841   8.137  0.00  0.00    +0.150 HD
ENDROOT
BRANCH   1   7
ATOM      7  C   UNL     1      -2.105   1.388   4.996  0.00  0.00    +0.140 C 
BRANCH   7   8
ATOM      8  C   UNL     1      -0.721   1.114   4.405  0.00  0.00    +0.169 C 
BRANCH   8   9
ATOM      9  O   UNL     1       0.074   0.409   5.361  0.00  0.00    -0.387 OA
ATOM     10  H   UNL     1      -0.295  -0.443   5.629  0.00  0.00    +0.210 HD
ENDBRANCH   8   9
BRANCH   8  11
ATOM     11  C   UNL     1      -0.865   0.267   3.139  0.00  0.00    +0.261 C 
BRANCH  11  12
ATOM     12  O   UNL     1       0.415   0.109   2.523  0.00  0.00    -0.489 OA
BRANCH  12  19
ATOM     13  C   UNL     1       0.070   1.486   0.081  0.00  0.00    +0.047 C 
ATOM     14  C   UNL     1       0.300  -0.002   0.149  0.00  0.00    -0.009 A 
ATOM     15  C   UNL     1       0.355  -0.747  -1.012  0.00  0.00    +0.007 A 
ATOM     16  C   UNL     1       0.567  -2.112  -0.950  0.00  0.00    +0.001 A 
ATOM     17  C   UNL     1       0.724  -2.734   0.274  0.00  0.00    +0.007 A 
ATOM     18  C   UNL     1       0.669  -1.994   1.439  0.00  0.00    -0.009 A 
ATOM     19  C   UNL     1       0.463  -0.623   1.379  0.00  0.00    +0.126 A 
ATOM     20  C   UNL     1       0.840  -2.673   2.773  0.00  0.00    +0.047 C 
ENDBRANCH  12  19
ENDBRANCH  11  12
ENDBRANCH   8  11
ENDBRANCH   7   8
ENDBRANCH   1   7
BRANCH   4  21
ATOM     21  C   UNL     1      -4.150   3.932   8.612  0.00  0.00    +0.095 C 
BRANCH  21  22
ATOM     22  C   UNL     1      -3.733   4.782   9.814  0.00  0.00    -0.020 C 
BRANCH  22  23
ATOM     23  C   UNL     1      -3.083   6.053   9.329  0.00  0.00    -0.052 A 
ATOM     24  C   UNL     1      -1.706   6.172   9.307  0.00  0.00    +0.009 A 
ATOM     25  C   UNL     1      -1.153   7.328   8.865  0.00  0.00    +0.045 A 
ATOM     26  S   UNL     1      -2.598   8.297   8.462  0.00  0.00    -0.105 S 
ATOM     27  C   UNL     1      -3.840   7.093   8.904  0.00  0.00    +0.047 A 
ENDBRANCH  22  23
BRANCH  22  28
ATOM     28  N   UNL     1      -4.919   5.114  10.615  0.00  0.00    +0.382 N 
ATOM     29  C   UNL     1      -5.558   3.875  11.078  0.00  0.00    -0.096 C 
ATOM     30  C   UNL     1      -4.516   5.920  11.775  0.00  0.00    -0.096 C 
ATOM     31  H   UNL     1      -5.570   5.638  10.050  0.00  0.00    -0.082 HD
ENDBRANCH  22  28
ENDBRANCH  21  22
ENDBRANCH   4  21
TORSDOF 10
