REMARK  Name = ZINC59474832
REMARK  7 active torsions:
REMARK  status: ('A' for Active; 'I' for Inactive)
REMARK    1  A    between atoms: C_14  and  C_15
REMARK    2  A    between atoms: N_16  and  C_17
REMARK    3  A    between atoms: C_24  and  S_26
REMARK    4  A    between atoms: S_26  and  C_27
REMARK    5  A    between atoms: C_27  and  C_28
REMARK    6  A    between atoms: N_30  and  C_31
REMARK    7  A    between atoms: C_31  and  C_32
REMARK                            x       y       z     vdW  Elec       q    Type
REMARK                         _______ _______ _______ _____ _____    ______ ____
ROOT
ATOM      1  C   UNL     1       7.274   0.356   0.029  0.00  0.00    +0.065 A 
ATOM      2  C   UNL     1       7.451   1.401  -0.889  0.00  0.00    +0.030 A 
ATOM      3  C   UNL     1       8.590   2.136  -0.913  0.00  0.00    +0.031 A 
ATOM      4  C   UNL     1       9.649   1.875  -0.009  0.00  0.00    +0.080 A 
ATOM      5  C   UNL     1       9.448   0.815   0.907  0.00  0.00    +0.042 A 
ATOM      6  C   UNL     1       8.298   0.074   0.941  0.00  0.00    +0.045 A 
ATOM      7  S   UNL     1      10.965   0.820   1.832  0.00  0.00    -0.061 S 
ATOM      8  C   UNL     1      11.746   2.180   0.974  0.00  0.00    +0.136 A 
ATOM      9  N   UNL     1      10.834   2.514   0.088  0.00  0.00    -0.233 NA
ENDROOT
BRANCH   1  11
ATOM     10  C   UNL     1       4.963   0.235  -0.046  0.00  0.00    +0.120 C 
ATOM     11  N   UNL     1       6.119  -0.372   0.037  0.00  0.00    -0.255 NA
BRANCH  10  25
ATOM     12  C   UNL     1      -0.016   1.354   0.057  0.00  0.00    +0.001 A 
ATOM     13  C   UNL     1       1.161   2.101   0.050  0.00  0.00    +0.001 A 
ATOM     14  C   UNL     1       2.384   1.506   0.019  0.00  0.00    +0.009 A 
ATOM     15  C   UNL     1       2.473   0.104  -0.005  0.00  0.00    -0.009 A 
ATOM     16  C   UNL     1       1.239  -0.683   0.002  0.00  0.00    -0.017 A 
ATOM     17  C   UNL     1       0.003  -0.004   0.034  0.00  0.00    +0.008 A 
ATOM     18  C   UNL     1       1.293  -2.078  -0.022  0.00  0.00    +0.017 A 
ATOM     19  C   UNL     1       2.528  -2.729  -0.054  0.00  0.00    -0.017 A 
ATOM     20  C   UNL     1       2.606  -4.138  -0.079  0.00  0.00    +0.008 A 
ATOM     21  C   UNL     1       3.823  -4.740  -0.110  0.00  0.00    +0.001 A 
ATOM     22  C   UNL     1       5.005  -4.002  -0.117  0.00  0.00    +0.001 A 
ATOM     23  C   UNL     1       4.997  -2.642  -0.094  0.00  0.00    +0.009 A 
ATOM     24  C   UNL     1       3.771  -1.956  -0.062  0.00  0.00    -0.009 A 
ATOM     25  C   UNL     1       3.727  -0.545  -0.038  0.00  0.00    +0.008 A 
ENDBRANCH  10  25
ENDBRANCH   1  11
BRANCH   8  26
ATOM     26  S   UNL     1      13.334   2.893   1.248  0.00  0.00    -0.089 S 
BRANCH  26  27
ATOM     27  C   UNL     1      13.440   4.217   0.012  0.00  0.00    +0.172 C 
BRANCH  27  28
ATOM     28  C   UNL     1      14.768   4.918   0.139  0.00  0.00    +0.223 C 
ATOM     29  O   UNL     1      15.565   4.559   0.980  0.00  0.00    -0.275 OA
ATOM     30  N   UNL     1      15.070   5.942  -0.683  0.00  0.00    -0.312 N 
ATOM     31  H   UNL     1      14.432   6.229  -1.355  0.00  0.00    +0.149 HD
BRANCH  30  32
ATOM     32  C   UNL     1      16.361   6.623  -0.560  0.00  0.00    +0.135 C 
BRANCH  32  33
ATOM     33  C   UNL     1      16.450   7.740  -1.602  0.00  0.00    +0.135 C 
ATOM     34  C   UNL     1      17.824   8.451  -1.512  0.00  0.00    +0.035 C 
ATOM     35  C   UNL     1      17.957   9.018  -2.952  0.00  0.00    +0.031 C 
ATOM     36  C   UNL     1      17.263   7.929  -3.798  0.00  0.00    +0.160 C 
ATOM     37  O   UNL     1      16.396   7.190  -2.928  0.00  0.00    -0.375 OA
ENDBRANCH  32  33
ENDBRANCH  30  32
ENDBRANCH  27  28
ENDBRANCH  26  27
ENDBRANCH   8  26
TORSDOF 7
