REMARK  Name = ZINC21327171
REMARK  6 active torsions:
REMARK  status: ('A' for Active; 'I' for Inactive)
REMARK    1  A    between atoms: N_5  and  N_6
REMARK    2  A    between atoms: C_10  and  S_13
REMARK    3  A    between atoms: N_11  and  N_12
REMARK    4  A    between atoms: S_13  and  C_14
REMARK    5  A    between atoms: C_14  and  C_15
REMARK    6  A    between atoms: C_15  and  C_17
REMARK                            x       y       z     vdW  Elec       q    Type
REMARK                         _______ _______ _______ _____ _____    ______ ____
ROOT
ATOM      1  N   UNL     1       3.786   7.873  -1.704  0.00  0.00    -0.204 N 
ATOM      2  C   UNL     1       3.271   6.609  -1.453  0.00  0.00    +0.254 A 
ATOM      3  N   UNL     1       3.905   5.473  -1.613  0.00  0.00    -0.109 NA
ATOM      4  N   UNL     1       3.035   4.436  -1.251  0.00  0.00    -0.119 NA
ATOM      5  C   UNL     1       1.897   4.973  -0.881  0.00  0.00    +0.210 A 
ATOM      6  N   UNL     1       2.011   6.329  -1.002  0.00  0.00    -0.211 N 
ATOM      7  H   UNL     1       3.164   8.764  -1.534  0.00  0.00    +0.177 HD
ENDROOT
BRANCH   1  12
ATOM      8  C   UNL     1       7.074  11.547  -1.733  0.00  0.00    +0.001 C 
ATOM      9  C   UNL     1       7.817  10.240  -2.014  0.00  0.00    +0.006 C 
ATOM     10  C   UNL     1       6.970   9.363  -2.942  0.00  0.00    +0.052 C 
ATOM     11  C   UNL     1       5.604   9.182  -2.318  0.00  0.00    +0.037 C 
ATOM     12  N   UNL     1       5.098   8.015  -2.173  0.00  0.00    -0.189 NA
ATOM     13  C   UNL     1       4.848  10.415  -1.876  0.00  0.00    +0.052 C 
ATOM     14  C   UNL     1       5.775  11.254  -0.981  0.00  0.00    +0.006 C 
ENDBRANCH   1  12
BRANCH   6  15
ATOM     15  N   UNL     1       1.038   7.245  -0.718  0.00  0.00    -0.294 N 
ATOM     16  H   UNL     1       0.054   6.910  -0.358  0.00  0.00    +0.163 HD
ATOM     17  H   UNL     1       1.239   8.319  -0.849  0.00  0.00    +0.163 HD
ENDBRANCH   6  15
BRANCH   5  18
ATOM     18  S   UNL     1       0.469   4.099  -0.331  0.00  0.00    -0.077 S 
BRANCH  18  19
ATOM     19  C   UNL     1       0.965   2.356  -0.408  0.00  0.00    +0.152 C 
BRANCH  19  20
ATOM     20  C   UNL     1      -0.181   1.487   0.042  0.00  0.00    +0.147 C 
ATOM     21  O   UNL     1      -1.226   1.992   0.376  0.00  0.00    -0.296 OA
BRANCH  20  22
ATOM     22  C   UNL     1      -0.024  -0.011   0.071  0.00  0.00    +0.062 C 
ATOM     23  C   UNL     1      -1.402  -0.666   0.195  0.00  0.00    +0.000 C 
ATOM     24  C   UNL     1      -1.243  -2.187   0.224  0.00  0.00    +0.007 C 
ATOM     25  C   UNL     1      -0.378  -2.587   1.421  0.00  0.00    -0.010 C 
ATOM     26  C   UNL     1      -1.049  -2.120   2.714  0.00  0.00    +0.007 C 
ATOM     27  C   UNL     1      -1.208  -0.599   2.685  0.00  0.00    -0.010 C 
ATOM     28  C   UNL     1      -2.073  -0.199   1.488  0.00  0.00    +0.007 C 
ATOM     29  C   UNL     1       0.169   0.056   2.561  0.00  0.00    +0.007 C 
ATOM     30  C   UNL     1       0.841  -0.411   1.268  0.00  0.00    +0.000 C 
ATOM     31  C   UNL     1       0.999  -1.933   1.296  0.00  0.00    +0.007 C 
ENDBRANCH  20  22
ENDBRANCH  19  20
ENDBRANCH  18  19
ENDBRANCH   5  18
TORSDOF 6
