REMARK  Name = ZINC15905447
REMARK  4 active torsions:
REMARK  status: ('A' for Active; 'I' for Inactive)
REMARK    1  A    between atoms: C_1  and  O_2
REMARK    2  A    between atoms: O_2  and  C_3
REMARK    3  A    between atoms: C_20  and  C_26
REMARK    4  A    between atoms: N_28  and  C_29
REMARK                            x       y       z     vdW  Elec       q    Type
REMARK                         _______ _______ _______ _____ _____    ______ ____
ROOT
ATOM      1  C   UNL     1       0.626  -0.619   1.042  0.00  0.00    +0.122 A 
ATOM      2  C   UNL     1       1.199   0.156   2.047  0.00  0.00    +0.047 A 
ATOM      3  C   UNL     1       1.833  -0.470   3.104  0.00  0.00    +0.021 A 
ATOM      4  C   UNL     1       1.888  -1.841   3.148  0.00  0.00    +0.041 A 
ATOM      5  C   UNL     1       1.319  -2.661   2.148  0.00  0.00    +0.084 A 
ATOM      6  C   UNL     1       0.673  -1.992   1.082  0.00  0.00    +0.074 A 
ATOM      7  N   UNL     1       1.456  -3.992   2.334  0.00  0.00    -0.224 NA
ATOM      8  C   UNL     1       2.078  -4.498   3.374  0.00  0.00    +0.168 A 
ATOM      9  S   UNL     1       2.573  -3.034   4.271  0.00  0.00    -0.052 S 
ATOM     10  N   UNL     1       2.293  -5.829   3.694  0.00  0.00    -0.247 N 
ATOM     11  C   UNL     1       3.012  -6.317   4.913  0.00  0.00    +0.155 C 
ATOM     12  C   UNL     1       3.484  -7.668   4.473  0.00  0.00    +0.116 C 
ATOM     13  C   UNL     1       4.608  -7.598   3.456  0.00  0.00    +0.008 C 
ATOM     14  C   UNL     1       4.918  -8.855   3.175  0.00  0.00    +0.004 C 
ATOM     15  C   UNL     1       3.928  -9.699   3.986  0.00  0.00    +0.155 C 
ATOM     16  O   UNL     1       3.742  -8.850   5.194  0.00  0.00    -0.359 OA
ATOM     17  C   UNL     1       2.580  -9.482   3.194  0.00  0.00    +0.122 C 
ATOM     18  C   UNL     1       2.160  -8.114   3.732  0.00  0.00    +0.127 C 
ATOM     19  C   UNL     1       1.875  -6.902   2.944  0.00  0.00    +0.228 C 
ATOM     20  O   UNL     1       1.370  -6.859   1.843  0.00  0.00    -0.275 OA
ENDROOT
BRANCH  17  21
ATOM     21  C   UNL     1       2.826  -9.448   1.708  0.00  0.00    +0.220 C 
ATOM     22  O   UNL     1       2.557  -8.451   1.071  0.00  0.00    -0.275 OA
ATOM     23  N   UNL     1       3.344 -10.525   1.085  0.00  0.00    -0.312 N 
ATOM     24  H   UNL     1       3.559 -11.322   1.595  0.00  0.00    +0.149 HD
BRANCH  23  25
ATOM     25  C   UNL     1       3.583 -10.492  -0.360  0.00  0.00    +0.073 C 
ATOM     26  C   UNL     1       2.313 -10.938  -1.115  0.00  0.00    +0.022 C 
ATOM     27  C   UNL     1       2.853 -11.752  -2.317  0.00  0.00    +0.002 C 
ATOM     28  C   UNL     1       4.056 -12.511  -1.704  0.00  0.00    +0.002 C 
ATOM     29  C   UNL     1       4.691 -11.492  -0.734  0.00  0.00    +0.022 C 
ENDBRANCH  23  25
ENDBRANCH  17  21
BRANCH   1  31
ATOM     30  C   UNL     1      -0.017   1.425   0.010  0.00  0.00    +0.277 C 
ATOM     31  O   UNL     1       0.002  -0.004   0.002  0.00  0.00    -0.495 OA
ENDBRANCH   1  31
TORSDOF 3
