REMARK  Name = ZINC33026170
REMARK  8 active torsions:
REMARK  status: ('A' for Active; 'I' for Inactive)
REMARK    1  A    between atoms: C_1  and  O_2
REMARK    2  A    between atoms: O_2  and  C_3
REMARK    3  A    between atoms: C_6  and  S_9
REMARK    4  A    between atoms: S_9  and  N_12
REMARK    5  A    between atoms: N_12  and  C_13
REMARK    6  A    between atoms: C_18  and  S_19
REMARK    7  A    between atoms: S_19  and  C_20
REMARK    8  A    between atoms: C_20  and  C_21
REMARK                            x       y       z     vdW  Elec       q    Type
REMARK                         _______ _______ _______ _____ _____    ______ ____
ROOT
ATOM      1  C   UNL     1      -7.210   5.857   2.702  0.00  0.00    +0.061 A 
ATOM      2  C   UNL     1      -8.451   6.440   2.501  0.00  0.00    +0.025 A 
ATOM      3  C   UNL     1      -9.115   6.257   1.302  0.00  0.00    +0.002 A 
ATOM      4  C   UNL     1      -8.543   5.497   0.298  0.00  0.00    +0.001 A 
ATOM      5  C   UNL     1      -7.303   4.915   0.488  0.00  0.00    +0.016 A 
ATOM      6  C   UNL     1      -6.630   5.094   1.688  0.00  0.00    +0.031 A 
ENDROOT
BRANCH   1   7
ATOM      7  N   UNL     1      -6.538   6.037   3.917  0.00  0.00    -0.215 N 
ATOM      8  H   UNL     1      -5.442   6.126   3.932  0.00  0.00    +0.174 HD
BRANCH   7   9
ATOM      9  S   UNL     1      -7.394   6.117   5.332  0.00  0.00    +0.072 S 
ATOM     10  O   UNL     1      -6.438   6.167   6.383  0.00  0.00    -0.150 OA
ATOM     11  O   UNL     1      -8.383   7.122   5.153  0.00  0.00    -0.150 OA
BRANCH   9  15
ATOM     12  C   UNL     1      -9.606   2.191   5.782  0.00  0.00    +0.120 A 
ATOM     13  C   UNL     1      -8.329   2.333   6.306  0.00  0.00    +0.047 A 
ATOM     14  C   UNL     1      -7.657   3.531   6.167  0.00  0.00    +0.032 A 
ATOM     15  C   UNL     1      -8.255   4.589   5.507  0.00  0.00    +0.109 A 
ATOM     16  C   UNL     1      -9.529   4.452   4.989  0.00  0.00    +0.032 A 
ATOM     17  C   UNL     1     -10.204   3.253   5.120  0.00  0.00    +0.047 A 
BRANCH  12  19
ATOM     18  C   UNL     1     -11.580   0.938   5.352  0.00  0.00    +0.277 C 
ATOM     19  O   UNL     1     -10.270   1.012   5.916  0.00  0.00    -0.495 OA
ENDBRANCH  12  19
ENDBRANCH   9  15
ENDBRANCH   7   9
ENDBRANCH   1   7
BRANCH   6  20
ATOM     20  S   UNL     1      -5.050   4.353   1.934  0.00  0.00    -0.117 S 
BRANCH  20  21
ATOM     21  C   UNL     1      -4.729   3.478   0.378  0.00  0.00    +0.130 C 
BRANCH  21  22
ATOM     22  C   UNL     1      -3.390   2.791   0.454  0.00  0.00    +0.059 A 
ATOM     23  C   UNL     1      -3.325   1.422   0.629  0.00  0.00    +0.094 A 
ATOM     24  C   UNL     1      -2.070   0.807   0.697  0.00  0.00    +0.259 A 
ATOM     25  O   UNL     1      -1.980  -0.401   0.850  0.00  0.00    -0.267 OA
ATOM     26  N   UNL     1      -0.962   1.569   0.585  0.00  0.00    -0.267 N 
ATOM     27  C   UNL     1       0.267   0.985   0.655  0.00  0.00    +0.116 A 
ATOM     28  C   UNL     1       1.393   1.729   0.550  0.00  0.00    +0.058 A 
ATOM     29  C   UNL     1       1.305   3.118   0.373  0.00  0.00    +0.025 A 
ATOM     30  C   UNL     1       0.080   3.711   0.308  0.00  0.00    +0.048 A 
ATOM     31  C   UNL     1      -1.078   2.921   0.418  0.00  0.00    +0.141 A 
ATOM     32  N   UNL     1      -2.276   3.499   0.354  0.00  0.00    -0.233 NA
ATOM     33 CL   UNL     1       2.948   0.963   0.635  0.00  0.00    -0.082 Cl
ENDBRANCH  21  22
ENDBRANCH  20  21
ENDBRANCH   6  20
TORSDOF 7
