REMARK  Name = ZINC34791900
REMARK  10 active torsions:
REMARK  status: ('A' for Active; 'I' for Inactive)
REMARK    1  A    between atoms: C_1  and  C_2
REMARK    2  A    between atoms: C_2  and  C_3
REMARK    3  A    between atoms: C_2  and  N_4
REMARK    4  A    between atoms: C_5  and  C_7
REMARK    5  A    between atoms: C_7  and  C_9
REMARK    6  A    between atoms: C_7  and  N_16
REMARK    7  A    between atoms: C_9  and  C_10
REMARK    8  A    between atoms: C_22  and  C_31
REMARK    9  A    between atoms: N_27  and  C_28
REMARK   10  A    between atoms: C_28  and  C_29
REMARK                            x       y       z     vdW  Elec       q    Type
REMARK                         _______ _______ _______ _____ _____    ______ ____
ROOT
ATOM      1  N   UNL     1      -3.087  -3.596  -1.065  0.00  0.00    -0.280 N 
ATOM      2  C   UNL     1      -3.537  -4.830  -0.404  0.00  0.00    +0.160 C 
ATOM      3  C   UNL     1      -3.365  -5.913  -1.446  0.00  0.00    +0.043 C 
ATOM      4  C   UNL     1      -2.874  -5.308  -2.546  0.00  0.00    +0.058 C 
ATOM      5  C   UNL     1      -2.715  -3.926  -2.315  0.00  0.00    +0.247 C 
ATOM      6  O   UNL     1      -2.293  -3.135  -3.138  0.00  0.00    -0.270 OA
ATOM      7  C   UNL     1      -2.601  -6.169  -3.762  0.00  0.00    +0.142 C 
ATOM      8  N   UNL     1      -2.898  -7.607  -3.641  0.00  0.00    -0.288 N 
ATOM      9  C   UNL     1      -3.387  -8.065  -2.472  0.00  0.00    +0.307 C 
ATOM     10  O   UNL     1      -3.635  -9.250  -2.362  0.00  0.00    -0.252 OA
ATOM     11  N   UNL     1      -3.610  -7.257  -1.427  0.00  0.00    -0.253 N 
ATOM     12  H   UNL     1      -2.745  -8.210  -4.385  0.00  0.00    +0.151 HD
ENDROOT
BRANCH   7  13
ATOM     13  C   UNL     1      -3.412  -5.623  -4.909  0.00  0.00    -0.022 A 
ATOM     14  C   UNL     1      -4.757  -5.925  -5.010  0.00  0.00    +0.007 A 
ATOM     15  C   UNL     1      -5.501  -5.424  -6.061  0.00  0.00    +0.020 A 
ATOM     16  C   UNL     1      -4.899  -4.622  -7.014  0.00  0.00    +0.041 A 
ATOM     17  C   UNL     1      -3.553  -4.321  -6.913  0.00  0.00    +0.020 A 
ATOM     18  C   UNL     1      -2.811  -4.817  -5.857  0.00  0.00    +0.007 A 
ATOM     19 CL   UNL     1      -5.833  -3.993  -8.336  0.00  0.00    -0.084 Cl
ENDBRANCH   7  13
BRANCH   1  20
ATOM     20  C   UNL     1      -3.057  -2.256  -0.474  0.00  0.00    +0.167 C 
BRANCH  20  22
ATOM     21  N   UNL     1      -1.372  -0.511   0.012  0.00  0.00    -0.311 N 
ATOM     22  C   UNL     1      -1.643  -1.734  -0.485  0.00  0.00    +0.234 C 
ATOM     23  O   UNL     1      -0.749  -2.415  -0.941  0.00  0.00    -0.274 OA
ATOM     24  H   UNL     1      -2.087   0.033   0.377  0.00  0.00    +0.149 HD
BRANCH  21  26
ATOM     25  C   UNL     1      -0.019   1.526   0.010  0.00  0.00    +0.027 C 
ATOM     26  C   UNL     1       0.002  -0.004   0.002  0.00  0.00    +0.067 C 
ATOM     27  C   UNL     1       0.742  -0.511   1.242  0.00  0.00    +0.027 C 
ENDBRANCH  21  26
ENDBRANCH  20  22
BRANCH  20  28
ATOM     28  C   UNL     1      -3.952  -1.319  -1.288  0.00  0.00    +0.067 C 
BRANCH  28  29
ATOM     29  C   UNL     1      -5.385  -1.772  -1.176  0.00  0.00    -0.045 A 
ATOM     30  C   UNL     1      -5.896  -2.681  -2.084  0.00  0.00    +0.004 A 
ATOM     31  C   UNL     1      -7.210  -3.096  -1.982  0.00  0.00    +0.000 A 
ATOM     32  C   UNL     1      -8.014  -2.602  -0.971  0.00  0.00    +0.000 A 
ATOM     33  C   UNL     1      -7.504  -1.694  -0.063  0.00  0.00    +0.000 A 
ATOM     34  C   UNL     1      -6.188  -1.282  -0.163  0.00  0.00    +0.004 A 
ENDBRANCH  28  29
ENDBRANCH  20  28
ENDBRANCH   1  20
BRANCH  11  35
ATOM     35  C   UNL     1      -4.143  -7.847  -0.197  0.00  0.00    +0.141 C 
BRANCH  35  36
ATOM     36  C   UNL     1      -5.649  -7.815  -0.236  0.00  0.00    -0.015 C 
ATOM     37  C   UNL     1      -6.332  -8.921  -0.072  0.00  0.00    +0.005 C 
ENDBRANCH  35  36
ENDBRANCH  11  35
TORSDOF 8
