REMARK  Name = ZINC63515173
REMARK  12 active torsions:
REMARK  status: ('A' for Active; 'I' for Inactive)
REMARK    1  A    between atoms: C_1  and  C_2
REMARK    2  A    between atoms: C_4  and  C_12
REMARK    3  A    between atoms: C_12  and  C_13
REMARK    4  A    between atoms: C_13  and  N_14
REMARK    5  A    between atoms: C_18  and  C_22
REMARK    6  A    between atoms: C_18  and  C_23
REMARK    7  A    between atoms: C_19  and  C_20
REMARK    8  A    between atoms: C_19  and  O_21
REMARK    9  A    between atoms: C_23  and  C_24
REMARK   10  A    between atoms: C_24  and  C_25
REMARK   11  A    between atoms: C_26  and  C_27
REMARK   12  A    between atoms: C_26  and  C_28
REMARK                            x       y       z     vdW  Elec       q    Type
REMARK                         _______ _______ _______ _____ _____    ______ ____
ROOT
ATOM      1  N   UNL     1      -4.421   0.799  -2.802  0.00  0.00    -0.235 N 
ATOM      2  C   UNL     1      -5.468   1.645  -2.821  0.00  0.00    +0.406 C 
ATOM      3  O   UNL     1      -5.511   2.676  -2.180  0.00  0.00    -0.226 OA
ATOM      4  O   UNL     1      -6.461   1.226  -3.624  0.00  0.00    -0.439 OA
ATOM      5  C   UNL     1      -5.917   0.250  -4.534  0.00  0.00    +0.158 C 
ATOM      6  C   UNL     1      -4.720  -0.308  -3.732  0.00  0.00    +0.175 C 
ATOM      7  C   UNL     1      -5.122  -1.570  -2.966  0.00  0.00    +0.068 C 
ATOM      8  C   UNL     1      -5.440   0.915  -5.826  0.00  0.00    +0.060 C 
ENDROOT
BRANCH   6   9
ATOM      9  O   UNL     1      -3.607  -0.565  -4.590  0.00  0.00    -0.368 OA
ATOM     10  H   UNL     1      -2.804  -0.835  -4.124  0.00  0.00    +0.212 HD
ENDBRANCH   6   9
BRANCH   1  11
ATOM     11  C   UNL     1      -3.201   0.952  -2.005  0.00  0.00    +0.118 C 
BRANCH  11  12
ATOM     12  C   UNL     1      -2.166   1.747  -2.805  0.00  0.00    +0.052 C 
BRANCH  12  15
ATOM     13  C   UNL     1       0.063   4.096  -2.673  0.00  0.00    +0.035 C 
ATOM     14  C   UNL     1       0.357   2.621  -2.394  0.00  0.00    +0.103 C 
ATOM     15  C   UNL     1      -0.911   1.905  -1.986  0.00  0.00    -0.037 C 
ATOM     16  C   UNL     1      -0.691   1.435  -0.737  0.00  0.00    -0.001 A 
ATOM     17  C   UNL     1      -1.522   0.666   0.197  0.00  0.00    +0.010 A 
ATOM     18  C   UNL     1      -1.015   0.335   1.407  0.00  0.00    +0.001 A 
ATOM     19  C   UNL     1       0.281   0.707   1.789  0.00  0.00    +0.002 A 
ATOM     20  C   UNL     1       1.104   1.414   0.986  0.00  0.00    +0.026 A 
ATOM     21  C   UNL     1       0.674   1.815  -0.309  0.00  0.00    +0.043 A 
ATOM     22  N   UNL     1       1.276   2.494  -1.258  0.00  0.00    -0.378 N 
ATOM     23  H   UNL     1       2.176   2.852  -1.215  0.00  0.00    +0.160 HD
ENDBRANCH  12  15
ENDBRANCH  11  12
ENDBRANCH   1  11
BRANCH   5  24
ATOM     24  C   UNL     1      -6.940  -0.848  -4.832  0.00  0.00    +0.056 C 
BRANCH  24  25
ATOM     25  C   UNL     1      -8.116  -0.253  -5.609  0.00  0.00    +0.031 C 
BRANCH  25  26
ATOM     26  C   UNL     1      -9.123  -1.335  -5.902  0.00  0.00    -0.028 C 
ATOM     27  C   UNL     1     -10.355  -1.215  -5.476  0.00  0.00    -0.080 C 
ATOM     28  C   UNL     1     -10.735  -0.064  -4.581  0.00  0.00    +0.038 C 
ATOM     29  C   UNL     1     -11.394  -2.229  -5.880  0.00  0.00    +0.038 C 
ENDBRANCH  25  26
ENDBRANCH  24  25
ENDBRANCH   5  24
TORSDOF 7
