REMARK  Name = ZINC38701846
REMARK  7 active torsions:
REMARK  status: ('A' for Active; 'I' for Inactive)
REMARK    1  A    between atoms: C_1  and  C_2
REMARK    2  A    between atoms: C_8  and  C_18
REMARK    3  A    between atoms: C_10  and  C_16
REMARK    4  A    between atoms: C_11  and  N_15
REMARK    5  A    between atoms: C_21  and  C_24
REMARK    6  A    between atoms: C_24  and  O_26
REMARK    7  A    between atoms: O_26  and  C_27
REMARK                            x       y       z     vdW  Elec       q    Type
REMARK                         _______ _______ _______ _____ _____    ______ ____
ROOT
ATOM      1  C   UNL     1      -0.018   1.503   0.010  0.00  0.00    +0.063 C 
ATOM      2  C   UNL     1       0.002  -0.004   0.002  0.00  0.00    +0.034 C 
ATOM      3  N   UNL     1       0.005  -0.613  -1.159  0.00  0.00    -0.185 NA
ATOM      4  C   UNL     1       0.032  -1.941  -1.288  0.00  0.00    +0.248 C 
ATOM      5  O   UNL     1       0.016  -2.462  -2.386  0.00  0.00    -0.273 OA
ATOM      6  C   UNL     1       0.086  -2.782  -0.028  0.00  0.00    +0.155 C 
ATOM      7  C   UNL     1      -1.166  -3.666  -0.021  0.00  0.00    +0.084 C 
ATOM      8  C   UNL     1      -1.326  -4.310   1.328  0.00  0.00    +0.095 C 
ATOM      9  C   UNL     1      -0.755  -3.819   2.450  0.00  0.00    +0.198 C 
ATOM     10  O   UNL     1       0.023  -2.711   2.431  0.00  0.00    -0.445 OA
ATOM     11  C   UNL     1       0.071  -2.013   1.283  0.00  0.00    +0.122 C 
ATOM     12  C   UNL     1       0.023  -0.667   1.232  0.00  0.00    +0.063 C 
ENDROOT
BRANCH   7  13
ATOM     13  C   UNL     1      -2.377  -2.820  -0.317  0.00  0.00    -0.038 A 
ATOM     14  C   UNL     1      -2.700  -1.763   0.516  0.00  0.00    +0.005 A 
ATOM     15  C   UNL     1      -3.808  -0.985   0.250  0.00  0.00    +0.015 A 
ATOM     16  C   UNL     1      -4.604  -1.266  -0.862  0.00  0.00    +0.059 A 
ATOM     17  C   UNL     1      -4.273  -2.334  -1.698  0.00  0.00    +0.015 A 
ATOM     18  C   UNL     1      -3.159  -3.100  -1.424  0.00  0.00    +0.005 A 
BRANCH  16  19
ATOM     19  C   UNL     1      -5.792  -0.437  -1.152  0.00  0.00    +0.339 C 
ATOM     20  O   UNL     1      -6.078   0.491  -0.423  0.00  0.00    -0.245 OA
BRANCH  19  21
ATOM     21  O   UNL     1      -6.558  -0.711  -2.226  0.00  0.00    -0.464 OA
ATOM     22  C   UNL     1      -7.691   0.132  -2.446  0.00  0.00    +0.280 C 
ENDBRANCH  19  21
ENDBRANCH  16  19
ENDBRANCH   7  13
BRANCH   9  23
ATOM     23  N   UNL     1      -0.969  -4.462   3.644  0.00  0.00    -0.328 N 
ATOM     24  H   UNL     1      -1.524  -5.258   3.674  0.00  0.00    +0.145 HD
ATOM     25  H   UNL     1      -0.566  -4.122   4.457  0.00  0.00    +0.145 HD
ENDBRANCH   9  23
BRANCH   8  26
ATOM     26  C   UNL     1      -2.119  -5.498   1.429  0.00  0.00    +0.100 C 
ATOM     27  N   UNL     1      -2.749  -6.440   1.508  0.00  0.00    -0.191 NA
ENDBRANCH   8  26
TORSDOF 5
