REMARK  Name = ZINC66951189
REMARK  10 active torsions:
REMARK  status: ('A' for Active; 'I' for Inactive)
REMARK    1  A    between atoms: C_1  and  C_2
REMARK    2  A    between atoms: C_6  and  C_29
REMARK    3  A    between atoms: N_8  and  C_9
REMARK    4  A    between atoms: C_9  and  C_10
REMARK    5  A    between atoms: C_10  and  N_11
REMARK    6  A    between atoms: N_14  and  C_17
REMARK    7  A    between atoms: C_17  and  C_18
REMARK    8  A    between atoms: C_18  and  C_19
REMARK    9  A    between atoms: N_21  and  C_22
REMARK   10  A    between atoms: C_22  and  C_23
REMARK                            x       y       z     vdW  Elec       q    Type
REMARK                         _______ _______ _______ _____ _____    ______ ____
ROOT
ATOM      1  N   UNL     1       2.226   1.242   4.132  0.00  0.00    -0.308 NA
ATOM      2  C   UNL     1       1.074   2.022   4.606  0.00  0.00    +0.066 C 
ATOM      3  C   UNL     1       1.572   3.224   5.411  0.00  0.00    -0.063 C 
ATOM      4  N   UNL     1       2.370   2.754   6.551  0.00  0.00    +0.382 N 
ATOM      5  C   UNL     1       3.530   1.998   6.061  0.00  0.00    -0.063 C 
ATOM      6  C   UNL     1       3.048   0.785   5.262  0.00  0.00    +0.066 C 
ATOM      7  H   UNL     1       1.802   2.158   7.135  0.00  0.00    -0.082 HD
ENDROOT
BRANCH   1   8
ATOM      8  C   UNL     1       1.790   0.108   3.306  0.00  0.00    +0.066 C 
BRANCH   8   9
ATOM      9  C   UNL     1       1.156   0.631   2.015  0.00  0.00    -0.063 C 
BRANCH   9  15
ATOM     10  C   UNL     1      -0.019   1.526   0.010  0.00  0.00    -0.013 C 
ATOM     11  C   UNL     1       0.002  -0.004   0.002  0.00  0.00    -0.071 C 
ATOM     12  C   UNL     1       0.760  -0.512  -1.242  0.00  0.00    -0.017 C 
ATOM     13  C   UNL     1       1.540  -1.739  -0.700  0.00  0.00    -0.017 C 
ATOM     14  C   UNL     1       1.902  -1.271   0.732  0.00  0.00    -0.071 C 
ATOM     15  N   UNL     1       0.720  -0.502   1.189  0.00  0.00    +0.384 N 
ATOM     16  C   UNL     1       2.137  -2.478   1.643  0.00  0.00    -0.013 C 
ATOM     17  H   UNL     1       0.112  -1.100   1.728  0.00  0.00    -0.081 HD
ENDBRANCH   9  15
ENDBRANCH   8   9
ENDBRANCH   1   8
BRANCH   4  18
ATOM     18  C   UNL     1       2.833   3.908   7.334  0.00  0.00    -0.069 C 
BRANCH  18  19
ATOM     19  C   UNL     1       3.557   3.415   8.589  0.00  0.00    +0.077 C 
BRANCH  19  20
ATOM     20  C   UNL     1       4.031   4.599   9.391  0.00  0.00    +0.211 C 
ATOM     21  O   UNL     1       3.812   5.725   8.999  0.00  0.00    -0.276 OA
ATOM     22  N   UNL     1       4.699   4.406  10.546  0.00  0.00    -0.315 N 
ATOM     23  H   UNL     1       4.875   3.505  10.860  0.00  0.00    +0.149 HD
BRANCH  22  24
ATOM     24  C   UNL     1       5.161   5.556  11.326  0.00  0.00    +0.107 C 
BRANCH  24  25
ATOM     25  C   UNL     1       5.885   5.064  12.581  0.00  0.00    +0.006 C 
ATOM     26  C   UNL     1       4.894   4.332  13.488  0.00  0.00    +0.005 C 
ATOM     27  C   UNL     1       5.618   3.840  14.742  0.00  0.00    +0.000 C 
ATOM     28  C   UNL     1       6.208   5.035  15.493  0.00  0.00    +0.000 C 
ATOM     29  C   UNL     1       7.199   5.768  14.586  0.00  0.00    +0.000 C 
ATOM     30  C   UNL     1       6.475   6.260  13.332  0.00  0.00    +0.005 C 
ENDBRANCH  24  25
ENDBRANCH  22  24
ENDBRANCH  19  20
ENDBRANCH  18  19
ENDBRANCH   4  18
TORSDOF 8
