REMARK  Name = ZINC20169216
REMARK  13 active torsions:
REMARK  status: ('A' for Active; 'I' for Inactive)
REMARK    1  A    between atoms: C_1  and  C_2
REMARK    2  A    between atoms: C_2  and  O_3
REMARK    3  A    between atoms: O_3  and  C_4
REMARK    4  A    between atoms: C_4  and  C_5
REMARK    5  A    between atoms: C_5  and  O_6
REMARK    6  A    between atoms: O_6  and  C_7
REMARK    7  A    between atoms: C_7  and  C_9
REMARK    8  A    between atoms: C_10  and  C_39
REMARK    9  A    between atoms: C_14  and  C_16
REMARK   10  A    between atoms: C_29  and  C_35
REMARK   11  A    between atoms: C_31  and  C_34
REMARK   12  A    between atoms: C_35  and  O_37
REMARK   13  A    between atoms: O_37  and  C_38
REMARK                            x       y       z     vdW  Elec       q    Type
REMARK                         _______ _______ _______ _____ _____    ______ ____
ROOT
ATOM      1  C   UNL     1      -5.876   3.219   1.352  0.00  0.00    +0.065 C 
ATOM      2  C   UNL     1      -6.799   2.253   1.210  0.00  0.00    +0.016 C 
ATOM      3  N   UNL     1      -7.050   1.710  -0.020  0.00  0.00    -0.321 N 
ATOM      4  C   UNL     1      -6.689   2.373  -1.162  0.00  0.00    +0.016 C 
ATOM      5  C   UNL     1      -5.762   3.352  -1.121  0.00  0.00    +0.025 C 
ATOM      6  C   UNL     1      -5.092   3.726   0.177  0.00  0.00    +0.099 C 
ATOM      7  C   UNL     1      -5.395   4.053  -2.284  0.00  0.00    +0.176 C 
ATOM      8  O   UNL     1      -4.552   4.925  -2.214  0.00  0.00    -0.291 OA
ATOM      9  C   UNL     1      -6.027   3.742  -3.614  0.00  0.00    +0.171 C 
ATOM     10  C   UNL     1      -7.441   3.201  -3.379  0.00  0.00    +0.013 C 
ATOM     11  C   UNL     1      -7.349   1.980  -2.461  0.00  0.00    +0.055 C 
ATOM     12  C   UNL     1      -8.063   2.792  -4.716  0.00  0.00    +0.009 C 
ATOM     13  C   UNL     1      -7.562   1.763   2.414  0.00  0.00    +0.061 C 
ATOM     14  H   UNL     1      -7.546   0.732  -0.098  0.00  0.00    +0.152 HD
ENDROOT
BRANCH   6  15
ATOM     15  C   UNL     1      -3.709   3.128   0.210  0.00  0.00    +0.047 A 
ATOM     16  C   UNL     1      -3.546   1.794   0.145  0.00  0.00    +0.204 A 
ATOM     17  O   UNL     1      -2.345   1.208   0.169  0.00  0.00    -0.462 OA
ATOM     18  C   UNL     1      -1.198   1.913   0.257  0.00  0.00    +0.138 A 
ATOM     19  C   UNL     1       0.035   1.272   0.285  0.00  0.00    +0.047 A 
ATOM     20  C   UNL     1       1.192   2.014   0.381  0.00  0.00    +0.004 A 
ATOM     21  C   UNL     1       1.143   3.399   0.454  0.00  0.00    +0.001 A 
ATOM     22  C   UNL     1      -0.070   4.053   0.433  0.00  0.00    +0.015 A 
ATOM     23  C   UNL     1      -1.248   3.314   0.337  0.00  0.00    +0.064 A 
ATOM     24  C   UNL     1      -2.569   3.970   0.310  0.00  0.00    +0.197 A 
ATOM     25  O   UNL     1      -2.678   5.182   0.372  0.00  0.00    -0.287 OA
ENDBRANCH   6  15
BRANCH   1  26
ATOM     26  C   UNL     1      -5.639   3.769   2.633  0.00  0.00    +0.338 C 
ATOM     27  O   UNL     1      -6.338   3.443   3.574  0.00  0.00    -0.245 OA
BRANCH  26  28
ATOM     28  O   UNL     1      -4.637   4.655   2.813  0.00  0.00    -0.459 OA
BRANCH  28  29
ATOM     29  C   UNL     1      -4.455   5.170   4.133  0.00  0.00    +0.260 C 
BRANCH  29  30
ATOM     30  C   UNL     1      -3.282   6.152   4.140  0.00  0.00    +0.201 C 
BRANCH  30  31
ATOM     31  O   UNL     1      -3.605   7.287   3.334  0.00  0.00    -0.377 OA
BRANCH  31  33
ATOM     32  C   UNL     1      -3.023   9.433   2.387  0.00  0.00    +0.034 C 
ATOM     33  C   UNL     1      -2.571   8.270   3.272  0.00  0.00    +0.156 C 
ENDBRANCH  31  33
ENDBRANCH  30  31
ENDBRANCH  29  30
ENDBRANCH  28  29
ENDBRANCH  26  28
ENDBRANCH   1  26
BRANCH   9  34
ATOM     34  C   UNL     1      -6.098   4.996  -4.446  0.00  0.00    +0.318 C 
ATOM     35  O   UNL     1      -7.168   5.416  -4.815  0.00  0.00    -0.250 OA
BRANCH  34  36
ATOM     36  O   UNL     1      -4.971   5.646  -4.777  0.00  0.00    -0.467 OA
ATOM     37  C   UNL     1      -5.115   6.847  -5.581  0.00  0.00    +0.280 C 
ENDBRANCH  34  36
ENDBRANCH   9  34
TORSDOF 9
