REMARK  Name = ZINC39520670
REMARK  7 active torsions:
REMARK  status: ('A' for Active; 'I' for Inactive)
REMARK    1  A    between atoms: C_4  and  C_7
REMARK    2  A    between atoms: C_7  and  C_8
REMARK    3  A    between atoms: N_14  and  C_15
REMARK    4  A    between atoms: C_15  and  C_16
REMARK    5  A    between atoms: C_25  and  S_28
REMARK    6  A    between atoms: S_28  and  O_31
REMARK    7  A    between atoms: O_31  and  C_32
REMARK                            x       y       z     vdW  Elec       q    Type
REMARK                         _______ _______ _______ _____ _____    ______ ____
ROOT
ATOM      1  C   UNL     1       3.732  -0.490   0.277  0.00  0.00    -0.063 C 
ATOM      2  C   UNL     1       4.576  -0.869  -0.942  0.00  0.00    -0.015 C 
ATOM      3  C   UNL     1       6.060  -0.812  -0.566  0.00  0.00    -0.003 C 
ATOM      4  C   UNL     1       6.385   0.586  -0.042  0.00  0.00    -0.012 C 
ATOM      5  C   UNL     1       5.519   0.858   1.223  0.00  0.00    -0.063 C 
ATOM      6  N   UNL     1       4.128   0.831   0.778  0.00  0.00    +0.388 N 
ATOM      7  C   UNL     1       5.925   2.247   1.694  0.00  0.00    -0.012 C 
ATOM      8  C   UNL     1       5.739   2.522   3.173  0.00  0.00    +0.001 C 
ATOM      9  C   UNL     1       6.330   1.392   4.016  0.00  0.00    +0.030 C 
ATOM     10  C   UNL     1       5.590   0.099   3.664  0.00  0.00    +0.170 C 
ATOM     11  C   UNL     1       5.849  -0.249   2.206  0.00  0.00    +0.018 C 
ATOM     12  H   UNL     1       4.039   1.490  -0.001  0.00  0.00    -0.080 HD
ENDROOT
BRANCH  10  13
ATOM     13  S   UNL     1       6.207  -1.242   4.724  0.00  0.00    +0.123 S 
ATOM     14  O   UNL     1       5.418  -2.410   4.545  0.00  0.00    -0.136 OA
ATOM     15  O   UNL     1       7.625  -1.308   4.653  0.00  0.00    -0.136 OA
BRANCH  13  16
ATOM     16  O   UNL     1       5.910  -0.786   6.145  0.00  0.00    -0.346 OA
BRANCH  16  17
ATOM     17  C   UNL     1       4.600  -0.885   6.495  0.00  0.00    +0.156 A 
ATOM     18  C   UNL     1       3.739   0.179   6.270  0.00  0.00    +0.048 A 
ATOM     19  C   UNL     1       2.408   0.077   6.626  0.00  0.00    +0.004 A 
ATOM     20  C   UNL     1       1.934  -1.085   7.205  0.00  0.00    +0.000 A 
ATOM     21  C   UNL     1       2.790  -2.148   7.431  0.00  0.00    +0.004 A 
ATOM     22  C   UNL     1       4.121  -2.052   7.071  0.00  0.00    +0.048 A 
ENDBRANCH  16  17
ENDBRANCH  13  16
ENDBRANCH  10  13
BRANCH   1  23
ATOM     23  C   UNL     1       2.256  -0.441  -0.138  0.00  0.00    +0.020 C 
BRANCH  23  27
ATOM     24  C   UNL     1      -0.211  -0.800   3.331  0.00  0.00    +0.000 A 
ATOM     25  C   UNL     1      -0.639  -0.047   2.253  0.00  0.00    +0.000 A 
ATOM     26  C   UNL     1       0.160   0.069   1.131  0.00  0.00    +0.003 A 
ATOM     27  C   UNL     1       1.386  -0.567   1.086  0.00  0.00    -0.049 A 
ATOM     28  C   UNL     1       1.814  -1.319   2.164  0.00  0.00    +0.003 A 
ATOM     29  C   UNL     1       1.015  -1.437   3.286  0.00  0.00    +0.000 A 
ENDBRANCH  23  27
ENDBRANCH   1  23
BRANCH   6  30
ATOM     30  C   UNL     1       3.185   1.247   1.818  0.00  0.00    -0.042 C 
BRANCH  30  31
ATOM     31  C   UNL     1       3.437   2.689   2.176  0.00  0.00    -0.064 A 
ATOM     32  C   UNL     1       3.174   3.140   3.456  0.00  0.00    +0.002 A 
ATOM     33  C   UNL     1       3.405   4.463   3.784  0.00  0.00    +0.000 A 
ATOM     34  C   UNL     1       3.900   5.335   2.833  0.00  0.00    +0.000 A 
ATOM     35  C   UNL     1       4.164   4.884   1.553  0.00  0.00    +0.000 A 
ATOM     36  C   UNL     1       3.936   3.560   1.226  0.00  0.00    +0.002 A 
ENDBRANCH  30  31
ENDBRANCH   6  30
TORSDOF 7
