REMARK  Name = ZINC04209421
REMARK  8 active torsions:
REMARK  status: ('A' for Active; 'I' for Inactive)
REMARK    1  A    between atoms: C_4  and  C_7
REMARK    2  A    between atoms: C_7  and  C_8
REMARK    3  A    between atoms: C_7  and  C_14
REMARK    4  A    between atoms: C_7  and  O_28
REMARK    5  A    between atoms: N_16  and  N_17
REMARK    6  A    between atoms: C_18  and  C_19
REMARK    7  A    between atoms: C_22  and  O_26
REMARK    8  A    between atoms: C_24  and  O_25
REMARK                            x       y       z     vdW  Elec       q    Type
REMARK                         _______ _______ _______ _____ _____    ______ ____
ROOT
ATOM      1  C   UNL     1       0.210  -0.615   1.364  0.00  0.00    +0.273 C 
ATOM      2  O   UNL     1      -0.148  -0.018   2.357  0.00  0.00    -0.270 OA
ATOM      3  N   UNL     1       0.794  -1.824   1.478  0.00  0.00    -0.204 N 
ATOM      4  H   UNL     1       1.080  -2.301   0.684  0.00  0.00    +0.177 HD
ENDROOT
BRANCH   3   5
ATOM      5  N   UNL     1       0.988  -2.392   2.744  0.00  0.00    -0.188 NA
ATOM      6  C   UNL     1       1.550  -3.557   2.854  0.00  0.00    +0.142 C 
BRANCH   6   7
ATOM      7  C   UNL     1       1.753  -4.154   4.185  0.00  0.00    +0.037 A 
ATOM      8  C   UNL     1       2.353  -5.410   4.307  0.00  0.00    +0.032 A 
ATOM      9  C   UNL     1       2.546  -5.963   5.554  0.00  0.00    +0.060 A 
ATOM     10  C   UNL     1       2.136  -5.279   6.694  0.00  0.00    +0.134 A 
ATOM     11  C   UNL     1       1.534  -4.034   6.583  0.00  0.00    +0.092 A 
ATOM     12  C   UNL     1       1.341  -3.466   5.336  0.00  0.00    +0.129 A 
ATOM     13 BR   UNL     1       3.365  -7.660   5.717  0.00  0.00    -0.047 Br
BRANCH  12  14
ATOM     14  O   UNL     1       0.751  -2.247   5.226  0.00  0.00    -0.506 OA
ATOM     15  H   UNL     1      -0.211  -2.282   5.141  0.00  0.00    +0.292 HD
ENDBRANCH  12  14
BRANCH  10  16
ATOM     16  O   UNL     1       2.324  -5.832   7.920  0.00  0.00    -0.506 OA
ATOM     17  H   UNL     1       1.587  -6.380   8.222  0.00  0.00    +0.292 HD
ENDBRANCH  10  16
ENDBRANCH   6   7
ENDBRANCH   3   5
BRANCH   1  18
ATOM     18  C   UNL     1       0.002  -0.004   0.002  0.00  0.00    +0.194 C 
BRANCH  18  22
ATOM     19  C   UNL     1      -0.204   4.247   0.364  0.00  0.00    +0.000 A 
ATOM     20  C   UNL     1       0.840   3.662  -0.329  0.00  0.00    +0.000 A 
ATOM     21  C   UNL     1       0.907   2.287  -0.446  0.00  0.00    +0.007 A 
ATOM     22  C   UNL     1      -0.070   1.496   0.130  0.00  0.00    -0.003 A 
ATOM     23  C   UNL     1      -1.117   2.081   0.818  0.00  0.00    +0.007 A 
ATOM     24  C   UNL     1      -1.181   3.457   0.939  0.00  0.00    +0.000 A 
ENDBRANCH  18  22
BRANCH  18  25
ATOM     25  C   UNL     1      -1.284  -0.521  -0.589  0.00  0.00    -0.003 A 
ATOM     26  C   UNL     1      -2.399  -0.678   0.213  0.00  0.00    +0.007 A 
ATOM     27  C   UNL     1      -3.581  -1.147  -0.330  0.00  0.00    +0.000 A 
ATOM     28  C   UNL     1      -3.644  -1.469  -1.673  0.00  0.00    +0.000 A 
ATOM     29  C   UNL     1      -2.528  -1.317  -2.474  0.00  0.00    +0.000 A 
ATOM     30  C   UNL     1      -1.348  -0.843  -1.932  0.00  0.00    +0.007 A 
ENDBRANCH  18  25
BRANCH  18  31
ATOM     31  O   UNL     1       1.093  -0.357  -0.850  0.00  0.00    -0.371 OA
ATOM     32  H   UNL     1       1.955  -0.056  -0.531  0.00  0.00    +0.212 HD
ENDBRANCH  18  31
ENDBRANCH   1  18
TORSDOF 8
