REMARK  Name = ZINC50112316
REMARK  9 active torsions:
REMARK  status: ('A' for Active; 'I' for Inactive)
REMARK    1  A    between atoms: C_1  and  C_2
REMARK    2  A    between atoms: C_2  and  C_3
REMARK    3  A    between atoms: C_2  and  N_9
REMARK    4  A    between atoms: C_3  and  C_4
REMARK    5  A    between atoms: N_12  and  C_13
REMARK    6  A    between atoms: C_13  and  C_14
REMARK    7  A    between atoms: C_13  and  C_15
REMARK    8  A    between atoms: C_19  and  O_21
REMARK    9  A    between atoms: O_21  and  C_22
REMARK                            x       y       z     vdW  Elec       q    Type
REMARK                         _______ _______ _______ _____ _____    ______ ____
ROOT
ATOM      1  N   UNL     1       0.711  -0.489   1.189  0.00  0.00    -0.297 N 
ATOM      2  C   UNL     1       2.054  -0.600   1.174  0.00  0.00    +0.300 C 
ATOM      3  O   UNL     1       2.677  -0.297   0.175  0.00  0.00    -0.253 OA
ATOM      4  N   UNL     1       2.706  -1.046   2.266  0.00  0.00    -0.293 N 
ATOM      5  H   UNL     1       0.213  -0.731   1.986  0.00  0.00    +0.151 HD
ATOM      6  H   UNL     1       2.208  -1.288   3.062  0.00  0.00    +0.151 HD
ENDROOT
BRANCH   1   8
ATOM      7  C   UNL     1      -0.019   1.526   0.010  0.00  0.00    +0.028 C 
ATOM      8  C   UNL     1       0.002  -0.004   0.002  0.00  0.00    +0.076 C 
BRANCH   8   9
ATOM      9  C   UNL     1      -1.433  -0.534   0.013  0.00  0.00    +0.057 C 
BRANCH   9  10
ATOM     10  C   UNL     1      -1.416  -2.035  -0.119  0.00  0.00    -0.039 A 
ATOM     11  C   UNL     1      -1.450  -2.630  -1.366  0.00  0.00    +0.011 A 
ATOM     12  C   UNL     1      -1.433  -3.982  -1.450  0.00  0.00    +0.045 A 
ATOM     13  S   UNL     1      -1.367  -4.458   0.269  0.00  0.00    -0.105 S 
ATOM     14  C   UNL     1      -1.361  -2.822   0.983  0.00  0.00    +0.049 A 
ENDBRANCH   9  10
ENDBRANCH   8   9
ENDBRANCH   1   8
BRANCH   4  15
ATOM     15  C   UNL     1       4.166  -1.166   2.249  0.00  0.00    +0.102 C 
ATOM     16  C   UNL     1       4.560  -2.515   1.643  0.00  0.00    +0.033 C 
BRANCH  15  17
ATOM     17  C   UNL     1       4.693  -1.075   3.658  0.00  0.00    -0.024 A 
ATOM     18  C   UNL     1       4.019  -1.703   4.689  0.00  0.00    +0.006 A 
ATOM     19  C   UNL     1       4.501  -1.622   5.983  0.00  0.00    +0.004 A 
ATOM     20  C   UNL     1       5.656  -0.912   6.248  0.00  0.00    +0.046 A 
ATOM     21  C   UNL     1       6.334  -0.282   5.215  0.00  0.00    +0.127 A 
ATOM     22  C   UNL     1       5.852  -0.370   3.917  0.00  0.00    +0.051 A 
BRANCH  21  23
ATOM     23  O   UNL     1       7.471   0.417   5.473  0.00  0.00    -0.434 OA
BRANCH  23  24
ATOM     24  C   UNL     1       7.911   0.460   6.832  0.00  0.00    +0.541 C 
ATOM     25  F   UNL     1       6.920   1.049   7.625  0.00  0.00    -0.166 F 
ATOM     26  F   UNL     1       8.158  -0.841   7.283  0.00  0.00    -0.166 F 
ENDBRANCH  23  24
ENDBRANCH  21  23
ENDBRANCH  15  17
ENDBRANCH   4  15
TORSDOF 7
