REMARK  Name = ZINC38857882
REMARK  8 active torsions:
REMARK  status: ('A' for Active; 'I' for Inactive)
REMARK    1  A    between atoms: C_1  and  C_2
REMARK    2  A    between atoms: C_2  and  O_3
REMARK    3  A    between atoms: O_3  and  C_4
REMARK    4  A    between atoms: C_4  and  C_6
REMARK    5  A    between atoms: C_10  and  N_11
REMARK    6  A    between atoms: C_12  and  C_14
REMARK    7  A    between atoms: N_19  and  C_21
REMARK    8  A    between atoms: C_21  and  C_22
REMARK                            x       y       z     vdW  Elec       q    Type
REMARK                         _______ _______ _______ _____ _____    ______ ____
ROOT
ATOM      1  N   UNL     1      -0.561  -1.782  -4.154  0.00  0.00    -0.279 N 
ATOM      2  C   UNL     1      -1.084  -2.261  -5.300  0.00  0.00    +0.219 C 
ATOM      3  O   UNL     1      -0.359  -2.759  -6.136  0.00  0.00    -0.275 OA
ATOM      4  H   UNL     1      -1.141  -1.384  -3.486  0.00  0.00    +0.155 HD
ENDROOT
BRANCH   1   9
ATOM      5  C   UNL     1       1.512  -1.421  -2.820  0.00  0.00    +0.091 A 
ATOM      6  C   UNL     1       2.950  -1.626  -2.827  0.00  0.00    -0.021 A 
ATOM      7  C   UNL     1       3.418  -2.223  -3.944  0.00  0.00    -0.004 A 
ATOM      8  S   UNL     1       1.982  -2.498  -4.941  0.00  0.00    -0.077 S 
ATOM      9  C   UNL     1       0.804  -1.858  -3.930  0.00  0.00    +0.086 A 
ATOM     10  C   UNL     1       4.843  -2.566  -4.252  0.00  0.00    +0.043 C 
ATOM     11  C   UNL     1       5.745  -1.800  -3.274  0.00  0.00    +0.005 C 
ATOM     12  C   UNL     1       5.203  -1.982  -1.853  0.00  0.00    +0.005 C 
ATOM     13  C   UNL     1       3.885  -1.219  -1.698  0.00  0.00    +0.037 C 
BRANCH   5  14
ATOM     14  C   UNL     1       0.837  -0.786  -1.686  0.00  0.00    +0.342 C 
ATOM     15  O   UNL     1       0.429  -1.466  -0.763  0.00  0.00    -0.245 OA
BRANCH  14  16
ATOM     16  O   UNL     1       0.668   0.551  -1.665  0.00  0.00    -0.461 OA
BRANCH  16  18
ATOM     17  C   UNL     1      -0.097   2.622  -0.681  0.00  0.00    +0.048 C 
ATOM     18  C   UNL     1       0.001   1.103  -0.527  0.00  0.00    +0.229 C 
ENDBRANCH  16  18
ENDBRANCH  14  16
ENDBRANCH   5  14
ENDBRANCH   1   9
BRANCH   2  19
ATOM     19  C   UNL     1      -2.569  -2.179  -5.544  0.00  0.00    +0.059 C 
ATOM     20  C   UNL     1      -3.010  -0.712  -5.524  0.00  0.00    +0.009 C 
ATOM     21  C   UNL     1      -4.504  -0.634  -5.849  0.00  0.00    -0.018 C 
ATOM     22  C   UNL     1      -4.760  -1.298  -7.204  0.00  0.00    -0.078 C 
ATOM     23  N   UNL     1      -4.343  -2.704  -7.151  0.00  0.00    +0.383 N 
ATOM     24  C   UNL     1      -2.897  -2.786  -6.909  0.00  0.00    -0.066 C 
ATOM     25  H   UNL     1      -4.834  -3.171  -6.404  0.00  0.00    -0.081 HD
BRANCH  23  26
ATOM     26  C   UNL     1      -4.662  -3.357  -8.427  0.00  0.00    -0.042 C 
BRANCH  26  27
ATOM     27  C   UNL     1      -6.158  -3.411  -8.603  0.00  0.00    -0.056 A 
ATOM     28  C   UNL     1      -6.780  -2.538  -9.442  0.00  0.00    +0.002 A 
ATOM     29  C   UNL     1      -8.162  -2.572  -9.617  0.00  0.00    +0.001 A 
ATOM     30  C   UNL     1      -8.930  -3.480  -8.955  0.00  0.00    +0.008 A 
ATOM     31  C   UNL     1      -8.323  -4.397  -8.081  0.00  0.00    -0.018 A 
ATOM     32  C   UNL     1      -6.917  -4.366  -7.907  0.00  0.00    -0.017 A 
ATOM     33  C   UNL     1      -6.309  -5.288  -7.037  0.00  0.00    +0.009 A 
ATOM     34  C   UNL     1      -7.077  -6.199  -6.379  0.00  0.00    +0.001 A 
ATOM     35  C   UNL     1      -8.459  -6.234  -6.555  0.00  0.00    +0.001 A 
ATOM     36  C   UNL     1      -9.083  -5.349  -7.379  0.00  0.00    +0.008 A 
ENDBRANCH  26  27
ENDBRANCH  23  26
ENDBRANCH   2  19
TORSDOF 7
