REMARK  Name = ZINC01884960
REMARK  8 active torsions:
REMARK  status: ('A' for Active; 'I' for Inactive)
REMARK    1  A    between atoms: C_1  and  C_2
REMARK    2  A    between atoms: C_4  and  C_36
REMARK    3  A    between atoms: C_6  and  N_8
REMARK    4  A    between atoms: C_9  and  C_11
REMARK    5  A    between atoms: N_22  and  N_25
REMARK    6  A    between atoms: C_23  and  N_24
REMARK    7  A    between atoms: C_26  and  C_27
REMARK    8  A    between atoms: C_31  and  N_33
REMARK                            x       y       z     vdW  Elec       q    Type
REMARK                         _______ _______ _______ _____ _____    ______ ____
ROOT
ATOM      1  C   UNL     1      -1.253   9.380   0.975  0.00  0.00    +0.105 A 
ATOM      2  C   UNL     1      -1.451   9.442  -0.483  0.00  0.00    +0.124 A 
ATOM      3  C   UNL     1      -1.373   8.053  -0.945  0.00  0.00    +0.183 A 
ATOM      4  N   UNL     1      -1.515   7.789  -2.227  0.00  0.00    -0.224 NA
ATOM      5  C   UNL     1      -1.728   8.787  -3.094  0.00  0.00    +0.092 A 
ATOM      6  C   UNL     1      -1.881   8.513  -4.466  0.00  0.00    +0.030 A 
ATOM      7  C   UNL     1      -2.097   9.533  -5.340  0.00  0.00    +0.002 A 
ATOM      8  C   UNL     1      -2.171  10.853  -4.897  0.00  0.00    +0.002 A 
ATOM      9  C   UNL     1      -2.028  11.156  -3.579  0.00  0.00    +0.030 A 
ATOM     10  C   UNL     1      -1.803  10.129  -2.644  0.00  0.00    +0.090 A 
ATOM     11  N   UNL     1      -1.660  10.416  -1.345  0.00  0.00    -0.241 NA
ATOM     12  N   UNL     1      -1.148   7.268   0.170  0.00  0.00    -0.198 N 
ATOM     13  C   UNL     1      -1.083   8.037   1.294  0.00  0.00    +0.134 A 
ENDROOT
BRANCH   1  15
ATOM     14  N   UNL     1      -0.088  11.109   2.155  0.00  0.00    -0.281 N 
ATOM     15  C   UNL     1      -1.244  10.474   1.877  0.00  0.00    +0.254 C 
ATOM     16  O   UNL     1      -2.281  10.840   2.401  0.00  0.00    -0.270 OA
ATOM     17  H   UNL     1       0.748  10.771   1.798  0.00  0.00    +0.155 HD
BRANCH  14  23
ATOM     18  C   UNL     1       2.129  13.943   5.505  0.00  0.00    +0.044 C 
ATOM     19  C   UNL     1       0.967  13.653   4.590  0.00  0.00    -0.048 A 
ATOM     20  C   UNL     1      -0.108  14.522   4.543  0.00  0.00    +0.006 A 
ATOM     21  C   UNL     1      -1.176  14.260   3.704  0.00  0.00    -0.048 A 
ATOM     22  C   UNL     1      -1.173  13.130   2.911  0.00  0.00    +0.026 A 
ATOM     23  C   UNL     1      -0.095  12.255   2.956  0.00  0.00    +0.034 A 
ATOM     24  C   UNL     1       0.974  12.518   3.803  0.00  0.00    +0.026 A 
ATOM     25  C   UNL     1      -2.346  15.210   3.656  0.00  0.00    +0.044 C 
ENDBRANCH  14  23
ENDBRANCH   1  15
BRANCH  13  26
ATOM     26  N   UNL     1      -0.875   7.554   2.561  0.00  0.00    -0.342 N 
ATOM     27  H   UNL     1      -0.762   6.601   2.704  0.00  0.00    +0.144 HD
ATOM     28  H   UNL     1      -0.841   8.165   3.313  0.00  0.00    +0.144 HD
ENDBRANCH  13  26
BRANCH  12  29
ATOM     29  N   UNL     1      -1.012   5.874   0.149  0.00  0.00    -0.171 NA
ATOM     30  C   UNL     1       0.159   5.338  -0.007  0.00  0.00    +0.141 C 
BRANCH  30  31
ATOM     31  C   UNL     1       0.302   3.871  -0.029  0.00  0.00    -0.003 A 
ATOM     32  C   UNL     1      -0.822   3.054   0.117  0.00  0.00    +0.009 A 
ATOM     33  C   UNL     1      -0.682   1.682   0.090  0.00  0.00    +0.003 A 
ATOM     34  C   UNL     1       0.570   1.114  -0.071  0.00  0.00    +0.033 A 
ATOM     35  C   UNL     1       1.687   1.917  -0.216  0.00  0.00    +0.127 A 
ATOM     36  C   UNL     1       1.561   3.291  -0.196  0.00  0.00    +0.042 A 
BRANCH  35  37
ATOM     37  N   UNL     1       3.021   1.300  -0.394  0.00  0.00    +0.056 N 
ATOM     38  O   UNL     1       3.134   0.088  -0.412  0.00  0.00    -0.126 OA
ATOM     39  O   UNL     1       4.006   2.006  -0.522  0.00  0.00    -0.126 OA
ENDBRANCH  35  37
ENDBRANCH  30  31
ENDBRANCH  12  29
TORSDOF 6
