REMARK  Name = ZINC20332070
REMARK  8 active torsions:
REMARK  status: ('A' for Active; 'I' for Inactive)
REMARK    1  A    between atoms: C_1  and  C_2
REMARK    2  A    between atoms: C_2  and  C_3
REMARK    3  A    between atoms: C_9  and  C_13
REMARK    4  A    between atoms: C_13  and  O_14
REMARK    5  A    between atoms: O_14  and  C_15
REMARK    6  A    between atoms: C_18  and  C_23
REMARK    7  A    between atoms: C_20  and  O_21
REMARK    8  A    between atoms: O_21  and  C_22
REMARK                            x       y       z     vdW  Elec       q    Type
REMARK                         _______ _______ _______ _____ _____    ______ ____
ROOT
ATOM      1  C   UNL     1      -8.971  -3.952  -1.234  0.00  0.00    +0.162 A 
ATOM      2  C   UNL     1     -10.024  -4.147  -0.349  0.00  0.00    +0.050 A 
ATOM      3  C   UNL     1     -10.892  -5.200  -0.527  0.00  0.00    +0.012 A 
ATOM      4  C   UNL     1     -10.714  -6.080  -1.605  0.00  0.00    -0.021 A 
ATOM      5  C   UNL     1      -9.652  -5.881  -2.497  0.00  0.00    +0.057 A 
ATOM      6  C   UNL     1      -8.790  -4.819  -2.313  0.00  0.00    +0.162 A 
ENDROOT
BRANCH   4   7
ATOM      7  C   UNL     1     -11.636  -7.202  -1.797  0.00  0.00    +0.024 C 
ATOM      8  C   UNL     1     -12.142  -7.872  -0.706  0.00  0.00    +0.079 C 
ATOM      9  C   UNL     1     -13.217  -8.895  -0.840  0.00  0.00    +0.135 C 
ATOM     10  N   UNL     1     -13.337  -9.678  -1.878  0.00  0.00    -0.284 NA
ATOM     11  N   UNL     1     -14.094  -8.935   0.268  0.00  0.00    -0.241 N 
ATOM     12  C   UNL     1     -15.372  -9.417   0.236  0.00  0.00    +0.091 C 
ATOM     13  C   UNL     1     -16.058  -9.445   1.383  0.00  0.00    +0.064 C 
ATOM     14  S   UNL     1     -14.879  -8.771   2.540  0.00  0.00    -0.063 S 
ATOM     15  C   UNL     1     -13.631  -8.461   1.474  0.00  0.00    +0.163 C 
ATOM     16  N   UNL     1     -12.475  -7.874   1.700  0.00  0.00    -0.154 NA
ATOM     17  C   UNL     1     -11.645  -7.620   0.669  0.00  0.00    +0.273 C 
ATOM     18  O   UNL     1     -10.518  -7.191   0.860  0.00  0.00    -0.268 OA
ATOM     19  H   UNL     1     -12.707  -9.609  -2.612  0.00  0.00    +0.188 HD
ENDBRANCH   4   7
BRANCH   6  20
ATOM     20  O   UNL     1      -7.761  -4.620  -3.179  0.00  0.00    -0.491 OA
ATOM     21  C   UNL     1      -7.636  -5.545  -4.261  0.00  0.00    +0.277 C 
ENDBRANCH   6  20
BRANCH   1  22
ATOM     22  O   UNL     1      -8.119  -2.911  -1.053  0.00  0.00    -0.482 OA
BRANCH  22  23
ATOM     23  C   UNL     1      -8.361  -2.062   0.071  0.00  0.00    +0.284 C 
BRANCH  23  30
ATOM     24  C   UNL     1      -3.108   1.433   0.460  0.00  0.00    +0.102 A 
ATOM     25  N   UNL     1      -4.312   1.871   0.253  0.00  0.00    -0.159 NA
ATOM     26  N   UNL     1      -5.402   1.009   0.186  0.00  0.00    -0.171 N 
ATOM     27  C   UNL     1      -6.708   1.345  -0.026  0.00  0.00    +0.275 A 
ATOM     28  O   UNL     1      -7.022   2.515  -0.181  0.00  0.00    -0.266 OA
ATOM     29  C   UNL     1      -7.684   0.348  -0.066  0.00  0.00    +0.099 A 
ATOM     30  C   UNL     1      -7.323  -0.971   0.109  0.00  0.00    +0.087 A 
ATOM     31  N   UNL     1      -6.041  -1.263   0.314  0.00  0.00    -0.223 NA
ATOM     32  C   UNL     1      -5.132  -0.322   0.349  0.00  0.00    +0.199 A 
ATOM     33  S   UNL     1      -3.368  -0.330   0.585  0.00  0.00    -0.033 S 
BRANCH  24  35
ATOM     34  C   UNL     1      -2.111   3.702   0.388  0.00  0.00    +0.011 C 
ATOM     35  C   UNL     1      -1.821   2.210   0.563  0.00  0.00    +0.061 C 
ENDBRANCH  24  35
ENDBRANCH  23  30
ENDBRANCH  22  23
ENDBRANCH   1  22
TORSDOF 6
