REMARK  Name = ZINC25573827
REMARK  3 active torsions:
REMARK  status: ('A' for Active; 'I' for Inactive)
REMARK    1  A    between atoms: C_3  and  C_9
REMARK    2  A    between atoms: C_14  and  C_16
REMARK    3  A    between atoms: N_18  and  C_19
REMARK                            x       y       z     vdW  Elec       q    Type
REMARK                         _______ _______ _______ _____ _____    ______ ____
ROOT
ATOM      1  C   UNL     1      -2.532   3.852   0.068  0.00  0.00    +0.141 A 
ATOM      2  C   UNL     1      -3.499   3.519  -0.836  0.00  0.00    +0.097 A 
ATOM      3  C   UNL     1      -4.726   4.218  -0.813  0.00  0.00    +0.186 A 
ATOM      4  O   UNL     1      -5.621   3.950  -1.600  0.00  0.00    -0.288 OA
ATOM      5  C   UNL     1      -4.889   5.282   0.187  0.00  0.00    +0.102 A 
ATOM      6  C   UNL     1      -3.861   5.536   1.036  0.00  0.00    +0.194 A 
ATOM      7  O   UNL     1      -2.720   4.830   0.965  0.00  0.00    -0.450 OA
ENDROOT
BRANCH   1  10
ATOM      8  C   UNL     1       1.153   3.139   0.025  0.00  0.00    +0.021 A 
ATOM      9  C   UNL     1      -0.042   3.826   0.039  0.00  0.00    +0.014 A 
ATOM     10  C   UNL     1      -1.249   3.123   0.053  0.00  0.00    +0.036 A 
ATOM     11  C   UNL     1      -1.236   1.724   0.049  0.00  0.00    +0.053 A 
ATOM     12  C   UNL     1      -0.032   1.049   0.042  0.00  0.00    +0.040 A 
ATOM     13  C   UNL     1       1.160   1.753   0.027  0.00  0.00    +0.042 A 
ATOM     14 CL   UNL     1       2.670   0.897   0.010  0.00  0.00    -0.083 Cl
ATOM     15 CL   UNL     1      -2.730   0.840   0.060  0.00  0.00    -0.083 Cl
ENDBRANCH   1  10
BRANCH   6  16
ATOM     16  C   UNL     1      -3.999   6.602   2.053  0.00  0.00    +0.284 C 
ATOM     17  O   UNL     1      -5.029   7.245   2.124  0.00  0.00    -0.266 OA
ATOM     18  N   UNL     1      -2.984   6.860   2.900  0.00  0.00    -0.278 N 
ATOM     19  H   UNL     1      -2.082   6.231   2.886  0.00  0.00    +0.155 HD
BRANCH  18  20
ATOM     20  C   UNL     1      -3.077   7.929   3.798  0.00  0.00    +0.054 A 
ATOM     21  C   UNL     1      -4.303   8.262   4.359  0.00  0.00    +0.046 A 
ATOM     22  C   UNL     1      -4.392   9.317   5.246  0.00  0.00    +0.061 A 
ATOM     23  C   UNL     1      -3.260  10.043   5.577  0.00  0.00    +0.061 A 
ATOM     24  C   UNL     1      -2.037   9.714   5.020  0.00  0.00    +0.043 A 
ATOM     25  C   UNL     1      -1.941   8.655   4.136  0.00  0.00    +0.064 A 
ATOM     26 CL   UNL     1      -0.405   8.238   3.444  0.00  0.00    -0.082 Cl
ATOM     27 CL   UNL     1      -3.375  11.368   6.693  0.00  0.00    -0.082 Cl
ATOM     28 CL   UNL     1      -5.925   9.734   5.947  0.00  0.00    -0.082 Cl
ENDBRANCH  18  20
ENDBRANCH   6  16
TORSDOF 3
