REMARK  Name = ZINC06781363
REMARK  10 active torsions:
REMARK  status: ('A' for Active; 'I' for Inactive)
REMARK    1  A    between atoms: C_1  and  C_2
REMARK    2  A    between atoms: C_2  and  C_3
REMARK    3  A    between atoms: C_2  and  C_4
REMARK    4  A    between atoms: C_2  and  C_5
REMARK    5  A    between atoms: C_5  and  N_6
REMARK    6  A    between atoms: N_6  and  C_7
REMARK    7  A    between atoms: C_7  and  C_8
REMARK    8  A    between atoms: C_11  and  O_14
REMARK    9  A    between atoms: C_15  and  S_17
REMARK   10  A    between atoms: S_17  and  C_18
REMARK                            x       y       z     vdW  Elec       q    Type
REMARK                         _______ _______ _______ _____ _____    ______ ____
ROOT
ATOM      1  N   UNL     1      -1.222   2.429   0.021  0.00  0.00    -0.307 N 
ATOM      2  C   UNL     1      -0.022   1.758   0.012  0.00  0.00    +0.133 C 
ATOM      3  N   UNL     1       1.098   2.425   0.005  0.00  0.00    -0.381 N 
ATOM      4  H   UNL     1       2.058   1.888  -0.003  0.00  0.00    +0.158 HD
ATOM      5  H   UNL     1       1.083   3.525   0.006  0.00  0.00    +0.158 HD
ENDROOT
BRANCH   1   6
ATOM      6  C   UNL     1      -2.481   1.680   0.023  0.00  0.00    +0.113 C 
BRANCH   6   8
ATOM      7  C   UNL     1      -3.110   2.741   2.196  0.00  0.00    +0.012 C 
ATOM      8  C   UNL     1      -2.913   1.411   1.466  0.00  0.00    -0.022 C 
ATOM      9  C   UNL     1      -4.227   0.628   1.468  0.00  0.00    +0.012 C 
ATOM     10  C   UNL     1      -1.832   0.595   2.178  0.00  0.00    +0.012 C 
ENDBRANCH   6   8
ENDBRANCH   1   6
BRANCH   1  11
ATOM     11  C   UNL     1      -1.242   3.894   0.029  0.00  0.00    +0.142 C 
BRANCH  11  12
ATOM     12  C   UNL     1      -1.256   4.404  -1.389  0.00  0.00    -0.030 A 
ATOM     13  C   UNL     1      -0.064   4.659  -2.042  0.00  0.00    +0.009 A 
ATOM     14  C   UNL     1      -0.074   5.122  -3.344  0.00  0.00    +0.046 A 
ATOM     15  C   UNL     1      -1.281   5.340  -3.992  0.00  0.00    +0.117 A 
ATOM     16  C   UNL     1      -2.475   5.089  -3.333  0.00  0.00    +0.046 A 
ATOM     17  C   UNL     1      -2.460   4.622  -2.033  0.00  0.00    +0.009 A 
BRANCH  15  18
ATOM     18  O   UNL     1      -1.293   5.800  -5.271  0.00  0.00    -0.507 OA
ATOM     19  H   UNL     1      -2.251   5.973  -5.784  0.00  0.00    +0.292 HD
ENDBRANCH  15  18
ENDBRANCH  11  12
ENDBRANCH   1  11
BRANCH   2  20
ATOM     20  S   UNL     1       0.002  -0.004   0.002  0.00  0.00    -0.049 S 
BRANCH  20  21
ATOM     21  C   UNL     1       1.741  -0.286  -0.016  0.00  0.00    +0.053 A 
ATOM     22  C   UNL     1       2.397  -1.467  -0.029  0.00  0.00    +0.031 A 
ATOM     23  C   UNL     1       3.851  -1.468  -0.043  0.00  0.00    -0.010 A 
ATOM     24  C   UNL     1       4.734  -2.575  -0.058  0.00  0.00    +0.009 A 
ATOM     25  C   UNL     1       6.081  -2.389  -0.071  0.00  0.00    +0.001 A 
ATOM     26  C   UNL     1       6.638  -1.117  -0.070  0.00  0.00    +0.001 A 
ATOM     27  C   UNL     1       5.809  -0.012  -0.056  0.00  0.00    +0.015 A 
ATOM     28  C   UNL     1       4.443  -0.186  -0.043  0.00  0.00    +0.020 A 
ATOM     29  S   UNL     1       3.055   0.918  -0.030  0.00  0.00    -0.082 S 
ENDBRANCH  20  21
ENDBRANCH   2  20
TORSDOF 7
