REMARK  Name = ZINC36050461
REMARK  12 active torsions:
REMARK  status: ('A' for Active; 'I' for Inactive)
REMARK    1  A    between atoms: C_1  and  C_2
REMARK    2  A    between atoms: C_3  and  C_31
REMARK    3  A    between atoms: C_4  and  C_24
REMARK    4  A    between atoms: C_7  and  C_12
REMARK    5  A    between atoms: C_13  and  N_15
REMARK    6  A    between atoms: N_15  and  C_16
REMARK    7  A    between atoms: C_16  and  C_17
REMARK    8  A    between atoms: C_17  and  C_18
REMARK    9  A    between atoms: C_31  and  O_33
REMARK   10  A    between atoms: O_33  and  C_34
REMARK   11  A    between atoms: C_34  and  C_35
REMARK   12  A    between atoms: C_34  and  C_36
REMARK                            x       y       z     vdW  Elec       q    Type
REMARK                         _______ _______ _______ _____ _____    ______ ____
ROOT
ATOM      1  C   UNL     1       0.120   0.872  -0.172  0.00  0.00    +0.066 C 
ATOM      2  C   UNL     1       0.023  -0.626  -0.040  0.00  0.00    +0.053 C 
ATOM      3  C   UNL     1      -1.218  -1.234  -0.027  0.00  0.00    +0.083 C 
ATOM      4  C   UNL     1      -1.264  -2.740   0.108  0.00  0.00    +0.151 C 
ATOM      5  N   UNL     1       0.039  -3.450   0.216  0.00  0.00    -0.267 N 
ATOM      6  C   UNL     1       0.235  -4.810   0.346  0.00  0.00    +0.048 C 
ATOM      7  C   UNL     1       1.509  -5.254   0.429  0.00  0.00    +0.072 C 
ATOM      8  S   UNL     1       2.436  -3.737   0.324  0.00  0.00    -0.060 S 
ATOM      9  C   UNL     1       1.155  -2.662   0.183  0.00  0.00    +0.166 C 
ATOM     10  N   UNL     1       1.125  -1.351   0.058  0.00  0.00    -0.230 NA
ENDROOT
BRANCH   4  11
ATOM     11  C   UNL     1      -1.993  -3.291  -1.091  0.00  0.00    -0.004 A 
ATOM     12  C   UNL     1      -3.277  -3.785  -0.952  0.00  0.00    +0.007 A 
ATOM     13  C   UNL     1      -3.946  -4.290  -2.051  0.00  0.00    +0.000 A 
ATOM     14  C   UNL     1      -3.331  -4.302  -3.289  0.00  0.00    +0.001 A 
ATOM     15  C   UNL     1      -2.048  -3.809  -3.429  0.00  0.00    +0.020 A 
ATOM     16  C   UNL     1      -1.380  -3.298  -2.331  0.00  0.00    +0.046 A 
ATOM     17 CL   UNL     1       0.230  -2.671  -2.507  0.00  0.00    -0.083 Cl
ENDBRANCH   4  11
BRANCH   6  18
ATOM     18  C   UNL     1      -0.900  -5.743   0.392  0.00  0.00    +0.091 C 
ATOM     19  C   UNL     1      -0.690  -7.048   0.646  0.00  0.00    +0.239 C 
ATOM     20  O   UNL     1       0.576  -7.524   0.748  0.00  0.00    -0.271 OA
BRANCH  19  21
ATOM     21  N   UNL     1      -1.766  -7.905   0.804  0.00  0.00    -0.311 N 
ATOM     22  H   UNL     1      -2.671  -7.565   0.731  0.00  0.00    +0.149 HD
BRANCH  21  23
ATOM     23  C   UNL     1      -1.537  -9.326   1.080  0.00  0.00    +0.110 C 
BRANCH  23  24
ATOM     24  C   UNL     1      -2.882 -10.044   1.209  0.00  0.00    +0.074 C 
BRANCH  24  25
ATOM     25  C   UNL     1      -2.646 -11.505   1.493  0.00  0.00    +0.043 A 
ATOM     26  C   UNL     1      -3.232 -12.088   2.601  0.00  0.00    +0.023 A 
ATOM     27  C   UNL     1      -3.009 -13.433   2.853  0.00  0.00    +0.003 A 
ATOM     28  C   UNL     1      -2.201 -14.144   1.979  0.00  0.00    +0.020 A 
ATOM     29  C   UNL     1      -1.649 -13.493   0.892  0.00  0.00    +0.111 A 
ATOM     30  N   UNL     1      -1.887 -12.213   0.680  0.00  0.00    -0.260 NA
ENDBRANCH  24  25
ENDBRANCH  23  24
ENDBRANCH  21  23
ENDBRANCH  19  21
ENDBRANCH   6  18
BRANCH   3  31
ATOM     31  C   UNL     1      -2.394  -0.482  -0.135  0.00  0.00    +0.339 C 
ATOM     32  O   UNL     1      -2.338   0.735  -0.161  0.00  0.00    -0.245 OA
BRANCH  31  33
ATOM     33  O   UNL     1      -3.591  -1.105  -0.209  0.00  0.00    -0.459 OA
BRANCH  33  34
ATOM     34  C   UNL     1      -4.739  -0.281  -0.423  0.00  0.00    +0.171 C 
ATOM     35  C   UNL     1      -5.840  -1.105  -1.093  0.00  0.00    +0.052 C 
ATOM     36  C   UNL     1      -5.244   0.248   0.920  0.00  0.00    +0.052 C 
ENDBRANCH  33  34
ENDBRANCH  31  33
ENDBRANCH   3  31
TORSDOF 9
