REMARK  Name = ZINC43092671
REMARK  10 active torsions:
REMARK  status: ('A' for Active; 'I' for Inactive)
REMARK    1  A    between atoms: C_1  and  C_2
REMARK    2  A    between atoms: C_2  and  C_3
REMARK    3  A    between atoms: C_3  and  C_5
REMARK    4  A    between atoms: C_3  and  N_23
REMARK    5  A    between atoms: C_5  and  C_7
REMARK    6  A    between atoms: C_5  and  N_14
REMARK    7  A    between atoms: N_14  and  C_15
REMARK    8  A    between atoms: N_14  and  C_16
REMARK    9  A    between atoms: C_16  and  C_17
REMARK   10  A    between atoms: C_21  and  C_22
REMARK                            x       y       z     vdW  Elec       q    Type
REMARK                         _______ _______ _______ _____ _____    ______ ____
ROOT
ATOM      1  C   UNL     1       1.404  -2.878  -1.093  0.00  0.00    -0.051 C 
ENDROOT
BRANCH   1   2
ATOM      2  C   UNL     1       2.229  -3.607  -2.122  0.00  0.00    -0.049 A 
ATOM      3  C   UNL     1       1.903  -3.515  -3.462  0.00  0.00    +0.003 A 
ATOM      4  C   UNL     1       2.661  -4.183  -4.405  0.00  0.00    +0.000 A 
ATOM      5  C   UNL     1       3.745  -4.944  -4.009  0.00  0.00    +0.001 A 
ATOM      6  C   UNL     1       4.072  -5.037  -2.669  0.00  0.00    +0.015 A 
ATOM      7  C   UNL     1       3.317  -4.364  -1.725  0.00  0.00    +0.019 A 
ATOM      8 BR   UNL     1       3.768  -4.485   0.107  0.00  0.00    -0.050 Br
ENDBRANCH   1   2
BRANCH   1   9
ATOM      9  N   UNL     1      -0.023  -3.043  -1.404  0.00  0.00    +0.384 N 
ATOM     10  C   UNL     1      -0.830  -2.469  -0.319  0.00  0.00    -0.095 C 
ATOM     11  H   UNL     1      -0.236  -2.569  -2.269  0.00  0.00    -0.081 HD
BRANCH   9  12
ATOM     12  C   UNL     1      -0.332  -4.473  -1.540  0.00  0.00    -0.039 C 
BRANCH  12  13
ATOM     13  C   UNL     1      -1.786  -4.641  -1.897  0.00  0.00    -0.023 A 
ATOM     14  C   UNL     1      -2.826  -5.043  -1.026  0.00  0.00    +0.043 A 
ATOM     15  C   UNL     1      -3.957  -5.059  -1.753  0.00  0.00    +0.195 A 
ATOM     16  O   UNL     1      -3.660  -4.691  -3.010  0.00  0.00    -0.468 OA
ATOM     17  C   UNL     1      -2.346  -4.431  -3.102  0.00  0.00    +0.103 A 
ATOM     18  C   UNL     1      -1.620  -3.984  -4.344  0.00  0.00    +0.086 C 
ENDBRANCH  12  13
ENDBRANCH   9  12
ENDBRANCH   1   9
BRANCH   1  19
ATOM     19  C   UNL     1       1.761  -1.390  -1.114  0.00  0.00    -0.085 C 
BRANCH  19  20
ATOM     20  N   UNL     1       3.215  -1.238  -1.253  0.00  0.00    +0.379 N 
ATOM     21  H   UNL     1       3.676  -1.684  -0.475  0.00  0.00    -0.090 HD
ATOM     22  H   UNL     1       3.518  -1.668  -2.115  0.00  0.00    -0.090 HD
ATOM     23  H   UNL     1       3.451  -0.257  -1.267  0.00  0.00    -0.090 HD
ENDBRANCH  19  20
BRANCH  19  25
ATOM     24  C   UNL     1       1.675   0.746   0.178  0.00  0.00    +0.002 C 
ATOM     25  C   UNL     1       1.303  -0.738   0.192  0.00  0.00    -0.021 C 
ENDBRANCH  19  25
ENDBRANCH   1  19
TORSDOF 7
