REMARK  Name = ZINC66362570
REMARK  3 active torsions:
REMARK  status: ('A' for Active; 'I' for Inactive)
REMARK    1  A    between atoms: C_4  and  C_7
REMARK    2  A    between atoms: C_19  and  C_21
REMARK    3  A    between atoms: N_23  and  C_24
REMARK                            x       y       z     vdW  Elec       q    Type
REMARK                         _______ _______ _______ _____ _____    ______ ____
ROOT
ATOM      1  C   UNL     1       3.741  -0.733  -0.068  0.00  0.00    +0.247 C 
ATOM      2  O   UNL     1       4.790  -0.131  -0.183  0.00  0.00    -0.270 OA
ATOM      3  N   UNL     1       3.742  -2.076   0.039  0.00  0.00    -0.283 N 
ATOM      4  C   UNL     1       4.912  -2.933   0.149  0.00  0.00    +0.080 C 
ATOM      5  C   UNL     1       6.184  -2.479  -0.537  0.00  0.00    +0.023 C 
ATOM      6  C   UNL     1       7.266  -3.531  -0.238  0.00  0.00    +0.002 C 
ATOM      7  C   UNL     1       6.835  -4.919  -0.701  0.00  0.00    +0.000 C 
ATOM      8  C   UNL     1       5.480  -5.320  -0.096  0.00  0.00    +0.005 C 
ATOM      9  C   UNL     1       4.476  -4.259  -0.531  0.00  0.00    +0.012 C 
ATOM     10  C   UNL     1       3.071  -4.423   0.068  0.00  0.00    +0.037 C 
ATOM     11  C   UNL     1       2.551  -2.958   0.072  0.00  0.00    +0.163 C 
ENDROOT
BRANCH   1  15
ATOM     12  C   UNL     1       0.068   1.399   0.002  0.00  0.00    +0.000 A 
ATOM     13  C   UNL     1       0.218   0.261   0.775  0.00  0.00    +0.001 A 
ATOM     14  C   UNL     1       1.409  -0.436   0.756  0.00  0.00    +0.013 A 
ATOM     15  C   UNL     1       2.462   0.009  -0.044  0.00  0.00    +0.037 A 
ATOM     16  C   UNL     1       2.304   1.158  -0.821  0.00  0.00    +0.013 A 
ATOM     17  C   UNL     1       1.108   1.846  -0.793  0.00  0.00    +0.001 A 
ENDBRANCH   1  15
BRANCH  11  18
ATOM     18  C   UNL     1       1.699  -2.716  -1.147  0.00  0.00    +0.238 C 
ATOM     19  O   UNL     1       2.172  -2.165  -2.118  0.00  0.00    -0.273 OA
ATOM     20  N   UNL     1       0.410  -3.111  -1.157  0.00  0.00    -0.283 N 
ATOM     21  H   UNL     1       0.011  -3.483  -0.355  0.00  0.00    +0.155 HD
BRANCH  20  22
ATOM     22  C   UNL     1      -0.351  -2.983  -2.323  0.00  0.00    +0.043 A 
ATOM     23  C   UNL     1       0.270  -2.934  -3.558  0.00  0.00    +0.024 A 
ATOM     24  C   UNL     1      -0.484  -2.809  -4.715  0.00  0.00    +0.004 A 
ATOM     25  C   UNL     1      -1.858  -2.730  -4.656  0.00  0.00    +0.026 A 
ATOM     26  C   UNL     1      -2.506  -2.778  -3.425  0.00  0.00    +0.048 A 
ATOM     27  C   UNL     1      -1.749  -2.911  -2.249  0.00  0.00    +0.021 A 
ATOM     28  C   UNL     1      -2.712  -2.936  -1.146  0.00  0.00    +0.029 A 
ATOM     29  C   UNL     1      -3.934  -2.828  -1.690  0.00  0.00    +0.083 A 
ATOM     30  N   UNL     1      -3.831  -2.725  -3.051  0.00  0.00    -0.361 N 
ATOM     31  H   UNL     1      -4.579  -2.636  -3.662  0.00  0.00    +0.165 HD
ENDBRANCH  20  22
ENDBRANCH  11  18
TORSDOF 3
