REMARK  Name = ZINC12926659
REMARK  10 active torsions:
REMARK  status: ('A' for Active; 'I' for Inactive)
REMARK    1  A    between atoms: C_1  and  C_2
REMARK    2  A    between atoms: C_2  and  C_26
REMARK    3  A    between atoms: N_5  and  C_9
REMARK    4  A    between atoms: C_9  and  C_10
REMARK    5  A    between atoms: N_15  and  C_18
REMARK    6  A    between atoms: C_18  and  C_19
REMARK    7  A    between atoms: N_21  and  C_22
REMARK    8  A    between atoms: C_22  and  C_23
REMARK    9  A    between atoms: C_22  and  C_24
REMARK   10  A    between atoms: C_22  and  C_25
REMARK                            x       y       z     vdW  Elec       q    Type
REMARK                         _______ _______ _______ _____ _____    ______ ____
ROOT
ATOM      1  C   UNL     1      -2.569  -1.986   1.805  0.00  0.00    +0.213 C 
ENDROOT
BRANCH   1   6
ATOM      2  C   UNL     1      -0.019   1.526   0.010  0.00  0.00    +0.047 C 
ATOM      3  C   UNL     1       0.002  -0.004   0.002  0.00  0.00    +0.135 C 
ATOM      4  C   UNL     1      -1.403  -0.557   0.139  0.00  0.00    +0.251 C 
ATOM      5  O   UNL     1      -2.332  -0.392  -0.621  0.00  0.00    -0.272 OA
ATOM      6  N   UNL     1      -1.403  -1.272   1.282  0.00  0.00    -0.215 N 
ATOM      7  C   UNL     1      -0.206  -1.247   1.879  0.00  0.00    +0.310 C 
ATOM      8  O   UNL     1       0.040  -1.819   2.924  0.00  0.00    -0.252 OA
ATOM      9  N   UNL     1       0.695  -0.520   1.195  0.00  0.00    -0.281 N 
ATOM     10  H   UNL     1       1.621  -0.365   1.440  0.00  0.00    +0.152 HD
BRANCH   3  11
ATOM     11  C   UNL     1       0.657  -0.517  -1.255  0.00  0.00    -0.015 A 
ATOM     12  C   UNL     1      -0.108  -0.772  -2.378  0.00  0.00    +0.007 A 
ATOM     13  C   UNL     1       0.492  -1.242  -3.530  0.00  0.00    +0.020 A 
ATOM     14  C   UNL     1       1.859  -1.458  -3.560  0.00  0.00    +0.041 A 
ATOM     15  C   UNL     1       2.623  -1.203  -2.436  0.00  0.00    +0.020 A 
ATOM     16  C   UNL     1       2.023  -0.727  -1.286  0.00  0.00    +0.007 A 
ATOM     17 CL   UNL     1       2.613  -2.049  -5.008  0.00  0.00    -0.084 Cl
ENDBRANCH   3  11
ENDBRANCH   1   6
BRANCH   1  18
ATOM     18  C   UNL     1      -2.585  -3.391   1.260  0.00  0.00    +0.234 C 
ATOM     19  O   UNL     1      -1.707  -3.759   0.508  0.00  0.00    -0.274 OA
ATOM     20  N   UNL     1      -3.573  -4.239   1.608  0.00  0.00    -0.298 N 
ATOM     21  C   UNL     1      -4.650  -3.811   2.514  0.00  0.00    +0.123 C 
ATOM     22  C   UNL     1      -5.996  -4.149   1.863  0.00  0.00    +0.104 C 
ATOM     23  N   UNL     1      -6.018  -5.572   1.501  0.00  0.00    -0.291 NA
ATOM     24  C   UNL     1      -4.991  -5.882   0.497  0.00  0.00    +0.104 C 
ATOM     25  C   UNL     1      -3.607  -5.614   1.087  0.00  0.00    +0.123 C 
BRANCH  23  26
ATOM     26  C   UNL     1      -7.350  -5.976   1.032  0.00  0.00    +0.180 C 
BRANCH  26  27
ATOM     27  C   UNL     1      -7.405  -7.476   0.905  0.00  0.00    +0.227 C 
ATOM     28  O   UNL     1      -6.429  -8.144   1.177  0.00  0.00    -0.274 OA
ATOM     29  N   UNL     1      -8.537  -8.076   0.488  0.00  0.00    -0.310 N 
ATOM     30  H   UNL     1      -9.317  -7.542   0.270  0.00  0.00    +0.149 HD
BRANCH  29  31
ATOM     31  C   UNL     1      -8.590  -9.535   0.364  0.00  0.00    +0.026 C 
ATOM     32  C   UNL     1      -8.314 -10.173   1.726  0.00  0.00    +0.031 C 
ATOM     33  C   UNL     1      -9.978  -9.956  -0.124  0.00  0.00    +0.031 C 
ATOM     34  C   UNL     1      -7.534 -10.000  -0.641  0.00  0.00    +0.031 C 
ENDBRANCH  29  31
ENDBRANCH  26  27
ENDBRANCH  23  26
ENDBRANCH   1  18
TORSDOF 6
