REMARK  Name = ZINC03417078
REMARK  13 active torsions:
REMARK  status: ('A' for Active; 'I' for Inactive)
REMARK    1  A    between atoms: C_1  and  O_2
REMARK    2  A    between atoms: O_2  and  C_3
REMARK    3  A    between atoms: C_6  and  C_11
REMARK    4  A    between atoms: C_8  and  O_9
REMARK    5  A    between atoms: O_9  and  C_10
REMARK    6  A    between atoms: C_17  and  C_19
REMARK    7  A    between atoms: C_19  and  C_21
REMARK    8  A    between atoms: C_19  and  N_25
REMARK    9  A    between atoms: C_21  and  C_22
REMARK   10  A    between atoms: C_22  and  S_23
REMARK   11  A    between atoms: S_23  and  C_24
REMARK   12  A    between atoms: N_25  and  S_26
REMARK   13  A    between atoms: S_26  and  C_29
REMARK                            x       y       z     vdW  Elec       q    Type
REMARK                         _______ _______ _______ _____ _____    ______ ____
ROOT
ATOM      1  C   UNL     1       0.655   2.325   8.249  0.00  0.00    +0.080 A 
ATOM      2  C   UNL     1      -0.093   1.185   8.352  0.00  0.00    +0.076 A 
ATOM      3  S   UNL     1      -0.829   1.124   6.724  0.00  0.00    -0.060 S 
ATOM      4  C   UNL     1      -0.064   2.605   6.078  0.00  0.00    +0.165 A 
ATOM      5  N   UNL     1       0.649   3.006   7.113  0.00  0.00    -0.225 NA
ATOM      6  N   UNL     1      -0.192   3.183   4.821  0.00  0.00    -0.263 N 
ATOM      7  C   UNL     1      -0.981   2.609   3.892  0.00  0.00    +0.237 C 
ATOM      8  O   UNL     1      -1.580   1.587   4.152  0.00  0.00    -0.274 OA
ATOM      9  H   UNL     1       0.287   4.001   4.612  0.00  0.00    +0.157 HD
ENDROOT
BRANCH   1  13
ATOM     10  C   UNL     1       2.980   3.667  11.553  0.00  0.00    +0.162 A 
ATOM     11  C   UNL     1       2.306   2.458  11.625  0.00  0.00    +0.050 A 
ATOM     12  C   UNL     1       1.551   2.021  10.556  0.00  0.00    +0.014 A 
ATOM     13  C   UNL     1       1.466   2.795   9.400  0.00  0.00    +0.005 A 
ATOM     14  C   UNL     1       2.148   4.008   9.324  0.00  0.00    +0.059 A 
ATOM     15  C   UNL     1       2.898   4.445  10.401  0.00  0.00    +0.162 A 
BRANCH  10  17
ATOM     16  C   UNL     1       3.764   3.248  13.759  0.00  0.00    +0.277 C 
ATOM     17  O   UNL     1       3.723   4.095  12.609  0.00  0.00    -0.491 OA
ENDBRANCH  10  17
BRANCH  15  18
ATOM     18  O   UNL     1       3.560   5.631  10.332  0.00  0.00    -0.491 OA
ATOM     19  C   UNL     1       3.431   6.377   9.120  0.00  0.00    +0.277 C 
ENDBRANCH  15  18
ENDBRANCH   1  13
BRANCH   7  20
ATOM     20  C   UNL     1      -1.120   3.237   2.529  0.00  0.00    +0.163 C 
BRANCH  20  21
ATOM     21  N   UNL     1      -2.025   2.429   1.708  0.00  0.00    -0.178 NA
ATOM     22  H   UNL     1      -2.961   2.352   1.951  0.00  0.00    +0.149 HD
BRANCH  21  23
ATOM     23  S   UNL     1      -1.451   1.646   0.367  0.00  0.00    +0.059 S 
ATOM     24  O   UNL     1      -0.706   2.603  -0.373  0.00  0.00    -0.153 OA
ATOM     25  O   UNL     1      -2.550   0.939  -0.192  0.00  0.00    -0.153 OA
BRANCH  23  26
ATOM     26  C   UNL     1      -0.302   0.432   0.923  0.00  0.00    +0.105 A 
ATOM     27  C   UNL     1       1.037   0.755   1.049  0.00  0.00    +0.030 A 
ATOM     28  C   UNL     1       1.940  -0.198   1.480  0.00  0.00    +0.022 A 
ATOM     29  C   UNL     1       1.504  -1.475   1.786  0.00  0.00    +0.041 A 
ATOM     30  C   UNL     1       0.165  -1.797   1.660  0.00  0.00    +0.022 A 
ATOM     31  C   UNL     1      -0.737  -0.843   1.229  0.00  0.00    +0.030 A 
ATOM     32 CL   UNL     1       2.638  -2.673   2.328  0.00  0.00    -0.084 Cl
ENDBRANCH  23  26
ENDBRANCH  21  23
ENDBRANCH  20  21
BRANCH  20  33
ATOM     33  C   UNL     1      -1.687   4.651   2.673  0.00  0.00    +0.040 C 
BRANCH  33  34
ATOM     34  C   UNL     1      -1.703   5.336   1.306  0.00  0.00    +0.071 C 
BRANCH  34  35
ATOM     35  S   UNL     1      -2.499   6.959   1.452  0.00  0.00    -0.164 S 
ATOM     36  C   UNL     1      -2.438   7.632  -0.232  0.00  0.00    +0.084 C 
ENDBRANCH  34  35
ENDBRANCH  33  34
ENDBRANCH  20  33
ENDBRANCH   7  20
TORSDOF 10
