REMARK  Name = ZINC08994994
REMARK  8 active torsions:
REMARK  status: ('A' for Active; 'I' for Inactive)
REMARK    1  A    between atoms: C_1  and  C_2
REMARK    2  A    between atoms: C_12  and  C_18
REMARK    3  A    between atoms: C_15  and  C_17
REMARK    4  A    between atoms: N_20  and  C_21
REMARK    5  A    between atoms: C_23  and  O_29
REMARK    6  A    between atoms: C_26  and  O_27
REMARK    7  A    between atoms: O_27  and  C_28
REMARK    8  A    between atoms: O_29  and  C_30
REMARK                            x       y       z     vdW  Elec       q    Type
REMARK                         _______ _______ _______ _____ _____    ______ ____
ROOT
ATOM      1  C   UNL     1       3.949  -1.123   4.140  0.00  0.00    +0.046 C 
ATOM      2  C   UNL     1       3.953   0.134   3.309  0.00  0.00    -0.028 A 
ATOM      3  C   UNL     1       4.628   1.251   3.757  0.00  0.00    +0.025 A 
ATOM      4  C   UNL     1       4.638   2.410   3.001  0.00  0.00    +0.042 A 
ATOM      5  C   UNL     1       3.966   2.449   1.791  0.00  0.00    +0.024 A 
ATOM      6  C   UNL     1       3.291   1.336   1.343  0.00  0.00    -0.026 A 
ATOM      7  C   UNL     1       3.275   0.165   2.093  0.00  0.00    +0.039 A 
ATOM      8  N   UNL     1       2.532  -0.819   1.437  0.00  0.00    -0.286 N 
ATOM      9  C   UNL     1       2.033  -0.382   0.266  0.00  0.00    +0.211 C 
ATOM     10  O   UNL     1       1.354  -1.018  -0.512  0.00  0.00    -0.277 OA
ATOM     11  C   UNL     1       2.480   1.048   0.108  0.00  0.00    +0.049 C 
ATOM     12  C   UNL     1       1.274   1.990   0.009  0.00  0.00    +0.076 C 
ATOM     13  C   UNL     1       1.456   2.731  -1.338  0.00  0.00    -0.004 C 
ATOM     14  C   UNL     1       2.975   2.588  -1.610  0.00  0.00    -0.072 C 
ATOM     15  C   UNL     1       3.268   2.698  -3.108  0.00  0.00    -0.014 C 
ATOM     16 CL   UNL     1       5.490   3.812   3.569  0.00  0.00    -0.084 Cl
ATOM     17  H   UNL     1       2.392  -1.714   1.785  0.00  0.00    +0.155 HD
ATOM     18  N   UNL     1       3.269   1.238  -1.104  0.00  0.00    +0.393 N 
ATOM     19  H   UNL     1       3.010   0.536  -1.806  0.00  0.00    -0.083 HD
ATOM     20  H   UNL     1       4.270   1.154  -0.888  0.00  0.00    -0.083 HD
ENDROOT
BRANCH  12  21
ATOM     21  C   UNL     1      -0.009   1.201   0.004  0.00  0.00    +0.220 C 
ATOM     22  O   UNL     1      -0.491   0.834  -1.047  0.00  0.00    -0.275 OA
ATOM     23  N   UNL     1      -0.624   0.907   1.167  0.00  0.00    -0.282 N 
ATOM     24  H   UNL     1      -0.271   1.250   2.002  0.00  0.00    +0.155 HD
BRANCH  23  25
ATOM     25  C   UNL     1      -1.774   0.107   1.168  0.00  0.00    +0.079 A 
ATOM     26  C   UNL     1      -2.580   0.046   0.041  0.00  0.00    +0.072 A 
ATOM     27  C   UNL     1      -3.714  -0.751   0.044  0.00  0.00    +0.122 A 
ATOM     28  C   UNL     1      -4.049  -1.478   1.176  0.00  0.00    +0.049 A 
ATOM     29  C   UNL     1      -3.251  -1.416   2.303  0.00  0.00    +0.051 A 
ATOM     30  C   UNL     1      -2.113  -0.625   2.304  0.00  0.00    +0.141 A 
BRANCH  30  31
ATOM     31  O   UNL     1      -1.327  -0.565   3.413  0.00  0.00    -0.493 OA
ATOM     32  C   UNL     1      -1.735  -1.341   4.540  0.00  0.00    +0.277 C 
ENDBRANCH  30  31
BRANCH  27  33
ATOM     33  O   UNL     1      -4.502  -0.816  -1.063  0.00  0.00    -0.495 OA
ATOM     34  C   UNL     1      -5.658  -1.652  -0.989  0.00  0.00    +0.277 C 
ENDBRANCH  27  33
ENDBRANCH  23  25
ENDBRANCH  12  21
TORSDOF 4
