REMARK  Name = ZINC63557500
REMARK  8 active torsions:
REMARK  status: ('A' for Active; 'I' for Inactive)
REMARK    1  A    between atoms: C_1  and  C_2
REMARK    2  A    between atoms: C_8  and  C_11
REMARK    3  A    between atoms: C_11  and  C_12
REMARK    4  A    between atoms: C_12  and  N_13
REMARK    5  A    between atoms: C_14  and  C_16
REMARK    6  A    between atoms: N_21  and  C_23
REMARK    7  A    between atoms: C_23  and  C_24
REMARK    8  A    between atoms: C_24  and  C_25
REMARK                            x       y       z     vdW  Elec       q    Type
REMARK                         _______ _______ _______ _____ _____    ______ ____
ROOT
ATOM      1  C   UNL     1      -2.534  -2.338   7.783  0.00  0.00    +0.101 C 
ATOM      2  C   UNL     1      -1.784  -3.458   8.541  0.00  0.00    +0.110 C 
ATOM      3  C   UNL     1      -2.575  -3.637   9.818  0.00  0.00    +0.216 C 
ATOM      4  O   UNL     1      -2.175  -4.212  10.808  0.00  0.00    -0.276 OA
ATOM      5  N   UNL     1      -3.785  -3.066   9.695  0.00  0.00    -0.300 N 
ATOM      6  C   UNL     1      -3.959  -2.461   8.369  0.00  0.00    +0.121 C 
ENDROOT
BRANCH   1   8
ATOM      7  N   UNL     1      -1.377  -2.600   5.613  0.00  0.00    -0.315 N 
ATOM      8  C   UNL     1      -2.537  -2.599   6.299  0.00  0.00    +0.218 C 
ATOM      9  O   UNL     1      -3.583  -2.808   5.722  0.00  0.00    -0.275 OA
ATOM     10  H   UNL     1      -0.540  -2.433   6.075  0.00  0.00    +0.149 HD
BRANCH   7  11
ATOM     11  C   UNL     1      -1.379  -2.854   4.170  0.00  0.00    +0.108 C 
BRANCH  11  12
ATOM     12  C   UNL     1       0.055  -2.799   3.641  0.00  0.00    +0.052 C 
BRANCH  12  20
ATOM     13  C   UNL     1      -0.018   1.503   0.010  0.00  0.00    +0.044 C 
ATOM     14  C   UNL     1       0.002  -0.004   0.002  0.00  0.00    -0.050 A 
ATOM     15  C   UNL     1       0.005  -0.680  -1.226  0.00  0.00    +0.005 A 
ATOM     16  C   UNL     1       0.023  -2.026  -1.317  0.00  0.00    +0.026 A 
ATOM     17  C   UNL     1       0.039  -2.826  -0.141  0.00  0.00    +0.043 A 
ATOM     18  N   UNL     1       0.057  -4.126   0.030  0.00  0.00    -0.380 N 
ATOM     19  C   UNL     1       0.067  -4.408   1.470  0.00  0.00    +0.144 C 
ATOM     20  C   UNL     1       0.052  -3.060   2.156  0.00  0.00    -0.040 C 
ATOM     21  C   UNL     1       0.036  -2.137   1.168  0.00  0.00    -0.001 A 
ATOM     22  C   UNL     1       0.022  -0.669   1.180  0.00  0.00    +0.013 A 
ATOM     23  H   UNL     1       0.062  -4.790  -0.677  0.00  0.00    +0.160 HD
ENDBRANCH  12  20
ENDBRANCH  11  12
ENDBRANCH   7  11
ENDBRANCH   1   8
BRANCH   5  24
ATOM     24  C   UNL     1      -4.801  -3.048  10.751  0.00  0.00    +0.112 C 
BRANCH  24  25
ATOM     25  C   UNL     1      -4.619  -1.798  11.614  0.00  0.00    +0.056 C 
BRANCH  25  26
ATOM     26  C   UNL     1      -5.664  -1.779  12.699  0.00  0.00    -0.021 A 
ATOM     27  C   UNL     1      -6.848  -1.149  12.656  0.00  0.00    +0.087 A 
ATOM     28  N   UNL     1      -7.530  -1.357  13.825  0.00  0.00    -0.360 N 
ATOM     29  H   UNL     1      -8.409  -1.002  14.027  0.00  0.00    +0.165 HD
ATOM     30  C   UNL     1      -6.781  -2.147  14.669  0.00  0.00    +0.047 A 
ATOM     31  C   UNL     1      -5.582  -2.451  13.998  0.00  0.00    +0.004 A 
ATOM     32  C   UNL     1      -4.620  -3.251  14.618  0.00  0.00    +0.030 A 
ATOM     33  C   UNL     1      -4.855  -3.742  15.883  0.00  0.00    +0.042 A 
ATOM     34  C   UNL     1      -6.040  -3.444  16.543  0.00  0.00    +0.022 A 
ATOM     35  C   UNL     1      -6.995  -2.649  15.948  0.00  0.00    +0.027 A 
ATOM     36 CL   UNL     1      -3.663  -4.738  16.657  0.00  0.00    -0.084 Cl
ENDBRANCH  25  26
ENDBRANCH  24  25
ENDBRANCH   5  24
TORSDOF 7
