REMARK  Name = ZINC41585009
REMARK  7 active torsions:
REMARK  status: ('A' for Active; 'I' for Inactive)
REMARK    1  A    between atoms: C_1  and  C_2
REMARK    2  A    between atoms: C_5  and  C_8
REMARK    3  A    between atoms: C_15  and  O_36
REMARK    4  A    between atoms: C_16  and  C_19
REMARK    5  A    between atoms: C_19  and  N_20
REMARK    6  A    between atoms: N_23  and  C_26
REMARK    7  A    between atoms: C_26  and  C_27
REMARK                            x       y       z     vdW  Elec       q    Type
REMARK                         _______ _______ _______ _____ _____    ______ ____
ROOT
ATOM      1  C   UNL     1       0.059  -4.244  -0.021  0.00  0.00    +0.058 C 
ATOM      2  C   UNL     1       0.176  -4.927   1.144  0.00  0.00    +0.176 C 
ATOM      3  C   UNL     1       0.319  -6.385   1.288  0.00  0.00    +0.231 C 
ATOM      4  O   UNL     1       0.357  -7.221   0.403  0.00  0.00    -0.283 OA
ATOM      5  C   UNL     1       0.407  -6.606   2.743  0.00  0.00    +0.068 A 
ATOM      6  C   UNL     1       0.550  -7.751   3.527  0.00  0.00    +0.019 A 
ATOM      7  C   UNL     1       0.603  -7.642   4.888  0.00  0.00    +0.046 A 
ATOM      8  C   UNL     1       0.514  -6.391   5.493  0.00  0.00    +0.125 A 
ATOM      9  C   UNL     1       0.371  -5.246   4.727  0.00  0.00    +0.051 A 
ATOM     10  C   UNL     1       0.316  -5.339   3.342  0.00  0.00    +0.147 A 
ATOM     11  O   UNL     1       0.189  -4.391   2.388  0.00  0.00    -0.451 OA
ENDROOT
BRANCH   1  16
ATOM     12  C   UNL     1       0.003   1.503   0.009  0.00  0.00    +0.044 C 
ATOM     13  C   UNL     1       0.017  -0.004   0.001  0.00  0.00    -0.050 A 
ATOM     14  C   UNL     1       0.009  -0.699   1.198  0.00  0.00    +0.004 A 
ATOM     15  C   UNL     1       0.022  -2.077   1.200  0.00  0.00    +0.008 A 
ATOM     16  C   UNL     1       0.044  -2.774  -0.014  0.00  0.00    -0.021 A 
ATOM     17  C   UNL     1       0.053  -2.064  -1.220  0.00  0.00    +0.008 A 
ATOM     18  C   UNL     1       0.034  -0.686  -1.204  0.00  0.00    +0.004 A 
ENDBRANCH   1  16
BRANCH   8  19
ATOM     19  O   UNL     1       0.566  -6.293   6.846  0.00  0.00    -0.506 OA
ATOM     20  H   UNL     1       1.460  -6.183   7.198  0.00  0.00    +0.292 HD
ENDBRANCH   8  19
BRANCH   9  21
ATOM     21  C   UNL     1       0.276  -3.899   5.396  0.00  0.00    +0.126 C 
BRANCH  21  22
ATOM     22  N   UNL     1       1.622  -3.332   5.550  0.00  0.00    -0.301 NA
ATOM     23  C   UNL     1       2.424  -4.128   6.491  0.00  0.00    +0.066 C 
ATOM     24  C   UNL     1       3.834  -3.540   6.578  0.00  0.00    -0.063 C 
ATOM     25  N   UNL     1       3.757  -2.146   7.032  0.00  0.00    +0.384 N 
ATOM     26  C   UNL     1       2.974  -1.359   6.070  0.00  0.00    -0.063 C 
ATOM     27  C   UNL     1       1.556  -1.928   5.978  0.00  0.00    +0.066 C 
ATOM     28  H   UNL     1       3.311  -2.111   7.936  0.00  0.00    -0.081 HD
BRANCH  25  29
ATOM     29  C   UNL     1       5.112  -1.588   7.133  0.00  0.00    -0.043 C 
BRANCH  29  30
ATOM     30  C   UNL     1       5.042  -0.199   7.714  0.00  0.00    -0.060 A 
ATOM     31  C   UNL     1       4.898   0.892   6.878  0.00  0.00    +0.005 A 
ATOM     32  C   UNL     1       4.832   2.168   7.407  0.00  0.00    +0.050 A 
ATOM     33  C   UNL     1       4.912   2.355   8.777  0.00  0.00    +0.166 A 
ATOM     34  C   UNL     1       5.056   1.256   9.620  0.00  0.00    +0.166 A 
ATOM     35  C   UNL     1       5.115  -0.020   9.083  0.00  0.00    +0.051 A 
ATOM     36  O   UNL     1       5.110   1.698  10.910  0.00  0.00    -0.453 OA
ATOM     37  C   UNL     1       5.407   3.104  10.822  0.00  0.00    +0.466 C 
ATOM     38  O   UNL     1       4.874   3.487   9.540  0.00  0.00    -0.453 OA
ENDBRANCH  29  30
ENDBRANCH  25  29
ENDBRANCH  21  22
ENDBRANCH   9  21
TORSDOF 6
