REMARK  Name = ZINC08939286
REMARK  7 active torsions:
REMARK  status: ('A' for Active; 'I' for Inactive)
REMARK    1  A    between atoms: C_3  and  S_25
REMARK    2  A    between atoms: C_6  and  C_7
REMARK    3  A    between atoms: C_7  and  C_8
REMARK    4  A    between atoms: C_8  and  C_9
REMARK    5  A    between atoms: N_11  and  C_12
REMARK    6  A    between atoms: C_12  and  C_13
REMARK    7  A    between atoms: S_25  and  N_28
REMARK                            x       y       z     vdW  Elec       q    Type
REMARK                         _______ _______ _______ _____ _____    ______ ____
ROOT
ATOM      1  C   UNL     1      -2.364   2.662   6.162  0.00  0.00    +0.100 C 
ENDROOT
BRANCH   1   2
ATOM      2  C   UNL     1      -3.142   3.076   7.385  0.00  0.00    +0.214 C 
ATOM      3  O   UNL     1      -4.207   3.643   7.262  0.00  0.00    -0.276 OA
ATOM      4  N   UNL     1      -2.655   2.816   8.614  0.00  0.00    -0.311 N 
ATOM      5  H   UNL     1      -1.804   2.362   8.712  0.00  0.00    +0.149 HD
BRANCH   4   6
ATOM      6  C   UNL     1      -3.412   3.218   9.802  0.00  0.00    +0.139 C 
BRANCH   6   7
ATOM      7  C   UNL     1      -2.655   2.814  11.041  0.00  0.00    -0.025 A 
ATOM      8  C   UNL     1      -1.745   3.688  11.608  0.00  0.00    +0.054 A 
ATOM      9  C   UNL     1      -1.051   3.313  12.746  0.00  0.00    +0.164 A 
ATOM     10  C   UNL     1      -1.268   2.066  13.314  0.00  0.00    +0.180 A 
ATOM     11  C   UNL     1      -2.180   1.193  12.744  0.00  0.00    +0.086 A 
ATOM     12  C   UNL     1      -2.877   1.573  11.609  0.00  0.00    +0.029 A 
ATOM     13 CL   UNL     1      -2.455  -0.368  13.453  0.00  0.00    -0.080 Cl
ATOM     14  O   UNL     1      -0.579   1.706  14.436  0.00  0.00    -0.487 OA
ATOM     15  C   UNL     1      -0.907   2.422  15.628  0.00  0.00    +0.232 C 
ATOM     16  C   UNL     1      -0.129   3.727  15.704  0.00  0.00    +0.082 C 
ATOM     17  C   UNL     1      -0.510   4.693  14.593  0.00  0.00    +0.232 C 
ATOM     18  O   UNL     1      -0.149   4.165  13.315  0.00  0.00    -0.488 OA
ENDBRANCH   6   7
ENDBRANCH   4   6
ENDBRANCH   1   2
BRANCH   1  19
ATOM     19  C   UNL     1      -3.132   3.072   4.905  0.00  0.00    +0.044 C 
BRANCH  19  25
ATOM     20  C   UNL     1      -2.559   1.412   3.121  0.00  0.00    +0.005 A 
ATOM     21  C   UNL     1      -1.846   1.033   2.000  0.00  0.00    +0.029 A 
ATOM     22  C   UNL     1      -0.927   1.900   1.439  0.00  0.00    +0.105 A 
ATOM     23  C   UNL     1      -0.717   3.145   2.004  0.00  0.00    +0.029 A 
ATOM     24  C   UNL     1      -1.434   3.526   3.123  0.00  0.00    +0.005 A 
ATOM     25  C   UNL     1      -2.354   2.659   3.683  0.00  0.00    -0.047 A 
BRANCH  22  26
ATOM     26  S   UNL     1      -0.017   1.417   0.010  0.00  0.00    +0.061 S 
ATOM     27  O   UNL     1       0.002  -0.004   0.002  0.00  0.00    -0.153 OA
ATOM     28  O   UNL     1       1.172   2.195   0.003  0.00  0.00    -0.153 OA
BRANCH  26  29
ATOM     29  N   UNL     1      -0.897   1.885  -1.312  0.00  0.00    -0.172 NA
ATOM     30  C   UNL     1      -1.888   0.984  -1.921  0.00  0.00    +0.137 C 
ATOM     31  C   UNL     1      -3.209   1.756  -2.073  0.00  0.00    +0.177 C 
ATOM     32  O   UNL     1      -2.958   2.982  -2.764  0.00  0.00    -0.377 OA
ATOM     33  C   UNL     1      -2.082   3.875  -2.072  0.00  0.00    +0.177 C 
ATOM     34  C   UNL     1      -0.708   3.214  -1.917  0.00  0.00    +0.137 C 
ENDBRANCH  26  29
ENDBRANCH  22  26
ENDBRANCH  19  25
ENDBRANCH   1  19
TORSDOF 7
