REMARK  Name = ZINC01591934
REMARK  4 active torsions:
REMARK  status: ('A' for Active; 'I' for Inactive)
REMARK    1  A    between atoms: C_12  and  C_24
REMARK    2  A    between atoms: C_14  and  C_15
REMARK    3  A    between atoms: C_15  and  C_17
REMARK    4  A    between atoms: C_15  and  O_23
REMARK                            x       y       z     vdW  Elec       q    Type
REMARK                         _______ _______ _______ _____ _____    ______ ____
ROOT
ATOM      1  C   UNL     1      -8.536   6.283  -2.596  0.00  0.00    +0.001 A 
ATOM      2  C   UNL     1      -7.817   6.612  -3.739  0.00  0.00    +0.001 A 
ATOM      3  C   UNL     1      -6.454   6.540  -3.751  0.00  0.00    +0.010 A 
ATOM      4  C   UNL     1      -5.773   6.131  -2.602  0.00  0.00    +0.008 A 
ATOM      5  C   UNL     1      -6.500   5.796  -1.437  0.00  0.00    -0.016 A 
ATOM      6  C   UNL     1      -7.900   5.880  -1.459  0.00  0.00    +0.008 A 
ATOM      7  C   UNL     1      -5.814   5.383  -0.272  0.00  0.00    +0.009 A 
ATOM      8  C   UNL     1      -4.467   5.299  -0.244  0.00  0.00    +0.011 A 
ATOM      9  C   UNL     1      -3.685   5.620  -1.375  0.00  0.00    +0.007 A 
ATOM     10  C   UNL     1      -4.309   6.041  -2.572  0.00  0.00    +0.080 A 
ATOM     11  N   UNL     1      -3.578   6.344  -3.638  0.00  0.00    -0.246 NA
ATOM     12  C   UNL     1      -2.258   6.263  -3.612  0.00  0.00    +0.072 A 
ATOM     13  C   UNL     1      -1.578   5.858  -2.457  0.00  0.00    +0.035 A 
ATOM     14  C   UNL     1      -2.282   5.530  -1.334  0.00  0.00    -0.009 A 
ENDROOT
BRANCH  12  15
ATOM     15  C   UNL     1      -1.484   6.612  -4.828  0.00  0.00    +0.000 A 
ATOM     16  C   UNL     1      -0.092   6.538  -4.816  0.00  0.00    +0.011 A 
ATOM     17  C   UNL     1       0.623   6.861  -5.951  0.00  0.00    +0.020 A 
ATOM     18  C   UNL     1      -0.039   7.266  -7.097  0.00  0.00    +0.041 A 
ATOM     19  C   UNL     1      -1.421   7.346  -7.113  0.00  0.00    +0.020 A 
ATOM     20  C   UNL     1      -2.146   7.022  -5.985  0.00  0.00    +0.011 A 
ATOM     21 CL   UNL     1       0.867   7.676  -8.520  0.00  0.00    -0.084 Cl
ENDBRANCH  12  15
BRANCH  14  22
ATOM     22  C   UNL     1      -1.574   5.087  -0.080  0.00  0.00    +0.131 C 
BRANCH  22  23
ATOM     23  C   UNL     1      -1.520   3.559  -0.037  0.00  0.00    -0.038 C 
ATOM     24  C   UNL     1      -0.801   3.110   1.237  0.00  0.00    -0.013 C 
ATOM     25  C   UNL     1      -0.731   1.580   1.267  0.00  0.00    -0.003 C 
ATOM     26  C   UNL     1      -0.013   1.086   0.008  0.00  0.00    -0.019 C 
ATOM     27  C   UNL     1      -0.754   1.594  -1.231  0.00  0.00    -0.082 C 
ATOM     28  N   UNL     1      -0.788   3.068  -1.221  0.00  0.00    +0.383 N 
ATOM     29  H   UNL     1       0.173   3.429  -1.197  0.00  0.00    -0.085 HD
ATOM     30  H   UNL     1      -1.257   3.402  -2.071  0.00  0.00    -0.085 HD
ENDBRANCH  22  23
BRANCH  22  31
ATOM     31  O   UNL     1      -0.244   5.611  -0.075  0.00  0.00    -0.389 OA
ATOM     32  H   UNL     1       0.295   5.323  -0.824  0.00  0.00    +0.210 HD
ENDBRANCH  22  31
ENDBRANCH  14  22
TORSDOF 4
