REMARK  Name = ZINC59890395
REMARK  12 active torsions:
REMARK  status: ('A' for Active; 'I' for Inactive)
REMARK    1  A    between atoms: C_1  and  C_2
REMARK    2  A    between atoms: C_3  and  C_24
REMARK    3  A    between atoms: C_4  and  C_23
REMARK    4  A    between atoms: C_7  and  C_8
REMARK    5  A    between atoms: N_10  and  C_11
REMARK    6  A    between atoms: C_11  and  C_12
REMARK    7  A    between atoms: C_12  and  N_20
REMARK    8  A    between atoms: C_16  and  C_19
REMARK    9  A    between atoms: N_20  and  C_21
REMARK   10  A    between atoms: N_20  and  C_22
REMARK   11  A    between atoms: C_24  and  O_26
REMARK   12  A    between atoms: O_26  and  C_27
REMARK                            x       y       z     vdW  Elec       q    Type
REMARK                         _______ _______ _______ _____ _____    ______ ____
ROOT
ATOM      1  C   UNL     1      -1.596   0.941   4.609  0.00  0.00    +0.261 C 
ATOM      2  O   UNL     1      -0.784   1.451   3.861  0.00  0.00    -0.269 OA
ATOM      3  N   UNL     1      -1.306  -0.223   5.225  0.00  0.00    -0.311 N 
ATOM      4  H   UNL     1      -1.954  -0.630   5.822  0.00  0.00    +0.149 HD
ENDROOT
BRANCH   1  11
ATOM      5  C   UNL     1      -2.529   3.625   3.323  0.00  0.00    +0.047 C 
ATOM      6  C   UNL     1      -3.307   2.764   4.284  0.00  0.00    -0.006 A 
ATOM      7  C   UNL     1      -4.609   3.015   4.773  0.00  0.00    +0.083 A 
ATOM      8  C   UNL     1      -4.931   1.974   5.624  0.00  0.00    +0.028 A 
ATOM      9  N   UNL     1      -3.894   1.123   5.663  0.00  0.00    -0.354 N 
ATOM     10  H   UNL     1      -3.857   0.306   6.184  0.00  0.00    +0.166 HD
ATOM     11  C   UNL     1      -2.892   1.591   4.842  0.00  0.00    +0.106 A 
ATOM     12  C   UNL     1      -6.227   1.820   6.378  0.00  0.00    +0.064 C 
BRANCH   7  13
ATOM     13  C   UNL     1      -5.461   4.169   4.440  0.00  0.00    +0.341 C 
ATOM     14  O   UNL     1      -6.221   4.111   3.493  0.00  0.00    -0.245 OA
BRANCH  13  15
ATOM     15  O   UNL     1      -5.399   5.290   5.186  0.00  0.00    -0.464 OA
ATOM     16  C   UNL     1      -6.254   6.370   4.806  0.00  0.00    +0.280 C 
ENDBRANCH  13  15
ENDBRANCH   7  13
ENDBRANCH   1  11
BRANCH   3  17
ATOM     17  C   UNL     1      -0.014  -0.872   4.994  0.00  0.00    +0.092 C 
BRANCH  17  18
ATOM     18  C   UNL     1       0.114  -2.094   5.905  0.00  0.00    -0.050 C 
ATOM     19  C   UNL     1      -1.002  -3.090   5.582  0.00  0.00    -0.010 C 
ATOM     20  C   UNL     1      -0.874  -4.312   6.494  0.00  0.00    -0.001 C 
ATOM     21  C   UNL     1      -0.990  -3.873   7.955  0.00  0.00    +0.003 C 
ATOM     22  C   UNL     1       0.125  -2.877   8.278  0.00  0.00    -0.015 C 
ATOM     23  C   UNL     1      -0.002  -1.655   7.366  0.00  0.00    -0.007 C 
ATOM     24  C   UNL     1       0.009  -2.437   9.739  0.00  0.00    +0.007 C 
BRANCH  18  25
ATOM     25  N   UNL     1       1.419  -2.733   5.688  0.00  0.00    +0.381 N 
ATOM     26  C   UNL     1       1.528  -3.161   4.287  0.00  0.00    -0.096 C 
ATOM     27  C   UNL     1       2.490  -1.774   5.992  0.00  0.00    -0.096 C 
ATOM     28  H   UNL     1       1.505  -3.536   6.293  0.00  0.00    -0.082 HD
ENDBRANCH  18  25
ENDBRANCH  17  18
ENDBRANCH   3  17
TORSDOF 6
