REMARK  Name = ZINC00495492
REMARK  11 active torsions:
REMARK  status: ('A' for Active; 'I' for Inactive)
REMARK    1  A    between atoms: C_1  and  C_2
REMARK    2  A    between atoms: C_2  and  O_3
REMARK    3  A    between atoms: O_3  and  C_4
REMARK    4  A    between atoms: C_7  and  C_13
REMARK    5  A    between atoms: C_8  and  O_10
REMARK    6  A    between atoms: O_10  and  C_11
REMARK    7  A    between atoms: C_11  and  C_12
REMARK    8  A    between atoms: C_14  and  C_23
REMARK    9  A    between atoms: C_15  and  N_22
REMARK   10  A    between atoms: C_17  and  N_21
REMARK   11  A    between atoms: C_18  and  C_19
REMARK                            x       y       z     vdW  Elec       q    Type
REMARK                         _______ _______ _______ _____ _____    ______ ____
ROOT
ATOM      1  C   UNL     1       1.105  -6.045  -1.837  0.00  0.00    +0.108 C 
ATOM      2  C   UNL     1      -0.260  -6.601  -2.027  0.00  0.00    +0.069 C 
ATOM      3  C   UNL     1      -1.018  -7.179  -1.073  0.00  0.00    +0.079 C 
ATOM      4  S   UNL     1      -0.428  -7.367   0.575  0.00  0.00    -0.058 S 
ATOM      5  C   UNL     1       1.314  -7.173   0.413  0.00  0.00    +0.079 C 
ATOM      6  C   UNL     1       1.857  -6.596  -0.678  0.00  0.00    +0.069 C 
ENDROOT
BRANCH   1  10
ATOM      7  C   UNL     1       0.777  -1.810  -1.336  0.00  0.00    +0.124 A 
ATOM      8  C   UNL     1       0.242  -2.669  -0.386  0.00  0.00    +0.046 A 
ATOM      9  C   UNL     1       0.350  -4.036  -0.550  0.00  0.00    +0.012 A 
ATOM     10  C   UNL     1       0.989  -4.553  -1.661  0.00  0.00    +0.008 A 
ATOM     11  C   UNL     1       1.525  -3.699  -2.614  0.00  0.00    +0.128 A 
ATOM     12  C   UNL     1       1.414  -2.326  -2.454  0.00  0.00    +0.091 A 
BRANCH   7  13
ATOM     13  O   UNL     1       0.671  -0.465  -1.174  0.00  0.00    -0.492 OA
BRANCH  13  15
ATOM     14  C   UNL     1      -0.019   1.526   0.010  0.00  0.00    +0.048 C 
ATOM     15  C   UNL     1       0.002  -0.004   0.002  0.00  0.00    +0.225 C 
ENDBRANCH  13  15
ENDBRANCH   7  13
BRANCH  11  16
ATOM     16  O   UNL     1       2.155  -4.207  -3.706  0.00  0.00    -0.492 OA
BRANCH  16  17
ATOM     17  C   UNL     1       2.682  -3.269  -4.646  0.00  0.00    +0.225 C 
ATOM     18  C   UNL     1       3.349  -4.023  -5.799  0.00  0.00    +0.048 C 
ENDBRANCH  16  17
ENDBRANCH  11  16
ENDBRANCH   1  10
BRANCH   5  19
ATOM     19  N   UNL     1       2.138  -7.618   1.420  0.00  0.00    -0.352 N 
ATOM     20  H   UNL     1       1.758  -8.034   2.210  0.00  0.00    +0.143 HD
ATOM     21  H   UNL     1       3.099  -7.515   1.341  0.00  0.00    +0.143 HD
ENDBRANCH   5  19
BRANCH   3  22
ATOM     22  N   UNL     1      -2.276  -7.631  -1.393  0.00  0.00    -0.352 N 
ATOM     23  H   UNL     1      -2.611  -7.532  -2.298  0.00  0.00    +0.143 HD
ATOM     24  H   UNL     1      -2.829  -8.048  -0.714  0.00  0.00    +0.143 HD
ENDBRANCH   3  22
BRANCH   6  25
ATOM     25  C   UNL     1       3.285  -6.505  -0.725  0.00  0.00    +0.098 C 
ATOM     26  N   UNL     1       4.418  -6.433  -0.762  0.00  0.00    -0.191 NA
ENDBRANCH   6  25
BRANCH   2  27
ATOM     27  C   UNL     1      -0.822  -6.515  -3.341  0.00  0.00    +0.098 C 
ATOM     28  N   UNL     1      -1.267  -6.447  -4.384  0.00  0.00    -0.191 NA
ENDBRANCH   2  27
TORSDOF 9
