REMARK  Name = ZINC06326429
REMARK  10 active torsions:
REMARK  status: ('A' for Active; 'I' for Inactive)
REMARK    1  A    between atoms: C_1  and  C_2
REMARK    2  A    between atoms: C_2  and  C_3
REMARK    3  A    between atoms: C_2  and  C_4
REMARK    4  A    between atoms: C_4  and  N_5
REMARK    5  A    between atoms: N_5  and  C_6
REMARK    6  A    between atoms: C_6  and  N_8
REMARK    7  A    between atoms: N_8  and  C_9
REMARK    8  A    between atoms: C_9  and  C_10
REMARK    9  A    between atoms: N_12  and  C_21
REMARK   10  A    between atoms: C_14  and  C_15
REMARK                            x       y       z     vdW  Elec       q    Type
REMARK                         _______ _______ _______ _____ _____    ______ ____
ROOT
ATOM      1  C   UNL     1       2.101   4.403   0.659  0.00  0.00    +0.015 A 
ATOM      2  C   UNL     1       1.744   5.685   0.429  0.00  0.00    +0.120 A 
ATOM      3  N   UNL     1       0.623   5.674  -0.340  0.00  0.00    -0.239 N 
ATOM      4  N   UNL     1       0.286   4.338  -0.594  0.00  0.00    -0.166 NA
ATOM      5  C   UNL     1       1.168   3.570   0.010  0.00  0.00    +0.098 A 
ENDROOT
BRANCH   5   6
ATOM      6  C   UNL     1       1.182   2.086   0.002  0.00  0.00    +0.002 A 
ATOM      7  C   UNL     1      -0.017   1.376   0.010  0.00  0.00    +0.010 A 
ATOM      8  C   UNL     1       0.002  -0.004   0.002  0.00  0.00    +0.001 A 
ATOM      9  C   UNL     1       1.208  -0.682  -0.014  0.00  0.00    +0.000 A 
ATOM     10  C   UNL     1       2.401   0.018  -0.021  0.00  0.00    +0.001 A 
ATOM     11  C   UNL     1       2.394   1.399  -0.013  0.00  0.00    +0.010 A 
ENDBRANCH   5   6
BRANCH   3  12
ATOM     12  C   UNL     1      -0.069   6.801  -0.803  0.00  0.00    +0.065 A 
ATOM     13  C   UNL     1       0.377   8.074  -0.476  0.00  0.00    +0.028 A 
ATOM     14  C   UNL     1      -0.305   9.183  -0.938  0.00  0.00    +0.002 A 
ATOM     15  C   UNL     1      -1.437   9.025  -1.716  0.00  0.00    +0.000 A 
ATOM     16  C   UNL     1      -1.887   7.758  -2.039  0.00  0.00    +0.002 A 
ATOM     17  C   UNL     1      -1.206   6.646  -1.585  0.00  0.00    +0.028 A 
ENDBRANCH   3  12
BRANCH   1  18
ATOM     18  C   UNL     1       3.287   3.944   1.468  0.00  0.00    +0.142 C 
BRANCH  18  19
ATOM     19  N   UNL     1       4.382   3.580   0.566  0.00  0.00    -0.322 N 
ATOM     20  H   UNL     1       4.265   3.656  -0.394  0.00  0.00    +0.148 HD
BRANCH  19  21
ATOM     21  C   UNL     1       5.551   3.138   1.070  0.00  0.00    +0.131 C 
ATOM     22  S   UNL     1       5.757   3.003   2.764  0.00  0.00    -0.019 S 
BRANCH  21  23
ATOM     23  N   UNL     1       6.559   2.803   0.240  0.00  0.00    -0.326 N 
ATOM     24  H   UNL     1       6.442   2.879  -0.720  0.00  0.00    +0.148 HD
BRANCH  23  25
ATOM     25  C   UNL     1       7.830   2.323   0.788  0.00  0.00    +0.106 C 
BRANCH  25  27
ATOM     26  C   UNL     1      10.161   1.632   0.214  0.00  0.00    +0.009 C 
ATOM     27  C   UNL     1       8.795   2.014  -0.359  0.00  0.00    -0.000 C 
ATOM     28  C   UNL     1       8.246   0.851  -1.188  0.00  0.00    +0.009 C 
ENDBRANCH  25  27
ENDBRANCH  23  25
ENDBRANCH  21  23
ENDBRANCH  19  21
ENDBRANCH  18  19
ENDBRANCH   1  18
TORSDOF 8
