REMARK  Name = ZINC35211700
REMARK  7 active torsions:
REMARK  status: ('A' for Active; 'I' for Inactive)
REMARK    1  A    between atoms: C_4  and  S_7
REMARK    2  A    between atoms: S_7  and  N_10
REMARK    3  A    between atoms: N_10  and  C_11
REMARK    4  A    between atoms: C_23  and  N_25
REMARK    5  A    between atoms: N_25  and  C_26
REMARK    6  A    between atoms: C_29  and  S_32
REMARK    7  A    between atoms: S_32  and  N_35
REMARK                            x       y       z     vdW  Elec       q    Type
REMARK                         _______ _______ _______ _____ _____    ______ ____
ROOT
ATOM      1  C   UNL     1       3.565  -1.887   2.453  0.00  0.00    +0.131 C 
ATOM      2  C   UNL     1       2.736  -1.093   3.433  0.00  0.00    -0.019 A 
ATOM      3  C   UNL     1       1.763  -0.148   3.317  0.00  0.00    +0.006 A 
ATOM      4  C   UNL     1       1.178   0.407   4.457  0.00  0.00    +0.001 A 
ATOM      5  C   UNL     1       1.544   0.036   5.719  0.00  0.00    +0.008 A 
ATOM      6  C   UNL     1       2.545  -0.936   5.875  0.00  0.00    -0.017 A 
ATOM      7  C   UNL     1       3.119  -1.480   4.713  0.00  0.00    -0.008 A 
ATOM      8  C   UNL     1       4.118  -2.449   4.750  0.00  0.00    -0.017 A 
ATOM      9  C   UNL     1       4.546  -2.878   5.968  0.00  0.00    +0.006 A 
ATOM     10  C   UNL     1       3.989  -2.353   7.137  0.00  0.00    +0.001 A 
ATOM     11  C   UNL     1       3.010  -1.402   7.116  0.00  0.00    +0.008 A 
ATOM     12  C   UNL     1       4.477  -2.783   3.320  0.00  0.00    +0.124 C 
ENDROOT
BRANCH   1  13
ATOM     13  N   UNL     1       4.374  -0.988   1.627  0.00  0.00    -0.180 NA
ATOM     14  H   UNL     1       4.916  -0.301   2.046  0.00  0.00    +0.149 HD
BRANCH  13  15
ATOM     15  S   UNL     1       4.363  -1.144  -0.021  0.00  0.00    +0.059 S 
ATOM     16  O   UNL     1       4.573  -2.521  -0.300  0.00  0.00    -0.153 OA
ATOM     17  O   UNL     1       5.213  -0.125  -0.531  0.00  0.00    -0.153 OA
BRANCH  15  21
ATOM     18  C   UNL     1       0.176  -0.161  -1.434  0.00  0.00    +0.000 A 
ATOM     19  C   UNL     1       1.123   0.841  -1.328  0.00  0.00    +0.002 A 
ATOM     20  C   UNL     1       2.402   0.541  -0.897  0.00  0.00    +0.028 A 
ATOM     21  C   UNL     1       2.733  -0.761  -0.570  0.00  0.00    +0.105 A 
ATOM     22  C   UNL     1       1.786  -1.762  -0.675  0.00  0.00    +0.028 A 
ATOM     23  C   UNL     1       0.508  -1.463  -1.108  0.00  0.00    +0.002 A 
ENDBRANCH  15  21
ENDBRANCH  13  15
ENDBRANCH   1  13
BRANCH  12  24
ATOM     24  N   UNL     1       5.886  -2.472   3.064  0.00  0.00    -0.335 N 
ATOM     25  H   UNL     1       6.139  -1.587   2.760  0.00  0.00    +0.147 HD
BRANCH  24  26
ATOM     26  C   UNL     1       6.863  -3.451   3.258  0.00  0.00    +0.028 A 
ATOM     27  C   UNL     1       6.501  -4.721   3.689  0.00  0.00    +0.025 A 
ATOM     28  C   UNL     1       7.470  -5.686   3.879  0.00  0.00    +0.030 A 
ATOM     29  C   UNL     1       8.800  -5.390   3.642  0.00  0.00    +0.105 A 
ATOM     30  C   UNL     1       9.164  -4.126   3.214  0.00  0.00    +0.030 A 
ATOM     31  C   UNL     1       8.199  -3.158   3.016  0.00  0.00    +0.025 A 
BRANCH  29  32
ATOM     32  S   UNL     1      10.033  -6.624   3.888  0.00  0.00    +0.056 S 
ATOM     33  O   UNL     1      11.254  -5.937   4.122  0.00  0.00    -0.153 OA
ATOM     34  O   UNL     1       9.494  -7.558   4.814  0.00  0.00    -0.153 OA
BRANCH  32  35
ATOM     35  N   UNL     1      10.211  -7.430   2.452  0.00  0.00    -0.204 NA
ATOM     36  H   UNL     1       9.676  -7.177   1.684  0.00  0.00    +0.144 HD
ATOM     37  H   UNL     1      10.851  -8.156   2.380  0.00  0.00    +0.144 HD
ENDBRANCH  32  35
ENDBRANCH  29  32
ENDBRANCH  24  26
ENDBRANCH  12  24
TORSDOF 7
