REMARK  Name = ZINC22617013
REMARK  7 active torsions:
REMARK  status: ('A' for Active; 'I' for Inactive)
REMARK    1  A    between atoms: C_1  and  C_2
REMARK    2  A    between atoms: C_3  and  C_29
REMARK    3  A    between atoms: C_11  and  C_13
REMARK    4  A    between atoms: C_13  and  C_15
REMARK    5  A    between atoms: C_13  and  S_16
REMARK    6  A    between atoms: S_16  and  C_17
REMARK    7  A    between atoms: N_27  and  C_28
REMARK                            x       y       z     vdW  Elec       q    Type
REMARK                         _______ _______ _______ _____ _____    ______ ____
ROOT
ATOM      1  C   UNL     1       0.090  -3.432   4.547  0.00  0.00    +0.117 C 
ATOM      2  C   UNL     1       1.535  -3.832   4.850  0.00  0.00    +0.027 C 
ENDROOT
BRANCH   1  13
ATOM      3  C   UNL     1      -0.018   1.503   0.010  0.00  0.00    +0.045 C 
ATOM      4  C   UNL     1       0.002  -0.004   0.002  0.00  0.00    -0.026 A 
ATOM      5  C   UNL     1       0.006  -0.677  -1.160  0.00  0.00    -0.008 A 
ATOM      6  S   UNL     1       0.032  -2.385  -0.648  0.00  0.00    -0.073 S 
ATOM      7  C   UNL     1       0.037  -2.144   1.110  0.00  0.00    +0.116 A 
ATOM      8  C   UNL     1       0.024  -0.745   1.250  0.00  0.00    +0.075 A 
ATOM      9  C   UNL     1       0.029  -0.257   2.597  0.00  0.00    +0.260 A 
ATOM     10  O   UNL     1       0.014   0.942   2.821  0.00  0.00    -0.267 OA
ATOM     11  N   UNL     1       0.051  -1.142   3.611  0.00  0.00    -0.309 N 
ATOM     12  H   UNL     1       0.054  -0.817   4.525  0.00  0.00    +0.170 HD
ATOM     13  C   UNL     1       0.067  -2.480   3.380  0.00  0.00    +0.124 A 
ATOM     14  N   UNL     1       0.053  -2.956   2.163  0.00  0.00    -0.225 NA
ATOM     15  C   UNL     1      -0.009  -0.122  -2.561  0.00  0.00    +0.052 C 
ENDBRANCH   1  13
BRANCH   1  16
ATOM     16  S   UNL     1      -0.631  -2.623   6.002  0.00  0.00    -0.077 S 
BRANCH  16  17
ATOM     17  C   UNL     1      -0.668  -3.894   7.222  0.00  0.00    +0.173 A 
ATOM     18  N   UNL     1      -0.210  -5.079   6.903  0.00  0.00    -0.223 NA
ATOM     19  C   UNL     1      -0.208  -6.097   7.787  0.00  0.00    +0.079 A 
ATOM     20  C   UNL     1       0.280  -7.362   7.447  0.00  0.00    +0.028 A 
ATOM     21  C   UNL     1       0.264  -8.366   8.374  0.00  0.00    +0.002 A 
ATOM     22  C   UNL     1      -0.233  -8.149   9.653  0.00  0.00    +0.001 A 
ATOM     23  C   UNL     1      -0.718  -6.922  10.016  0.00  0.00    +0.015 A 
ATOM     24  C   UNL     1      -0.713  -5.880   9.089  0.00  0.00    +0.065 A 
ATOM     25  C   UNL     1      -1.220  -4.543   9.423  0.00  0.00    +0.262 A 
ATOM     26  O   UNL     1      -1.666  -4.294  10.528  0.00  0.00    -0.267 OA
ATOM     27  N   UNL     1      -1.167  -3.595   8.458  0.00  0.00    -0.290 N 
ATOM     28  C   UNL     1      -1.654  -2.243   8.738  0.00  0.00    +0.154 C 
ENDBRANCH  16  17
ENDBRANCH   1  16
TORSDOF 3
