REMARK  Name = ZINC13033803
REMARK  9 active torsions:
REMARK  status: ('A' for Active; 'I' for Inactive)
REMARK    1  A    between atoms: C_4  and  C_7
REMARK    2  A    between atoms: C_7  and  C_8
REMARK    3  A    between atoms: C_8  and  N_66
REMARK    4  A    between atoms: C_9  and  C_10
REMARK    5  A    between atoms: C_9  and  N_66
REMARK    6  A    between atoms: C_26  and  C_27
REMARK    7  A    between atoms: C_26  and  N_66
REMARK    8  A    between atoms: N_31  and  C_32
REMARK    9  A    between atoms: C_32  and  C_33
REMARK                            x       y       z     vdW  Elec       q    Type
REMARK                         _______ _______ _______ _____ _____    ______ ____
ROOT
ATOM      1  N   UNL     1      -0.018  -1.097   1.978  0.00  0.00    +0.387 N 
ATOM      2  H   UNL     1       0.342  -0.216   1.593  0.00  0.00    -0.081 HD
ENDROOT
BRANCH   1   3
ATOM      3  C   UNL     1       0.161  -1.088   3.446  0.00  0.00    -0.073 C 
BRANCH   3   4
ATOM      4  C   UNL     1       1.574  -0.597   3.765  0.00  0.00    +0.016 C 
BRANCH   4   8
ATOM      5  C   UNL     1       2.229  -0.790   7.982  0.00  0.00    +0.000 A 
ATOM      6  C   UNL     1       2.538  -1.876   7.185  0.00  0.00    +0.000 A 
ATOM      7  C   UNL     1       2.326  -1.813   5.820  0.00  0.00    +0.003 A 
ATOM      8  C   UNL     1       1.805  -0.665   5.253  0.00  0.00    -0.049 A 
ATOM      9  C   UNL     1       1.502   0.423   6.050  0.00  0.00    +0.003 A 
ATOM     10  C   UNL     1       1.709   0.359   7.415  0.00  0.00    +0.000 A 
ENDBRANCH   4   8
ENDBRANCH   3   4
ENDBRANCH   1   3
BRANCH   1  11
ATOM     11  C   UNL     1       0.735  -2.223   1.385  0.00  0.00    -0.037 C 
BRANCH  11  12
ATOM     12  C   UNL     1       0.924  -1.955  -0.086  0.00  0.00    +0.001 A 
ATOM     13  C   UNL     1       2.046  -1.327  -0.520  0.00  0.00    +0.017 A 
ATOM     14  C   UNL     1       2.201  -1.081  -1.953  0.00  0.00    +0.002 A 
ATOM     15  C   UNL     1       3.337  -0.438  -2.458  0.00  0.00    +0.059 A 
ATOM     16  C   UNL     1       3.453  -0.217  -3.814  0.00  0.00    +0.163 A 
ATOM     17  C   UNL     1       2.443  -0.636  -4.685  0.00  0.00    +0.164 A 
ATOM     18  C   UNL     1       1.317  -1.274  -4.195  0.00  0.00    +0.075 A 
ATOM     19  C   UNL     1       1.183  -1.503  -2.831  0.00  0.00    +0.053 A 
ATOM     20  N   UNL     1       0.067  -2.136  -2.325  0.00  0.00    -0.322 N 
ATOM     21  H   UNL     1      -0.633  -2.427  -2.931  0.00  0.00    +0.169 HD
ATOM     22  C   UNL     1      -0.063  -2.362  -1.006  0.00  0.00    +0.251 A 
ATOM     23  O   UNL     1      -1.061  -2.929  -0.596  0.00  0.00    -0.268 OA
ATOM     24  O   UNL     1       2.552  -0.425  -6.025  0.00  0.00    -0.485 OA
ATOM     25  C   UNL     1       3.512   0.548  -6.448  0.00  0.00    +0.270 C 
ATOM     26  C   UNL     1       4.822   0.292  -5.692  0.00  0.00    +0.270 C 
ATOM     27  O   UNL     1       4.562   0.416  -4.289  0.00  0.00    -0.485 OA
ENDBRANCH  11  12
ENDBRANCH   1  11
BRANCH   1  28
ATOM     28  C   UNL     1      -1.452  -1.217   1.645  0.00  0.00    +0.001 C 
BRANCH  28  29
ATOM     29  C   UNL     1      -2.166   0.026   2.110  0.00  0.00    +0.135 A 
ATOM     30  N   UNL     1      -2.644   0.252   3.309  0.00  0.00    -0.115 NA
ATOM     31  N   UNL     1      -3.184   1.421   3.309  0.00  0.00    -0.023 NA
ATOM     32  N   UNL     1      -3.058   1.950   2.142  0.00  0.00    -0.044 NA
ATOM     33  N   UNL     1      -2.433   1.122   1.375  0.00  0.00    -0.227 N 
BRANCH  33  34
ATOM     34  C   UNL     1      -2.084   1.332  -0.032  0.00  0.00    +0.182 C 
BRANCH  34  35
ATOM     35  C   UNL     1      -0.815   2.139  -0.120  0.00  0.00    -0.026 A 
ATOM     36  C   UNL     1       0.413   1.508  -0.050  0.00  0.00    +0.005 A 
ATOM     37  C   UNL     1       1.577   2.248  -0.136  0.00  0.00    +0.000 A 
ATOM     38  C   UNL     1       1.514   3.620  -0.287  0.00  0.00    +0.000 A 
ATOM     39  C   UNL     1       0.287   4.253  -0.351  0.00  0.00    +0.000 A 
ATOM     40  C   UNL     1      -0.877   3.513  -0.265  0.00  0.00    +0.005 A 
ENDBRANCH  34  35
ENDBRANCH  33  34
ENDBRANCH  28  29
ENDBRANCH   1  28
TORSDOF 9
