REMARK  Name = ZINC09081074
REMARK  13 active torsions:
REMARK  status: ('A' for Active; 'I' for Inactive)
REMARK    1  A    between atoms: C_1  and  N_2
REMARK    2  A    between atoms: N_2  and  C_3
REMARK    3  A    between atoms: N_2  and  C_4
REMARK    4  A    between atoms: C_7  and  C_10
REMARK    5  A    between atoms: C_10  and  C_12
REMARK    6  A    between atoms: C_10  and  S_25
REMARK    7  A    between atoms: C_12  and  N_13
REMARK    8  A    between atoms: N_13  and  S_14
REMARK    9  A    between atoms: S_14  and  C_17
REMARK   10  A    between atoms: C_17  and  C_18
REMARK   11  A    between atoms: S_25  and  C_28
REMARK   12  A    between atoms: C_31  and  O_34
REMARK   13  A    between atoms: O_34  and  C_35
REMARK                            x       y       z     vdW  Elec       q    Type
REMARK                         _______ _______ _______ _____ _____    ______ ____
ROOT
ATOM      1  C   UNL     1       2.404   0.775   0.360  0.00  0.00    +0.181 C 
ENDROOT
BRANCH   1   5
ATOM      2  C   UNL     1       6.074   2.964   0.334  0.00  0.00    +0.029 A 
ATOM      3  C   UNL     1       5.898   1.891  -0.530  0.00  0.00    +0.023 A 
ATOM      4  C   UNL     1       4.711   1.185  -0.519  0.00  0.00    +0.007 A 
ATOM      5  C   UNL     1       3.698   1.547   0.351  0.00  0.00    -0.022 A 
ATOM      6  C   UNL     1       3.868   2.618   1.208  0.00  0.00    +0.007 A 
ATOM      7  C   UNL     1       5.055   3.324   1.207  0.00  0.00    +0.023 A 
BRANCH   2   9
ATOM      8  C   UNL     1       8.393   3.224  -0.504  0.00  0.00    +0.129 C 
ATOM      9  N   UNL     1       7.274   3.680   0.325  0.00  0.00    -0.336 N 
ATOM     10  C   UNL     1       7.413   4.886   1.145  0.00  0.00    +0.129 C 
ENDBRANCH   2   9
ENDBRANCH   1   5
BRANCH   1  11
ATOM     11  S   UNL     1       2.138   0.060   2.006  0.00  0.00    +0.005 S 
ATOM     12  O   UNL     1       2.136   1.084   2.990  0.00  0.00    -0.169 OA
ATOM     13  O   UNL     1       1.093  -0.902   1.959  0.00  0.00    -0.169 OA
BRANCH  11  14
ATOM     14  C   UNL     1       3.595  -0.876   2.334  0.00  0.00    +0.089 A 
ATOM     15  C   UNL     1       3.657  -2.208   1.967  0.00  0.00    +0.030 A 
ATOM     16  C   UNL     1       4.800  -2.942   2.218  0.00  0.00    +0.047 A 
ATOM     17  C   UNL     1       5.882  -2.345   2.849  0.00  0.00    +0.120 A 
ATOM     18  C   UNL     1       5.815  -1.010   3.221  0.00  0.00    +0.047 A 
ATOM     19  C   UNL     1       4.671  -0.279   2.963  0.00  0.00    +0.030 A 
BRANCH  17  20
ATOM     20  O   UNL     1       7.005  -3.066   3.101  0.00  0.00    -0.495 OA
ATOM     21  C   UNL     1       7.004  -4.435   2.690  0.00  0.00    +0.277 C 
ENDBRANCH  17  20
ENDBRANCH  11  14
ENDBRANCH   1  11
BRANCH   1  22
ATOM     22  C   UNL     1       1.246   1.716   0.020  0.00  0.00    +0.136 C 
BRANCH  22  23
ATOM     23  N   UNL     1      -0.012   0.965   0.029  0.00  0.00    -0.192 NA
ATOM     24  H   UNL     1       0.002  -0.004   0.014  0.00  0.00    +0.148 HD
BRANCH  23  25
ATOM     25  S   UNL     1      -1.457   1.773   0.058  0.00  0.00    +0.034 S 
ATOM     26  O   UNL     1      -2.444   0.750   0.078  0.00  0.00    -0.158 OA
ATOM     27  O   UNL     1      -1.340   2.688   1.139  0.00  0.00    -0.158 OA
BRANCH  25  28
ATOM     28  C   UNL     1      -1.521   2.671  -1.516  0.00  0.00    +0.220 C 
BRANCH  28  29
ATOM     29  C   UNL     1      -2.809   3.450  -1.599  0.00  0.00    -0.025 A 
ATOM     30  C   UNL     1      -3.933   2.869  -2.156  0.00  0.00    +0.007 A 
ATOM     31  C   UNL     1      -5.115   3.581  -2.227  0.00  0.00    +0.020 A 
ATOM     32  C   UNL     1      -5.171   4.879  -1.750  0.00  0.00    +0.041 A 
ATOM     33  C   UNL     1      -4.045   5.461  -1.197  0.00  0.00    +0.020 A 
ATOM     34  C   UNL     1      -2.864   4.747  -1.122  0.00  0.00    +0.007 A 
ATOM     35 CL   UNL     1      -6.655   5.775  -1.844  0.00  0.00    -0.084 Cl
ENDBRANCH  28  29
ENDBRANCH  25  28
ENDBRANCH  23  25
ENDBRANCH  22  23
ENDBRANCH   1  22
TORSDOF 10
