REMARK  Name = ZINC36500657
REMARK  15 active torsions:
REMARK  status: ('A' for Active; 'I' for Inactive)
REMARK    1  A    between atoms: C_1  and  C_2
REMARK    2  A    between atoms: C_2  and  C_3
REMARK    3  A    between atoms: C_2  and  C_4
REMARK    4  A    between atoms: C_2  and  N_5
REMARK    5  A    between atoms: C_6  and  C_8
REMARK    6  A    between atoms: C_8  and  C_10
REMARK    7  A    between atoms: C_8  and  N_19
REMARK    8  A    between atoms: C_13  and  N_16
REMARK    9  A    between atoms: N_16  and  C_17
REMARK   10  A    between atoms: N_16  and  C_18
REMARK   11  A    between atoms: N_19  and  C_20
REMARK   12  A    between atoms: C_20  and  C_21
REMARK   13  A    between atoms: C_26  and  C_28
REMARK   14  A    between atoms: C_29  and  O_35
REMARK   15  A    between atoms: C_33  and  O_34
REMARK                            x       y       z     vdW  Elec       q    Type
REMARK                         _______ _______ _______ _____ _____    ______ ____
ROOT
ATOM      1  N   UNL     1       3.888  -0.057  -2.338  0.00  0.00    -0.274 N 
ATOM      2  C   UNL     1       4.871  -0.463  -3.166  0.00  0.00    +0.255 C 
ATOM      3  O   UNL     1       4.599  -1.103  -4.164  0.00  0.00    -0.270 OA
ENDROOT
BRANCH   2   4
ATOM      4  C   UNL     1       6.273  -0.133  -2.863  0.00  0.00    +0.119 A 
ATOM      5  C   UNL     1       7.054  -1.006  -2.091  0.00  0.00    +0.133 A 
ATOM      6  C   UNL     1       8.372  -0.686  -1.812  0.00  0.00    +0.046 A 
ATOM      7  C   UNL     1       8.919   0.490  -2.291  0.00  0.00    +0.007 A 
ATOM      8  C   UNL     1       8.159   1.358  -3.053  0.00  0.00    +0.046 A 
ATOM      9  C   UNL     1       6.840   1.054  -3.348  0.00  0.00    +0.133 A 
BRANCH   9  10
ATOM     10  O   UNL     1       6.098   1.905  -4.101  0.00  0.00    -0.506 OA
ATOM     11  H   UNL     1       5.625   2.574  -3.587  0.00  0.00    +0.292 HD
ENDBRANCH   9  10
BRANCH   5  12
ATOM     12  O   UNL     1       6.519  -2.160  -1.619  0.00  0.00    -0.506 OA
ATOM     13  H   UNL     1       6.621  -2.914  -2.216  0.00  0.00    +0.292 HD
ENDBRANCH   5  12
ENDBRANCH   2   4
BRANCH   1  14
ATOM     14  C   UNL     1       2.493  -0.385  -2.640  0.00  0.00    +0.193 C 
BRANCH  14  15
ATOM     15  C   UNL     1       2.319  -1.882  -2.641  0.00  0.00    -0.018 A 
ATOM     16  C   UNL     1       3.112  -2.670  -1.828  0.00  0.00    +0.008 A 
ATOM     17  C   UNL     1       2.955  -4.042  -1.827  0.00  0.00    +0.023 A 
ATOM     18  C   UNL     1       1.998  -4.631  -2.644  0.00  0.00    +0.029 A 
ATOM     19  C   UNL     1       1.203  -3.836  -3.460  0.00  0.00    +0.023 A 
ATOM     20  C   UNL     1       1.361  -2.464  -3.452  0.00  0.00    +0.008 A 
BRANCH  18  21
ATOM     21  N   UNL     1       1.837  -6.018  -2.646  0.00  0.00    -0.336 N 
ATOM     22  C   UNL     1       2.677  -6.854  -1.785  0.00  0.00    +0.129 C 
ATOM     23  C   UNL     1       0.828  -6.637  -3.509  0.00  0.00    +0.129 C 
ENDBRANCH  18  21
ENDBRANCH  14  15
BRANCH  14  25
ATOM     24  N   UNL     1       0.584   1.034  -1.962  0.00  0.00    -0.309 N 
ATOM     25  C   UNL     1       1.596   0.224  -1.593  0.00  0.00    +0.239 C 
ATOM     26  O   UNL     1       1.785  -0.015  -0.419  0.00  0.00    -0.273 OA
ATOM     27  H   UNL     1       0.432   1.224  -2.901  0.00  0.00    +0.149 HD
BRANCH  24  29
ATOM     28  C   UNL     1       0.547   2.487   0.004  0.00  0.00    +0.031 C 
ATOM     29  C   UNL     1      -0.289   1.626  -0.945  0.00  0.00    +0.026 C 
ATOM     30  C   UNL     1      -0.976   0.513  -0.151  0.00  0.00    +0.031 C 
ATOM     31  C   UNL     1      -1.347   2.496  -1.625  0.00  0.00    +0.031 C 
ENDBRANCH  24  29
ENDBRANCH  14  25
ENDBRANCH   1  14
BRANCH   1  32
ATOM     32  C   UNL     1       4.216   0.714  -1.136  0.00  0.00    +0.183 C 
BRANCH  32  33
ATOM     33  C   UNL     1       4.561  -0.229  -0.013  0.00  0.00    +0.122 A 
ATOM     34  C   UNL     1       5.803  -0.563   0.381  0.00  0.00    +0.046 A 
ATOM     35  C   UNL     1       5.662  -1.467   1.459  0.00  0.00    +0.041 A 
ATOM     36  C   UNL     1       4.343  -1.631   1.660  0.00  0.00    +0.195 A 
ATOM     37  O   UNL     1       3.680  -0.874   0.770  0.00  0.00    -0.466 OA
ENDBRANCH  32  33
ENDBRANCH   1  32
TORSDOF 10
