REMARK  Name = ZINC07059605
REMARK  9 active torsions:
REMARK  status: ('A' for Active; 'I' for Inactive)
REMARK    1  A    between atoms: C_1  and  O_2
REMARK    2  A    between atoms: O_2  and  C_3
REMARK    3  A    between atoms: C_6  and  C_9
REMARK    4  A    between atoms: C_9  and  C_11
REMARK    5  A    between atoms: C_9  and  N_20
REMARK    6  A    between atoms: N_13  and  C_14
REMARK    7  A    between atoms: N_20  and  C_21
REMARK    8  A    between atoms: C_21  and  C_22
REMARK    9  A    between atoms: C_28  and  C_30
REMARK                            x       y       z     vdW  Elec       q    Type
REMARK                         _______ _______ _______ _____ _____    ______ ____
ROOT
ATOM      1  C   UNL     1      -2.509   0.997  -0.018  0.00  0.00    +0.192 C 
ENDROOT
BRANCH   1   5
ATOM      2  C   UNL     1       0.078   4.203  -1.155  0.00  0.00    +0.120 A 
ATOM      3  C   UNL     1       0.611   2.971  -0.804  0.00  0.00    +0.046 A 
ATOM      4  C   UNL     1      -0.227   1.937  -0.432  0.00  0.00    +0.009 A 
ATOM      5  C   UNL     1      -1.596   2.128  -0.417  0.00  0.00    -0.018 A 
ATOM      6  C   UNL     1      -2.130   3.356  -0.761  0.00  0.00    +0.009 A 
ATOM      7  C   UNL     1      -1.296   4.393  -1.133  0.00  0.00    +0.046 A 
BRANCH   2   9
ATOM      8  C   UNL     1       0.282   6.461  -1.870  0.00  0.00    +0.277 C 
ATOM      9  O   UNL     1       0.901   5.221  -1.521  0.00  0.00    -0.495 OA
ENDBRANCH   2   9
ENDBRANCH   1   5
BRANCH   1  10
ATOM     10  C   UNL     1      -3.194   0.448  -1.243  0.00  0.00    +0.238 C 
ATOM     11  O   UNL     1      -4.404   0.383  -1.283  0.00  0.00    -0.273 OA
ATOM     12  N   UNL     1      -2.461   0.030  -2.294  0.00  0.00    -0.311 N 
ATOM     13  H   UNL     1      -1.493   0.083  -2.262  0.00  0.00    +0.149 HD
BRANCH  12  14
ATOM     14  C   UNL     1      -3.127  -0.503  -3.485  0.00  0.00    +0.073 C 
ATOM     15  C   UNL     1      -3.418  -1.992  -3.283  0.00  0.00    +0.022 C 
ATOM     16  C   UNL     1      -4.114  -2.549  -4.527  0.00  0.00    +0.002 C 
ATOM     17  C   UNL     1      -3.204  -2.367  -5.744  0.00  0.00    +0.000 C 
ATOM     18  C   UNL     1      -2.914  -0.878  -5.946  0.00  0.00    +0.002 C 
ATOM     19  C   UNL     1      -2.218  -0.321  -4.702  0.00  0.00    +0.022 C 
ENDBRANCH  12  14
ENDBRANCH   1  10
BRANCH   1  20
ATOM     20  N   UNL     1      -3.516   1.491   0.925  0.00  0.00    -0.280 N 
ATOM     21  C   UNL     1      -3.242   1.531   2.244  0.00  0.00    +0.261 C 
ATOM     22  O   UNL     1      -2.202   1.067   2.662  0.00  0.00    -0.271 OA
BRANCH  21  23
ATOM     23  C   UNL     1      -4.228   2.152   3.200  0.00  0.00    +0.296 C 
ATOM     24  C   UNL     1      -4.163   3.682   3.088  0.00  0.00    +0.283 C 
ATOM     25  O   UNL     1      -5.100   4.238   4.017  0.00  0.00    -0.484 OA
ATOM     26  C   UNL     1      -5.095   3.720   5.275  0.00  0.00    +0.162 A 
ATOM     27  C   UNL     1      -5.696   4.428   6.305  0.00  0.00    +0.049 A 
ATOM     28  C   UNL     1      -5.701   3.914   7.588  0.00  0.00    +0.004 A 
ATOM     29  C   UNL     1      -5.108   2.693   7.848  0.00  0.00    +0.004 A 
ATOM     30  C   UNL     1      -4.507   1.983   6.827  0.00  0.00    +0.049 A 
ATOM     31  C   UNL     1      -4.496   2.494   5.537  0.00  0.00    +0.163 A 
ATOM     32  O   UNL     1      -3.894   1.786   4.543  0.00  0.00    -0.473 OA
ENDBRANCH  21  23
BRANCH  20  33
ATOM     33  C   UNL     1      -4.820   1.941   0.433  0.00  0.00    +0.140 C 
BRANCH  33  34
ATOM     34  C   UNL     1      -5.900   0.949   0.871  0.00  0.00    +0.136 C 
ATOM     35  C   UNL     1      -7.244   1.312   0.209  0.00  0.00    +0.035 C 
ATOM     36  C   UNL     1      -7.628   0.043  -0.591  0.00  0.00    +0.031 C 
ATOM     37  C   UNL     1      -6.788  -1.052   0.115  0.00  0.00    +0.160 C 
ATOM     38  O   UNL     1      -5.551  -0.376   0.437  0.00  0.00    -0.375 OA
ENDBRANCH  33  34
ENDBRANCH  20  33
ENDBRANCH   1  20
TORSDOF 8
