REMARK  Name = ZINC59889026
REMARK  7 active torsions:
REMARK  status: ('A' for Active; 'I' for Inactive)
REMARK    1  A    between atoms: C_1  and  C_2
REMARK    2  A    between atoms: C_2  and  C_3
REMARK    3  A    between atoms: C_3  and  C_26
REMARK    4  A    between atoms: N_4  and  N_5
REMARK    5  A    between atoms: C_8  and  S_11
REMARK    6  A    between atoms: S_11  and  C_12
REMARK    7  A    between atoms: C_12  and  C_13
REMARK                            x       y       z     vdW  Elec       q    Type
REMARK                         _______ _______ _______ _____ _____    ______ ____
ROOT
ATOM      1  C   UNL     1      -4.779  -4.806  -6.194  0.00  0.00    +0.173 C 
ENDROOT
BRANCH   1   2
ATOM      2  C   UNL     1      -4.505  -5.375  -7.563  0.00  0.00    +0.229 C 
ATOM      3  O   UNL     1      -3.416  -5.225  -8.075  0.00  0.00    -0.275 OA
ATOM      4  N   UNL     1      -5.471  -6.050  -8.218  0.00  0.00    -0.264 N 
ATOM      5  C   UNL     1      -5.219  -6.572  -9.476  0.00  0.00    +0.165 A 
ATOM      6  N   UNL     1      -4.115  -6.520 -10.183  0.00  0.00    -0.225 NA
ATOM      7  C   UNL     1      -4.010  -7.080 -11.408  0.00  0.00    +0.080 A 
ATOM      8  C   UNL     1      -2.887  -7.094 -12.268  0.00  0.00    +0.030 A 
ATOM      9  C   UNL     1      -2.949  -7.711 -13.490  0.00  0.00    +0.017 A 
ATOM     10  C   UNL     1      -4.106  -8.341 -13.927  0.00  0.00    +0.019 A 
ATOM     11  C   UNL     1      -5.224  -8.346 -13.111  0.00  0.00    +0.032 A 
ATOM     12  C   UNL     1      -5.170  -7.730 -11.885  0.00  0.00    +0.042 A 
ATOM     13  S   UNL     1      -6.313  -7.497 -10.545  0.00  0.00    -0.052 S 
ATOM     14 BR   UNL     1      -4.156  -9.181 -15.620  0.00  0.00    -0.050 Br
ATOM     15  H   UNL     1      -6.342  -6.169  -7.808  0.00  0.00    +0.157 HD
ENDBRANCH   1   2
BRANCH   1  16
ATOM     16  S   UNL     1      -3.295  -3.962  -5.582  0.00  0.00    -0.075 S 
BRANCH  16  20
ATOM     17  N   UNL     1      -3.174  -1.666  -0.981  0.00  0.00    -0.205 N 
ATOM     18  C   UNL     1      -3.658  -2.375  -2.067  0.00  0.00    +0.232 A 
ATOM     19  N   UNL     1      -2.989  -2.666  -3.162  0.00  0.00    -0.186 NA
ATOM     20  C   UNL     1      -3.770  -3.360  -3.996  0.00  0.00    +0.211 A 
ATOM     21  N   UNL     1      -4.948  -3.521  -3.441  0.00  0.00    -0.144 NA
ATOM     22  N   UNL     1      -4.898  -2.895  -2.186  0.00  0.00    -0.245 N 
ATOM     23  H   UNL     1      -3.745  -1.505  -0.214  0.00  0.00    +0.177 HD
ATOM     24  H   UNL     1      -5.614  -2.844  -1.533  0.00  0.00    +0.192 HD
BRANCH  17  26
ATOM     25  C   UNL     1      -1.412  -0.526   0.013  0.00  0.00    +0.034 C 
ATOM     26  N   UNL     1      -1.860  -1.181  -0.991  0.00  0.00    -0.189 NA
ATOM     27  C   UNL     1      -2.298  -0.275   1.205  0.00  0.00    +0.062 C 
BRANCH  25  29
ATOM     28  C   UNL     1      -0.019   1.526   0.010  0.00  0.00    +0.010 C 
ATOM     29  C   UNL     1       0.002  -0.004   0.002  0.00  0.00    +0.049 C 
ENDBRANCH  25  29
ENDBRANCH  17  26
ENDBRANCH  16  20
ENDBRANCH   1  16
TORSDOF 5
