REMARK  Name = ZINC40404770
REMARK  15 active torsions:
REMARK  status: ('A' for Active; 'I' for Inactive)
REMARK    1  A    between atoms: C_1  and  C_2
REMARK    2  A    between atoms: C_2  and  O_3
REMARK    3  A    between atoms: O_3  and  C_4
REMARK    4  A    between atoms: C_4  and  C_6
REMARK    5  A    between atoms: C_7  and  C_35
REMARK    6  A    between atoms: C_13  and  C_17
REMARK    7  A    between atoms: C_17  and  N_18
REMARK    8  A    between atoms: N_18  and  C_19
REMARK    9  A    between atoms: N_18  and  C_32
REMARK   10  A    between atoms: C_19  and  C_20
REMARK   11  A    between atoms: C_20  and  C_22
REMARK   12  A    between atoms: C_20  and  O_31
REMARK   13  A    between atoms: C_22  and  O_23
REMARK   14  A    between atoms: O_23  and  C_24
REMARK   15  A    between atoms: C_24  and  C_25
REMARK                            x       y       z     vdW  Elec       q    Type
REMARK                         _______ _______ _______ _____ _____    ______ ____
ROOT
ATOM      1  C   UNL     1       4.520  -4.170   7.726  0.00  0.00    -0.003 C 
ENDROOT
BRANCH   1   9
ATOM      2  C   UNL     1       1.052  -1.901   2.949  0.00  0.00    +0.102 A 
ATOM      3  C   UNL     1       1.183  -3.222   3.265  0.00  0.00    -0.015 A 
ATOM      4  C   UNL     1       1.980  -3.602   4.347  0.00  0.00    +0.076 A 
ATOM      5  C   UNL     1       2.265  -4.958   4.869  0.00  0.00    +0.260 A 
ATOM      6  O   UNL     1       1.780  -5.944   4.344  0.00  0.00    -0.267 OA
ATOM      7  N   UNL     1       3.075  -5.072   5.940  0.00  0.00    -0.312 N 
ATOM      8  H   UNL     1       3.272  -5.954   6.294  0.00  0.00    +0.170 HD
ATOM      9  C   UNL     1       3.621  -3.982   6.531  0.00  0.00    +0.094 A 
ATOM     10  N   UNL     1       3.390  -2.773   6.097  0.00  0.00    -0.229 NA
ATOM     11  C   UNL     1       2.607  -2.547   5.050  0.00  0.00    +0.116 A 
ATOM     12  S   UNL     1       2.069  -1.099   4.176  0.00  0.00    -0.062 S 
ATOM     13  C   UNL     1       0.469  -4.269   2.449  0.00  0.00    +0.046 C 
BRANCH   2  14
ATOM     14  C   UNL     1       0.274  -1.293   1.867  0.00  0.00    +0.346 C 
ATOM     15  O   UNL     1      -0.371  -1.996   1.112  0.00  0.00    -0.244 OA
BRANCH  14  16
ATOM     16  O   UNL     1       0.272   0.047   1.708  0.00  0.00    -0.461 OA
BRANCH  16  18
ATOM     17  C   UNL     1      -0.387   2.096   0.611  0.00  0.00    +0.048 C 
ATOM     18  C   UNL     1      -0.508   0.571   0.632  0.00  0.00    +0.229 C 
ENDBRANCH  16  18
ENDBRANCH  14  16
ENDBRANCH   2  14
ENDBRANCH   1   9
BRANCH   1  19
ATOM     19  N   UNL     1       4.991  -2.861   8.196  0.00  0.00    +0.388 N 
ATOM     20  H   UNL     1       5.433  -2.369   7.434  0.00  0.00    -0.081 HD
BRANCH  19  21
ATOM     21  C   UNL     1       3.850  -2.078   8.688  0.00  0.00    -0.068 C 
ATOM     22  C   UNL     1       3.520  -0.775   7.957  0.00  0.00    -0.017 C 
ATOM     23  C   UNL     1       4.150  -0.732   9.351  0.00  0.00    -0.017 C 
ENDBRANCH  19  21
BRANCH  19  24
ATOM     24  C   UNL     1       5.960  -3.051   9.284  0.00  0.00    -0.044 C 
BRANCH  24  25
ATOM     25  C   UNL     1       7.202  -3.762   8.742  0.00  0.00    +0.124 C 
BRANCH  25  26
ATOM     26  O   UNL     1       7.791  -2.971   7.708  0.00  0.00    -0.391 OA
ATOM     27  H   UNL     1       8.069  -2.091   7.997  0.00  0.00    +0.210 HD
ENDBRANCH  25  26
BRANCH  25  28
ATOM     28  C   UNL     1       8.212  -3.957   9.874  0.00  0.00    +0.189 C 
BRANCH  28  29
ATOM     29  O   UNL     1       9.320  -4.723   9.397  0.00  0.00    -0.373 OA
BRANCH  29  30
ATOM     30  C   UNL     1      10.328  -4.964  10.381  0.00  0.00    +0.195 C 
BRANCH  30  31
ATOM     31  C   UNL     1      11.441  -5.776   9.772  0.00  0.00    -0.022 A 
ATOM     32  C   UNL     1      11.392  -7.157   9.812  0.00  0.00    +0.006 A 
ATOM     33  C   UNL     1      12.414  -7.902   9.253  0.00  0.00    +0.000 A 
ATOM     34  C   UNL     1      13.485  -7.266   8.654  0.00  0.00    +0.000 A 
ATOM     35  C   UNL     1      13.534  -5.885   8.614  0.00  0.00    +0.000 A 
ATOM     36  C   UNL     1      12.510  -5.140   9.169  0.00  0.00    +0.006 A 
ENDBRANCH  30  31
ENDBRANCH  29  30
ENDBRANCH  28  29
ENDBRANCH  25  28
ENDBRANCH  24  25
ENDBRANCH  19  24
ENDBRANCH   1  19
TORSDOF 13
