REMARK  Name = ZINC57719885
REMARK  11 active torsions:
REMARK  status: ('A' for Active; 'I' for Inactive)
REMARK    1  A    between atoms: C_1  and  C_2
REMARK    2  A    between atoms: C_2  and  C_3
REMARK    3  A    between atoms: C_2  and  C_4
REMARK    4  A    between atoms: C_2  and  C_5
REMARK    5  A    between atoms: C_8  and  C_11
REMARK    6  A    between atoms: C_11  and  C_13
REMARK    7  A    between atoms: C_13  and  C_14
REMARK    8  A    between atoms: C_14  and  C_15
REMARK    9  A    between atoms: C_15  and  N_16
REMARK   10  A    between atoms: C_30  and  O_34
REMARK   11  A    between atoms: O_34  and  C_35
REMARK                            x       y       z     vdW  Elec       q    Type
REMARK                         _______ _______ _______ _____ _____    ______ ____
ROOT
ATOM      1  N   UNL     1       6.515  -2.308  -7.806  0.00  0.00    +0.381 N 
ATOM      2  C   UNL     1       6.507  -3.771  -7.688  0.00  0.00    -0.079 C 
ATOM      3  C   UNL     1       6.896  -4.397  -9.029  0.00  0.00    -0.016 C 
ATOM      4  C   UNL     1       8.301  -3.926  -9.417  0.00  0.00    +0.028 C 
ATOM      5  C   UNL     1       8.325  -2.398  -9.455  0.00  0.00    +0.058 C 
ATOM      6  C   UNL     1       7.874  -1.841  -8.106  0.00  0.00    -0.047 C 
ATOM      7  C   UNL     1       9.721  -1.917  -9.764  0.00  0.00    +0.045 A 
ATOM      8  C   UNL     1      10.758  -1.724  -8.940  0.00  0.00    +0.025 A 
ATOM      9  C   UNL     1      11.845  -1.287  -9.727  0.00  0.00    +0.020 A 
ATOM     10  C   UNL     1      11.421  -1.225 -11.010  0.00  0.00    +0.091 A 
ATOM     11  N   UNL     1      10.120  -1.598 -11.043  0.00  0.00    -0.316 N 
ATOM     12  C   UNL     1       9.227  -1.668 -12.124  0.00  0.00    +0.067 A 
ATOM     13  C   UNL     1       9.660  -1.552 -13.431  0.00  0.00    +0.031 A 
ATOM     14  C   UNL     1       8.750  -1.651 -14.469  0.00  0.00    +0.048 A 
ATOM     15  C   UNL     1       7.406  -1.866 -14.197  0.00  0.00    +0.122 A 
ATOM     16  C   UNL     1       6.966  -1.974 -12.887  0.00  0.00    +0.070 A 
ATOM     17  C   UNL     1       7.871  -1.864 -11.843  0.00  0.00    +0.055 A 
ATOM     18  N   UNL     1       7.430  -1.915 -10.515  0.00  0.00    -0.333 N 
ATOM     19  H   UNL     1       6.529  -1.630 -10.293  0.00  0.00    +0.147 HD
ATOM     20  H   UNL     1       5.893  -2.029  -8.550  0.00  0.00    -0.082 HD
ENDROOT
BRANCH  15  21
ATOM     21  O   UNL     1       6.518  -1.972 -15.221  0.00  0.00    -0.495 OA
ATOM     22  C   UNL     1       7.038  -1.853 -16.546  0.00  0.00    +0.277 C 
ENDBRANCH  15  21
BRANCH   1  23
ATOM     23  C   UNL     1       6.062  -1.713  -6.542  0.00  0.00    -0.078 C 
BRANCH  23  24
ATOM     24  C   UNL     1       4.603  -2.099  -6.291  0.00  0.00    -0.011 C 
BRANCH  24  25
ATOM     25  C   UNL     1       4.130  -1.479  -4.974  0.00  0.00    +0.078 C 
BRANCH  25  26
ATOM     26  C   UNL     1       2.693  -1.859  -4.727  0.00  0.00    +0.163 C 
ATOM     27  O   UNL     1       2.105  -2.557  -5.526  0.00  0.00    -0.292 OA
BRANCH  26  31
ATOM     28  C   UNL     1       0.707  -0.490  -1.238  0.00  0.00    -0.042 A 
ATOM     29  C   UNL     1       0.032  -1.285  -2.147  0.00  0.00    +0.005 A 
ATOM     30  C   UNL     1       0.670  -1.734  -3.284  0.00  0.00    +0.011 A 
ATOM     31  C   UNL     1       2.004  -1.384  -3.517  0.00  0.00    +0.017 A 
ATOM     32  C   UNL     1       2.680  -0.580  -2.593  0.00  0.00    +0.011 A 
ATOM     33  C   UNL     1       2.026  -0.134  -1.464  0.00  0.00    +0.005 A 
BRANCH  28  35
ATOM     34  C   UNL     1      -0.019   1.526   0.010  0.00  0.00    +0.015 C 
ATOM     35  C   UNL     1       0.002  -0.004   0.002  0.00  0.00    -0.013 C 
ATOM     36  C   UNL     1       0.742  -0.511   1.242  0.00  0.00    +0.015 C 
ATOM     37  C   UNL     1      -1.433  -0.534   0.013  0.00  0.00    +0.015 C 
ENDBRANCH  28  35
ENDBRANCH  26  31
ENDBRANCH  25  26
ENDBRANCH  24  25
ENDBRANCH  23  24
ENDBRANCH   1  23
TORSDOF 7
