REMARK  Name = ZINC06368736
REMARK  9 active torsions:
REMARK  status: ('A' for Active; 'I' for Inactive)
REMARK    1  A    between atoms: C_1  and  C_2
REMARK    2  A    between atoms: C_5  and  C_7
REMARK    3  A    between atoms: C_8  and  C_9
REMARK    4  A    between atoms: N_11  and  C_12
REMARK    5  A    between atoms: C_15  and  S_18
REMARK    6  A    between atoms: S_18  and  N_21
REMARK    7  A    between atoms: N_21  and  C_22
REMARK    8  A    between atoms: C_24  and  C_29
REMARK    9  A    between atoms: C_26  and  C_28
REMARK                            x       y       z     vdW  Elec       q    Type
REMARK                         _______ _______ _______ _____ _____    ______ ____
ROOT
ATOM      1  C   UNL     1       1.149   6.759  -0.027  0.00  0.00    +0.034 A 
ATOM      2  C   UNL     1      -0.113   6.628  -0.593  0.00  0.00    +0.025 A 
ATOM      3  C   UNL     1      -0.918   5.563  -0.241  0.00  0.00    +0.030 A 
ATOM      4  C   UNL     1      -0.470   4.628   0.674  0.00  0.00    +0.109 A 
ATOM      5  C   UNL     1       0.783   4.758   1.244  0.00  0.00    +0.030 A 
ATOM      6  C   UNL     1       1.596   5.818   0.892  0.00  0.00    +0.025 A 
ENDROOT
BRANCH   1   9
ATOM      7  C   UNL     1       3.304   7.681  -0.425  0.00  0.00    +0.241 C 
ATOM      8  O   UNL     1       3.796   6.581  -0.246  0.00  0.00    -0.270 OA
ATOM      9  N   UNL     1       1.966   7.837  -0.380  0.00  0.00    -0.282 N 
ATOM     10  H   UNL     1       1.571   8.696  -0.594  0.00  0.00    +0.155 HD
BRANCH   7  12
ATOM     11  C   UNL     1       5.485   8.639  -0.725  0.00  0.00    +0.051 C 
ATOM     12  C   UNL     1       4.138   8.795  -0.680  0.00  0.00    +0.071 C 
BRANCH  11  17
ATOM     13  C   UNL     1       6.931  13.287  -1.676  0.00  0.00    +0.086 C 
ATOM     14  C   UNL     1       6.976  11.806  -1.401  0.00  0.00    +0.103 A 
ATOM     15  C   UNL     1       8.097  11.056  -1.323  0.00  0.00    +0.045 A 
ATOM     16  C   UNL     1       7.697   9.739  -1.048  0.00  0.00    +0.049 A 
ATOM     17  C   UNL     1       6.319   9.754  -0.980  0.00  0.00    +0.128 A 
ATOM     18  O   UNL     1       5.909  11.021  -1.195  0.00  0.00    -0.461 OA
ENDBRANCH  11  17
ENDBRANCH   7  12
ENDBRANCH   1   9
BRANCH   4  19
ATOM     19  S   UNL     1      -1.501   3.270   1.121  0.00  0.00    +0.072 S 
ATOM     20  O   UNL     1      -2.828   3.635   0.768  0.00  0.00    -0.150 OA
ATOM     21  O   UNL     1      -1.139   2.903   2.445  0.00  0.00    -0.150 OA
BRANCH  19  22
ATOM     22  N   UNL     1      -1.085   1.998   0.146  0.00  0.00    -0.216 N 
ATOM     23  H   UNL     1      -1.722   1.652  -0.498  0.00  0.00    +0.174 HD
BRANCH  22  24
ATOM     24  C   UNL     1       0.183   1.423   0.252  0.00  0.00    +0.049 A 
ATOM     25  C   UNL     1       1.145   1.675  -0.717  0.00  0.00    +0.028 A 
ATOM     26  C   UNL     1       2.397   1.100  -0.613  0.00  0.00    -0.048 A 
ATOM     27  C   UNL     1       2.692   0.274   0.456  0.00  0.00    +0.006 A 
ATOM     28  C   UNL     1       1.737   0.020   1.423  0.00  0.00    -0.048 A 
ATOM     29  C   UNL     1       0.484   0.592   1.325  0.00  0.00    +0.028 A 
ATOM     30  C   UNL     1       2.064  -0.880   2.587  0.00  0.00    +0.044 C 
ATOM     31  C   UNL     1       3.441   1.374  -1.664  0.00  0.00    +0.044 C 
ENDBRANCH  22  24
ENDBRANCH  19  22
ENDBRANCH   4  19
TORSDOF 6
