REMARK  Name = ZINC67608802
REMARK  8 active torsions:
REMARK  status: ('A' for Active; 'I' for Inactive)
REMARK    1  A    between atoms: C_1  and  C_2
REMARK    2  A    between atoms: C_2  and  C_4
REMARK    3  A    between atoms: C_2  and  N_11
REMARK    4  A    between atoms: C_8  and  O_10
REMARK    5  A    between atoms: N_11  and  C_12
REMARK    6  A    between atoms: N_15  and  C_16
REMARK    7  A    between atoms: C_16  and  C_18
REMARK    8  A    between atoms: C_16  and  C_25
REMARK                            x       y       z     vdW  Elec       q    Type
REMARK                         _______ _______ _______ _____ _____    ______ ____
ROOT
ATOM      1  N   UNL     1       0.837  -0.414   1.182  0.00  0.00    -0.282 N 
ATOM      2  C   UNL     1       0.424  -0.100   2.552  0.00  0.00    +0.134 C 
ATOM      3  C   UNL     1       2.040  -0.976   0.953  0.00  0.00    +0.303 C 
ATOM      4  O   UNL     1       2.383  -1.237  -0.184  0.00  0.00    -0.253 OA
ATOM      5  N   UNL     1       2.864  -1.248   1.985  0.00  0.00    -0.292 N 
ATOM      6  H   UNL     1       2.591  -1.040   2.892  0.00  0.00    +0.151 HD
ENDROOT
BRANCH   1   8
ATOM      7  C   UNL     1      -0.473   1.353   0.114  0.00  0.00    +0.033 C 
ATOM      8  C   UNL     1      -0.059  -0.119   0.061  0.00  0.00    +0.104 C 
BRANCH   8   9
ATOM      9  C   UNL     1      -1.285  -0.990   0.154  0.00  0.00    -0.024 A 
ATOM     10  C   UNL     1      -1.639  -1.800  -0.908  0.00  0.00    +0.006 A 
ATOM     11  C   UNL     1      -2.764  -2.600  -0.826  0.00  0.00    +0.004 A 
ATOM     12  C   UNL     1      -3.537  -2.591   0.319  0.00  0.00    +0.045 A 
ATOM     13  C   UNL     1      -3.184  -1.779   1.387  0.00  0.00    +0.117 A 
ATOM     14  C   UNL     1      -2.051  -0.981   1.304  0.00  0.00    +0.050 A 
BRANCH  13  15
ATOM     15  O   UNL     1      -3.943  -1.768   2.514  0.00  0.00    -0.507 OA
ATOM     16  H   UNL     1      -3.673  -2.419   3.176  0.00  0.00    +0.292 HD
ENDBRANCH  13  15
ENDBRANCH   8   9
ENDBRANCH   1   8
BRANCH   5  17
ATOM     17  C   UNL     1       4.172  -1.859   1.736  0.00  0.00    +0.108 C 
BRANCH  17  18
ATOM     18  C   UNL     1       5.111  -1.512   2.863  0.00  0.00    -0.027 A 
ATOM     19  C   UNL     1       4.653  -1.511   4.167  0.00  0.00    +0.007 A 
ATOM     20  C   UNL     1       5.513  -1.194   5.202  0.00  0.00    +0.020 A 
ATOM     21  C   UNL     1       6.833  -0.877   4.931  0.00  0.00    +0.041 A 
ATOM     22  C   UNL     1       7.290  -0.879   3.626  0.00  0.00    +0.020 A 
ATOM     23  C   UNL     1       6.431  -1.202   2.593  0.00  0.00    +0.007 A 
ATOM     24 CL   UNL     1       7.913  -0.478   6.230  0.00  0.00    -0.084 Cl
ENDBRANCH  17  18
BRANCH  17  25
ATOM     25  C   UNL     1       4.018  -3.378   1.649  0.00  0.00    +0.014 C 
ATOM     26  C   UNL     1       4.616  -4.081   0.429  0.00  0.00    +0.006 C 
ATOM     27  C   UNL     1       3.099  -3.934   0.560  0.00  0.00    +0.006 C 
ENDBRANCH  17  25
ENDBRANCH   5  17
TORSDOF 6
