REMARK  Name = ZINC32537612
REMARK  10 active torsions:
REMARK  status: ('A' for Active; 'I' for Inactive)
REMARK    1  A    between atoms: C_1  and  C_2
REMARK    2  A    between atoms: C_2  and  C_3
REMARK    3  A    between atoms: C_7  and  C_30
REMARK    4  A    between atoms: C_8  and  N_9
REMARK    5  A    between atoms: N_9  and  S_10
REMARK    6  A    between atoms: S_10  and  C_13
REMARK    7  A    between atoms: C_15  and  N_22
REMARK    8  A    between atoms: C_18  and  O_19
REMARK    9  A    between atoms: O_19  and  C_20
REMARK   10  A    between atoms: C_20  and  C_21
REMARK                            x       y       z     vdW  Elec       q    Type
REMARK                         _______ _______ _______ _____ _____    ______ ____
ROOT
ATOM      1  C   UNL     1      -0.332   0.510  -0.380  0.00  0.00    +0.152 A 
ATOM      2  C   UNL     1       0.995   0.867  -0.521  0.00  0.00    +0.057 A 
ATOM      3  C   UNL     1       1.941  -0.096  -0.847  0.00  0.00    +0.053 A 
ATOM      4  C   UNL     1       1.553  -1.417  -1.029  0.00  0.00    +0.028 A 
ATOM      5  C   UNL     1       0.226  -1.772  -0.886  0.00  0.00    +0.049 A 
ATOM      6  C   UNL     1      -0.719  -0.809  -0.562  0.00  0.00    +0.147 A 
ENDROOT
BRANCH   3   7
ATOM      7  N   UNL     1       3.286   0.265  -0.991  0.00  0.00    -0.207 N 
ATOM      8  C   UNL     1       3.688   1.340  -1.910  0.00  0.00    +0.131 C 
ATOM      9  C   UNL     1       4.452   2.413  -1.136  0.00  0.00    +0.022 C 
ATOM     10  C   UNL     1       5.760   1.851  -0.583  0.00  0.00    +0.026 C 
ATOM     11  C   UNL     1       5.461   0.865   0.552  0.00  0.00    +0.189 C 
ATOM     12  S   UNL     1       4.479  -0.505  -0.122  0.00  0.00    +0.045 S 
ATOM     13  O   UNL     1       3.795  -1.183   0.922  0.00  0.00    -0.155 OA
ATOM     14  O   UNL     1       5.234  -1.223  -1.088  0.00  0.00    -0.155 OA
ENDBRANCH   3   7
BRANCH   1  15
ATOM     15  S   UNL     1      -1.534   1.732   0.026  0.00  0.00    +0.076 S 
ATOM     16  O   UNL     1      -2.308   1.202   1.093  0.00  0.00    -0.150 OA
ATOM     17  O   UNL     1      -0.839   2.967   0.129  0.00  0.00    -0.150 OA
BRANCH  15  18
ATOM     18  N   UNL     1      -2.551   1.869  -1.274  0.00  0.00    -0.216 N 
ATOM     19  H   UNL     1      -3.600   1.550  -1.187  0.00  0.00    +0.174 HD
BRANCH  18  25
ATOM     20  C   UNL     1      -1.932   1.560  -3.586  0.00  0.00    -0.025 A 
ATOM     21  C   UNL     1      -1.467   2.079  -4.779  0.00  0.00    +0.005 A 
ATOM     22  C   UNL     1      -1.136   3.418  -4.870  0.00  0.00    +0.001 A 
ATOM     23  C   UNL     1      -1.274   4.244  -3.769  0.00  0.00    +0.005 A 
ATOM     24  C   UNL     1      -1.743   3.734  -2.575  0.00  0.00    -0.028 A 
ATOM     25  C   UNL     1      -2.077   2.389  -2.480  0.00  0.00    +0.054 A 
ATOM     26  C   UNL     1      -1.894   4.635  -1.377  0.00  0.00    +0.046 C 
BRANCH  20  28
ATOM     27  C   UNL     1      -3.786  -0.080  -3.732  0.00  0.00    +0.009 C 
ATOM     28  C   UNL     1      -2.286   0.099  -3.485  0.00  0.00    +0.033 C 
ENDBRANCH  20  28
ENDBRANCH  18  25
ENDBRANCH  15  18
ENDBRANCH   1  15
BRANCH   6  29
ATOM     29  O   UNL     1      -2.025  -1.160  -0.422  0.00  0.00    -0.490 OA
BRANCH  29  30
ATOM     30  C   UNL     1      -2.336  -2.552  -0.507  0.00  0.00    +0.226 C 
ATOM     31  C   UNL     1      -3.821  -2.763  -0.206  0.00  0.00    +0.048 C 
ENDBRANCH  29  30
ENDBRANCH   6  29
TORSDOF 7
