REMARK  Name = ZINC39478535
REMARK  11 active torsions:
REMARK  status: ('A' for Active; 'I' for Inactive)
REMARK    1  A    between atoms: N_9  and  C_11
REMARK    2  A    between atoms: C_11  and  C_12
REMARK    3  A    between atoms: C_12  and  C_14
REMARK    4  A    between atoms: C_12  and  O_31
REMARK    5  A    between atoms: C_14  and  O_15
REMARK    6  A    between atoms: O_15  and  C_16
REMARK    7  A    between atoms: C_20  and  C_22
REMARK    8  A    between atoms: C_22  and  N_23
REMARK    9  A    between atoms: N_23  and  C_24
REMARK   10  A    between atoms: C_24  and  C_25
REMARK   11  A    between atoms: C_25  and  C_26
REMARK                            x       y       z     vdW  Elec       q    Type
REMARK                         _______ _______ _______ _____ _____    ______ ____
ROOT
ATOM      1  O   UNL     1       8.265  -2.181   1.694  0.00  0.00    -0.489 OA
ENDROOT
BRANCH   1   2
ATOM      2  C   UNL     1       9.540  -2.636   1.577  0.00  0.00    +0.121 A 
ATOM      3  C   UNL     1       9.829  -3.676   0.705  0.00  0.00    +0.045 A 
ATOM      4  C   UNL     1      11.125  -4.136   0.587  0.00  0.00    +0.004 A 
ATOM      5  C   UNL     1      12.135  -3.563   1.337  0.00  0.00    +0.002 A 
ATOM      6  C   UNL     1      11.850  -2.527   2.207  0.00  0.00    -0.061 A 
ATOM      7  C   UNL     1      10.555  -2.059   2.325  0.00  0.00    +0.047 A 
BRANCH   6   8
ATOM      8  C   UNL     1      12.953  -1.905   3.024  0.00  0.00    -0.047 C 
BRANCH   8   9
ATOM      9  N   UNL     1      13.544  -0.787   2.277  0.00  0.00    +0.382 N 
ATOM     10  H   UNL     1      13.922  -1.127   1.405  0.00  0.00    -0.085 HD
ATOM     11  H   UNL     1      12.834  -0.095   2.088  0.00  0.00    -0.085 HD
BRANCH   9  12
ATOM     12  C   UNL     1      14.619  -0.180   3.073  0.00  0.00    -0.078 C 
BRANCH  12  13
ATOM     13  C   UNL     1      15.235   0.985   2.295  0.00  0.00    +0.015 C 
BRANCH  13  14
ATOM     14  C   UNL     1      16.338   1.607   3.111  0.00  0.00    -0.029 C 
ATOM     15  C   UNL     1      17.648   1.356   3.052  0.00  0.00    +0.135 C 
ATOM     16  N   UNL     1      18.323   2.114   3.944  0.00  0.00    -0.162 NA
ATOM     17  N   UNL     1      17.614   2.867   4.617  0.00  0.00    -0.183 NA
ATOM     18  C   UNL     1      16.219   2.671   4.188  0.00  0.00    +0.198 C 
ENDBRANCH  13  14
ENDBRANCH  12  13
ENDBRANCH   9  12
ENDBRANCH   8   9
ENDBRANCH   6   8
ENDBRANCH   1   2
BRANCH   1  19
ATOM     19  C   UNL     1       7.270  -2.822   0.894  0.00  0.00    +0.258 C 
BRANCH  19  20
ATOM     20  C   UNL     1       5.908  -2.179   1.160  0.00  0.00    +0.135 C 
BRANCH  20  21
ATOM     21  O   UNL     1       5.521  -2.425   2.513  0.00  0.00    -0.390 OA
ATOM     22  H   UNL     1       5.441  -3.363   2.735  0.00  0.00    +0.210 HD
ENDBRANCH  20  21
BRANCH  20  23
ATOM     23  C   UNL     1       4.866  -2.780   0.214  0.00  0.00    -0.043 C 
BRANCH  23  32
ATOM     24  C   UNL     1      -0.017   1.376   0.010  0.00  0.00    +0.000 A 
ATOM     25  C   UNL     1       1.173   2.080   0.002  0.00  0.00    +0.000 A 
ATOM     26  C   UNL     1       2.375   1.401  -0.015  0.00  0.00    +0.002 A 
ATOM     27  C   UNL     1       2.395   0.014  -0.023  0.00  0.00    -0.061 A 
ATOM     28  C   UNL     1       1.208  -0.687  -0.013  0.00  0.00    -0.048 A 
ATOM     29  C   UNL     1       0.002  -0.004   0.002  0.00  0.00    +0.004 A 
ATOM     30  C   UNL     1       1.186  -2.194  -0.014  0.00  0.00    +0.017 C 
ATOM     31  C   UNL     1       2.554  -2.732  -0.434  0.00  0.00    -0.074 C 
ATOM     32  N   UNL     1       3.587  -2.079   0.386  0.00  0.00    +0.384 N 
ATOM     33  C   UNL     1       3.728  -0.686  -0.046  0.00  0.00    -0.043 C 
ATOM     34  H   UNL     1       3.313  -2.106   1.357  0.00  0.00    -0.081 HD
ENDBRANCH  23  32
ENDBRANCH  20  23
ENDBRANCH  19  20
ENDBRANCH   1  19
TORSDOF 11
