REMARK  Name = ZINC36266759
REMARK  6 active torsions:
REMARK  status: ('A' for Active; 'I' for Inactive)
REMARK    1  A    between atoms: C_1  and  C_2
REMARK    2  A    between atoms: C_7  and  S_8
REMARK    3  A    between atoms: S_8  and  N_11
REMARK    4  A    between atoms: N_11  and  C_12
REMARK    5  A    between atoms: C_12  and  C_13
REMARK    6  A    between atoms: C_13  and  N_20
REMARK                            x       y       z     vdW  Elec       q    Type
REMARK                         _______ _______ _______ _____ _____    ______ ____
ROOT
ATOM      1  N   UNL     1       2.189   0.452   1.111  0.00  0.00    -0.191 NA
ATOM      2  H   UNL     1       3.107   0.406   0.799  0.00  0.00    +0.148 HD
ENDROOT
BRANCH   1   3
ATOM      3  S   UNL     1       1.096  -0.698   0.636  0.00  0.00    +0.059 S 
ATOM      4  O   UNL     1       0.450  -1.155   1.816  0.00  0.00    -0.153 OA
ATOM      5  O   UNL     1       1.786  -1.576  -0.243  0.00  0.00    -0.153 OA
BRANCH   3  12
ATOM      6  C   UNL     1       1.634   0.642  -2.021  0.00  0.00    +0.046 C 
ATOM      7  C   UNL     1       0.210   0.702  -1.532  0.00  0.00    -0.024 A 
ATOM      8  C   UNL     1      -0.755   1.338  -2.292  0.00  0.00    +0.006 A 
ATOM      9  C   UNL     1      -2.061   1.393  -1.844  0.00  0.00    +0.015 A 
ATOM     10  C   UNL     1      -2.404   0.812  -0.636  0.00  0.00    +0.020 A 
ATOM     11  C   UNL     1      -1.438   0.177   0.124  0.00  0.00    +0.044 A 
ATOM     12  C   UNL     1      -0.133   0.118  -0.327  0.00  0.00    +0.109 A 
ATOM     13 BR   UNL     1      -4.191   0.888  -0.022  0.00  0.00    -0.050 Br
ENDBRANCH   3  12
ENDBRANCH   1   3
BRANCH   1  14
ATOM     14  C   UNL     1       1.771   1.537   2.002  0.00  0.00    +0.093 C 
BRANCH  14  15
ATOM     15  C   UNL     1       3.005   2.177   2.640  0.00  0.00    -0.057 C 
ATOM     16  C   UNL     1       2.758   2.397   4.108  0.00  0.00    -0.012 C 
ATOM     17  C   UNL     1       1.260   2.537   4.439  0.00  0.00    -0.001 C 
ATOM     18  C   UNL     1       0.499   3.398   3.413  0.00  0.00    -0.000 C 
ATOM     19  C   UNL     1       1.275   4.618   2.997  0.00  0.00    -0.000 C 
ATOM     20  C   UNL     1       2.057   4.286   1.709  0.00  0.00    -0.001 C 
ATOM     21  C   UNL     1       3.280   3.544   1.979  0.00  0.00    -0.012 C 
BRANCH  15  22
ATOM     22  N   UNL     1       4.168   1.298   2.458  0.00  0.00    +0.383 N 
ATOM     23  H   UNL     1       4.334   1.160   1.472  0.00  0.00    -0.089 HD
ATOM     24  H   UNL     1       4.980   1.723   2.879  0.00  0.00    -0.089 HD
ATOM     25  H   UNL     1       3.988   0.407   2.896  0.00  0.00    -0.089 HD
ENDBRANCH  15  22
ENDBRANCH  14  15
ENDBRANCH   1  14
TORSDOF 5
