REMARK  Name = ZINC66518320
REMARK  6 active torsions:
REMARK  status: ('A' for Active; 'I' for Inactive)
REMARK    1  A    between atoms: C_3  and  N_26
REMARK    2  A    between atoms: C_6  and  C_7
REMARK    3  A    between atoms: C_7  and  O_8
REMARK    4  A    between atoms: O_8  and  C_9
REMARK    5  A    between atoms: C_9  and  C_11
REMARK    6  A    between atoms: N_15  and  C_18
REMARK                            x       y       z     vdW  Elec       q    Type
REMARK                         _______ _______ _______ _____ _____    ______ ____
ROOT
ATOM      1  C   UNL     1      -3.368  -1.979  -2.892  0.00  0.00    +0.185 C 
ATOM      2  C   UNL     1      -4.670  -2.810  -2.831  0.00  0.00    +0.043 C 
ATOM      3  C   UNL     1      -4.508  -3.742  -4.053  0.00  0.00    +0.115 C 
ATOM      4  N   UNL     1      -3.061  -3.848  -4.274  0.00  0.00    -0.271 N 
ATOM      5  C   UNL     1      -2.394  -2.864  -3.640  0.00  0.00    +0.234 C 
ATOM      6  O   UNL     1      -1.192  -2.710  -3.662  0.00  0.00    -0.274 OA
ENDROOT
BRANCH   4   7
ATOM      7  C   UNL     1      -2.450  -4.842  -5.048  0.00  0.00    +0.039 A 
ATOM      8  C   UNL     1      -3.226  -5.811  -5.671  0.00  0.00    +0.026 A 
ATOM      9  C   UNL     1      -2.623  -6.793  -6.434  0.00  0.00    +0.043 A 
ATOM     10  C   UNL     1      -1.247  -6.811  -6.579  0.00  0.00    +0.159 A 
ATOM     11  C   UNL     1      -0.470  -5.845  -5.957  0.00  0.00    +0.160 A 
ATOM     12  C   UNL     1      -1.071  -4.858  -5.197  0.00  0.00    +0.064 A 
ATOM     13  F   UNL     1       0.874  -5.865  -6.099  0.00  0.00    -0.202 F 
ATOM     14  F   UNL     1      -0.659  -7.772  -7.325  0.00  0.00    -0.202 F 
ENDBRANCH   4   7
BRANCH   1  15
ATOM     15  C   UNL     1      -2.860  -1.692  -1.503  0.00  0.00    +0.320 C 
ATOM     16  O   UNL     1      -3.483  -2.074  -0.541  0.00  0.00    -0.250 OA
BRANCH  15  17
ATOM     17  O   UNL     1      -1.715  -1.012  -1.334  0.00  0.00    -0.459 OA
BRANCH  17  18
ATOM     18  C   UNL     1      -1.293  -0.775   0.010  0.00  0.00    +0.267 C 
BRANCH  18  24
ATOM     19  C   UNL     1      -0.017   1.378   0.010  0.00  0.00    +0.009 A 
ATOM     20  C   UNL     1       1.171   2.086   0.002  0.00  0.00    +0.033 A 
ATOM     21  C   UNL     1       2.377   1.411  -0.013  0.00  0.00    +0.126 A 
ATOM     22  C   UNL     1       2.396   0.029  -0.020  0.00  0.00    +0.033 A 
ATOM     23  C   UNL     1       1.208  -0.679  -0.012  0.00  0.00    +0.009 A 
ATOM     24  C   UNL     1       0.002  -0.004   0.002  0.00  0.00    -0.010 A 
BRANCH  21  25
ATOM     25  N   UNL     1       3.649   2.168  -0.022  0.00  0.00    +0.056 N 
ATOM     26  O   UNL     1       3.633   3.377  -0.016  0.00  0.00    -0.126 OA
ATOM     27  O   UNL     1       4.704   1.578  -0.035  0.00  0.00    -0.126 OA
ENDBRANCH  21  25
ENDBRANCH  18  24
ENDBRANCH  17  18
ENDBRANCH  15  17
ENDBRANCH   1  15
TORSDOF 6
