REMARK  Name = ZINC08816810
REMARK  6 active torsions:
REMARK  status: ('A' for Active; 'I' for Inactive)
REMARK    1  A    between atoms: C_1  and  C_2
REMARK    2  A    between atoms: C_2  and  C_3
REMARK    3  A    between atoms: C_4  and  C_33
REMARK    4  A    between atoms: C_5  and  C_31
REMARK    5  A    between atoms: C_15  and  N_16
REMARK    6  A    between atoms: C_21  and  N_69
REMARK                            x       y       z     vdW  Elec       q    Type
REMARK                         _______ _______ _______ _____ _____    ______ ____
ROOT
ATOM      1  C   UNL     1       4.504   0.100  -0.105  0.00  0.00    -0.005 A 
ATOM      2  C   UNL     1       5.307   1.232  -0.109  0.00  0.00    -0.023 A 
ATOM      3  C   UNL     1       4.715   2.493  -0.031  0.00  0.00    +0.098 A 
ATOM      4  C   UNL     1       3.253   2.581   0.051  0.00  0.00    +0.158 A 
ATOM      5  N   UNL     1       2.441   3.619   0.132  0.00  0.00    -0.226 NA
ATOM      6  C   UNL     1       1.157   3.191   0.187  0.00  0.00    +0.090 A 
ATOM      7  C   UNL     1      -0.072   3.854   0.277  0.00  0.00    +0.030 A 
ATOM      8  C   UNL     1      -1.232   3.134   0.315  0.00  0.00    +0.002 A 
ATOM      9  C   UNL     1      -1.207   1.747   0.259  0.00  0.00    +0.002 A 
ATOM     10  C   UNL     1      -0.007   1.073   0.176  0.00  0.00    +0.028 A 
ATOM     11  C   UNL     1       1.182   1.786   0.136  0.00  0.00    +0.075 A 
ATOM     12  N   UNL     1       2.515   1.422   0.051  0.00  0.00    -0.279 N 
ATOM     13  C   UNL     1       3.133   0.206  -0.026  0.00  0.00    +0.111 A 
ATOM     14  C   UNL     1       6.805   1.100  -0.196  0.00  0.00    +0.045 C 
ENDROOT
BRANCH  13  15
ATOM     15  N   UNL     1       2.370  -0.936  -0.024  0.00  0.00    -0.320 N 
ATOM     16  C   UNL     1       1.476  -0.974  -1.190  0.00  0.00    +0.088 C 
ATOM     17  C   UNL     1       0.703  -2.295  -1.194  0.00  0.00    -0.059 C 
ATOM     18  C   UNL     1       0.834  -2.379   1.222  0.00  0.00    -0.059 C 
ATOM     19  C   UNL     1       1.607  -1.058   1.226  0.00  0.00    +0.088 C 
ATOM     20  N   UNL     1      -0.077  -2.394   0.058  0.00  0.00    +0.385 N 
ATOM     21  H   UNL     1      -0.712  -1.590   0.120  0.00  0.00    -0.081 HD
BRANCH  20  22
ATOM     22  C   UNL     1      -0.876  -3.638   0.058  0.00  0.00    -0.065 C 
ATOM     23  C   UNL     1       0.039  -4.863   0.013  0.00  0.00    -0.009 C 
ATOM     24  C   UNL     1      -0.811  -6.135   0.014  0.00  0.00    -0.012 C 
ATOM     25  C   UNL     1      -1.727  -6.138  -1.211  0.00  0.00    +0.007 C 
ATOM     26  C   UNL     1      -2.642  -4.913  -1.166  0.00  0.00    -0.012 C 
ATOM     27  C   UNL     1      -1.793  -3.641  -1.168  0.00  0.00    -0.009 C 
ATOM     28  C   UNL     1      -3.492  -4.958   0.106  0.00  0.00    +0.007 C 
ATOM     29  C   UNL     1      -2.575  -4.955   1.331  0.00  0.00    -0.012 C 
ATOM     30  C   UNL     1      -1.660  -6.180   1.286  0.00  0.00    +0.007 C 
ATOM     31  C   UNL     1      -1.726  -3.683   1.330  0.00  0.00    -0.009 C 
ENDBRANCH  20  22
ENDBRANCH  13  15
BRANCH   1  33
ATOM     32  C   UNL     1       5.277  -1.675  -1.655  0.00  0.00    +0.009 C 
ATOM     33  C   UNL     1       5.141  -1.264  -0.187  0.00  0.00    +0.035 C 
ENDBRANCH   1  33
BRANCH   3  34
ATOM     34  C   UNL     1       5.519   3.678  -0.034  0.00  0.00    +0.103 C 
ATOM     35  N   UNL     1       6.156   4.618  -0.036  0.00  0.00    -0.191 NA
ENDBRANCH   3  34
TORSDOF 4
