REMARK  Name = ZINC18936603
REMARK  9 active torsions:
REMARK  status: ('A' for Active; 'I' for Inactive)
REMARK    1  A    between atoms: C_1  and  C_2
REMARK    2  A    between atoms: C_2  and  N_3
REMARK    3  A    between atoms: N_3  and  C_4
REMARK    4  A    between atoms: C_5  and  N_20
REMARK    5  A    between atoms: N_6  and  C_13
REMARK    6  A    between atoms: C_13  and  C_14
REMARK    7  A    between atoms: C_21  and  C_23
REMARK    8  A    between atoms: C_23  and  N_24
REMARK    9  A    between atoms: N_24  and  C_25
REMARK                            x       y       z     vdW  Elec       q    Type
REMARK                         _______ _______ _______ _____ _____    ______ ____
ROOT
ATOM      1  C   UNL     1      -1.924  -0.666  -1.229  0.00  0.00    +0.140 A 
ATOM      2  C   UNL     1      -3.228  -1.078  -1.413  0.00  0.00    +0.128 A 
ATOM      3  N   UNL     1      -3.722  -1.194  -2.691  0.00  0.00    -0.276 N 
ATOM      4  C   UNL     1      -2.942  -0.909  -3.751  0.00  0.00    +0.331 A 
ATOM      5  O   UNL     1      -3.398  -1.019  -4.873  0.00  0.00    -0.246 OA
ATOM      6  N   UNL     1      -1.669  -0.506  -3.591  0.00  0.00    -0.273 N 
ATOM      7  H   UNL     1      -1.128  -0.307  -4.371  0.00  0.00    +0.173 HD
ATOM      8  C   UNL     1      -1.139  -0.371  -2.360  0.00  0.00    +0.277 A 
ATOM      9  O   UNL     1       0.015  -0.000  -2.226  0.00  0.00    -0.266 OA
ENDROOT
BRANCH   1  10
ATOM     10  N   UNL     1      -1.388  -0.538   0.070  0.00  0.00    -0.263 N 
ATOM     11  C   UNL     1      -1.040   0.679   0.539  0.00  0.00    +0.237 C 
ATOM     12  O   UNL     1      -1.277   1.672  -0.117  0.00  0.00    -0.274 OA
BRANCH  10  14
ATOM     13  C   UNL     1       0.135  -2.381   0.586  0.00  0.00    +0.025 C 
ATOM     14  C   UNL     1      -1.210  -1.725   0.909  0.00  0.00    +0.110 C 
ENDBRANCH  10  14
BRANCH  11  15
ATOM     15  C   UNL     1      -0.357   0.804   1.876  0.00  0.00    +0.198 C 
BRANCH  15  16
ATOM     16  N   UNL     1      -0.086   2.216   2.156  0.00  0.00    -0.335 N 
ATOM     17  H   UNL     1      -0.345   2.896   1.515  0.00  0.00    +0.147 HD
BRANCH  16  18
ATOM     18  C   UNL     1       0.546   2.583   3.346  0.00  0.00    +0.027 A 
ATOM     19  C   UNL     1       0.923   1.610   4.263  0.00  0.00    +0.023 A 
ATOM     20  C   UNL     1       1.548   1.976   5.439  0.00  0.00    +0.002 A 
ATOM     21  C   UNL     1       1.798   3.310   5.704  0.00  0.00    +0.000 A 
ATOM     22  C   UNL     1       1.424   4.282   4.794  0.00  0.00    +0.002 A 
ATOM     23  C   UNL     1       0.804   3.922   3.613  0.00  0.00    +0.023 A 
ENDBRANCH  16  18
ENDBRANCH  15  16
ENDBRANCH  11  15
ENDBRANCH   1  10
BRANCH   2  24
ATOM     24  N   UNL     1      -4.024  -1.369  -0.331  0.00  0.00    -0.343 N 
ATOM     25  H   UNL     1      -3.651  -1.350   0.564  0.00  0.00    +0.144 HD
ATOM     26  H   UNL     1      -4.958  -1.595  -0.463  0.00  0.00    +0.144 HD
ENDBRANCH   2  24
BRANCH   3  27
ATOM     27  C   UNL     1      -5.104  -1.630  -2.901  0.00  0.00    +0.163 C 
BRANCH  27  28
ATOM     28  C   UNL     1      -6.012  -0.427  -2.928  0.00  0.00    -0.028 A 
ATOM     29  C   UNL     1      -6.576   0.040  -1.755  0.00  0.00    +0.005 A 
ATOM     30  C   UNL     1      -7.408   1.143  -1.780  0.00  0.00    +0.000 A 
ATOM     31  C   UNL     1      -7.677   1.780  -2.978  0.00  0.00    +0.000 A 
ATOM     32  C   UNL     1      -7.112   1.313  -4.150  0.00  0.00    +0.000 A 
ATOM     33  C   UNL     1      -6.276   0.212  -4.125  0.00  0.00    +0.005 A 
ENDBRANCH  27  28
ENDBRANCH   3  27
TORSDOF 8
