REMARK  Name = ZINC00924866
REMARK  6 active torsions:
REMARK  status: ('A' for Active; 'I' for Inactive)
REMARK    1  A    between atoms: C_1  and  C_2
REMARK    2  A    between atoms: C_7  and  C_14
REMARK    3  A    between atoms: C_14  and  N_15
REMARK    4  A    between atoms: N_15  and  C_16
REMARK    5  A    between atoms: N_15  and  S_22
REMARK    6  A    between atoms: S_22  and  C_25
REMARK                            x       y       z     vdW  Elec       q    Type
REMARK                         _______ _______ _______ _____ _____    ______ ____
ROOT
ATOM      1  N   UNL     1       4.149  -1.194  -1.553  0.00  0.00    -0.169 NA
ENDROOT
BRANCH   1   2
ATOM      2  C   UNL     1       4.994  -0.232  -2.266  0.00  0.00    +0.080 C 
ATOM      3  C   UNL     1       4.198   0.391  -3.414  0.00  0.00    +0.020 C 
ATOM      4  C   UNL     1       5.080   1.395  -4.160  0.00  0.00    +0.002 C 
ATOM      5  C   UNL     1       6.308   0.677  -4.721  0.00  0.00    +0.000 C 
ATOM      6  C   UNL     1       7.104   0.053  -3.573  0.00  0.00    +0.002 C 
ATOM      7  C   UNL     1       6.222  -0.951  -2.828  0.00  0.00    +0.020 C 
ENDBRANCH   1   2
BRANCH   1   8
ATOM      8  S   UNL     1       3.695  -0.895   0.012  0.00  0.00    +0.062 S 
ATOM      9  O   UNL     1       4.586   0.091   0.512  0.00  0.00    -0.153 OA
ATOM     10  O   UNL     1       3.531  -2.161   0.636  0.00  0.00    -0.153 OA
BRANCH   8  11
ATOM     11  C   UNL     1       2.099  -0.151  -0.043  0.00  0.00    +0.109 A 
ATOM     12  C   UNL     1       0.969  -0.945  -0.108  0.00  0.00    +0.032 A 
ATOM     13  C   UNL     1      -0.285  -0.365  -0.152  0.00  0.00    +0.051 A 
ATOM     14  C   UNL     1      -0.413   1.016  -0.130  0.00  0.00    +0.162 A 
ATOM     15  C   UNL     1       0.723   1.814  -0.062  0.00  0.00    +0.164 A 
ATOM     16  C   UNL     1       1.978   1.226  -0.019  0.00  0.00    +0.078 A 
ATOM     17  O   UNL     1       0.620   3.171  -0.031  0.00  0.00    -0.485 OA
ATOM     18  C   UNL     1      -0.629   3.731  -0.451  0.00  0.00    +0.270 C 
ATOM     19  C   UNL     1      -1.760   2.943   0.222  0.00  0.00    +0.270 C 
ATOM     20  O   UNL     1      -1.653   1.573  -0.182  0.00  0.00    -0.485 OA
ENDBRANCH   8  11
ENDBRANCH   1   8
BRANCH   1  21
ATOM     21  C   UNL     1       3.707  -2.419  -2.223  0.00  0.00    +0.150 C 
BRANCH  21  28
ATOM     22  C   UNL     1       6.072  -8.794   1.946  0.00  0.00    +0.044 C 
ATOM     23  C   UNL     1       5.428  -7.604   1.283  0.00  0.00    -0.048 A 
ATOM     24  C   UNL     1       4.155  -7.209   1.669  0.00  0.00    +0.004 A 
ATOM     25  C   UNL     1       3.553  -6.133   1.081  0.00  0.00    +0.010 A 
ATOM     26  C   UNL     1       4.226  -5.423   0.081  0.00  0.00    -0.001 A 
ATOM     27  C   UNL     1       3.613  -4.261  -0.566  0.00  0.00    +0.020 A 
ATOM     28  C   UNL     1       4.311  -3.615  -1.533  0.00  0.00    +0.033 A 
ATOM     29  C   UNL     1       5.603  -4.055  -1.891  0.00  0.00    +0.254 A 
ATOM     30  O   UNL     1       6.215  -3.457  -2.759  0.00  0.00    -0.268 OA
ATOM     31  N   UNL     1       6.176  -5.118  -1.299  0.00  0.00    -0.322 N 
ATOM     32  H   UNL     1       7.066  -5.394  -1.569  0.00  0.00    +0.169 HD
ATOM     33  C   UNL     1       5.517  -5.821  -0.314  0.00  0.00    +0.049 A 
ATOM     34  C   UNL     1       6.110  -6.920   0.299  0.00  0.00    +0.029 A 
ENDBRANCH  21  28
ENDBRANCH   1  21
TORSDOF 5
