REMARK  Name = ZINC00891396
REMARK  7 active torsions:
REMARK  status: ('A' for Active; 'I' for Inactive)
REMARK    1  A    between atoms: C_3  and  N_8
REMARK    2  A    between atoms: N_8  and  C_9
REMARK    3  A    between atoms: C_9  and  N_11
REMARK    4  A    between atoms: N_11  and  C_12
REMARK    5  A    between atoms: N_11  and  C_22
REMARK    6  A    between atoms: C_12  and  C_13
REMARK    7  A    between atoms: C_22  and  C_23
REMARK                            x       y       z     vdW  Elec       q    Type
REMARK                         _______ _______ _______ _____ _____    ______ ____
ROOT
ATOM      1  N   UNL     1       6.053   2.171   0.175  0.00  0.00    -0.304 N 
ENDROOT
BRANCH   1   2
ATOM      2  C   UNL     1       4.990   1.382  -0.075  0.00  0.00    +0.138 C 
ATOM      3  S   UNL     1       5.175  -0.320  -0.106  0.00  0.00    -0.018 S 
BRANCH   2   4
ATOM      4  N   UNL     1       3.780   1.933  -0.301  0.00  0.00    -0.297 N 
ATOM      5  H   UNL     1       3.688   2.897  -0.353  0.00  0.00    +0.154 HD
BRANCH   4   8
ATOM      6  C   UNL     1       1.375  -0.804   0.199  0.00  0.00    +0.003 A 
ATOM      7  C   UNL     1       2.485   0.003   0.357  0.00  0.00    +0.023 A 
ATOM      8  C   UNL     1       2.657   1.113  -0.459  0.00  0.00    +0.034 A 
ATOM      9  C   UNL     1       1.713   1.409  -1.433  0.00  0.00    +0.043 A 
ATOM     10  C   UNL     1       0.604   0.598  -1.587  0.00  0.00    +0.043 A 
ATOM     11  C   UNL     1       0.436  -0.508  -0.771  0.00  0.00    +0.020 A 
ATOM     12 CL   UNL     1      -0.578   0.966  -2.804  0.00  0.00    -0.083 Cl
ENDBRANCH   4   8
ENDBRANCH   2   4
ENDBRANCH   1   2
BRANCH   1  13
ATOM     13  C   UNL     1       7.382   1.578   0.345  0.00  0.00    +0.142 C 
BRANCH  13  14
ATOM     14  C   UNL     1       8.072   1.500  -0.993  0.00  0.00    -0.026 A 
ATOM     15  C   UNL     1       7.919   0.377  -1.784  0.00  0.00    +0.009 A 
ATOM     16  C   UNL     1       8.549   0.302  -3.012  0.00  0.00    +0.050 A 
ATOM     17  C   UNL     1       9.337   1.353  -3.453  0.00  0.00    +0.166 A 
ATOM     18  C   UNL     1       9.492   2.485  -2.655  0.00  0.00    +0.167 A 
ATOM     19  C   UNL     1       8.852   2.555  -1.428  0.00  0.00    +0.054 A 
ATOM     20  O   UNL     1      10.306   3.367  -3.304  0.00  0.00    -0.453 OA
ATOM     21  C   UNL     1      10.976   2.598  -4.320  0.00  0.00    +0.466 C 
ATOM     22  O   UNL     1      10.055   1.527  -4.601  0.00  0.00    -0.453 OA
ENDBRANCH  13  14
ENDBRANCH   1  13
BRANCH   1  23
ATOM     23  C   UNL     1       5.880   3.622   0.278  0.00  0.00    +0.147 C 
BRANCH  23  24
ATOM     24  C   UNL     1       5.701   4.006   1.724  0.00  0.00    +0.035 A 
ATOM     25  C   UNL     1       6.774   4.394   2.459  0.00  0.00    +0.020 A 
ATOM     26  C   UNL     1       6.566   4.760   3.859  0.00  0.00    +0.003 A 
ATOM     27  C   UNL     1       7.636   5.166   4.666  0.00  0.00    +0.059 A 
ATOM     28  C   UNL     1       7.410   5.508   5.983  0.00  0.00    +0.163 A 
ATOM     29  C   UNL     1       6.118   5.450   6.513  0.00  0.00    +0.164 A 
ATOM     30  C   UNL     1       5.055   5.047   5.723  0.00  0.00    +0.075 A 
ATOM     31  C   UNL     1       5.266   4.700   4.396  0.00  0.00    +0.053 A 
ATOM     32  N   UNL     1       4.217   4.297   3.594  0.00  0.00    -0.322 N 
ATOM     33  H   UNL     1       3.321   4.255   3.964  0.00  0.00    +0.169 HD
ATOM     34  C   UNL     1       4.418   3.967   2.306  0.00  0.00    +0.254 A 
ATOM     35  O   UNL     1       3.467   3.620   1.626  0.00  0.00    -0.268 OA
ATOM     36  O   UNL     1       5.886   5.793   7.809  0.00  0.00    -0.485 OA
ATOM     37  C   UNL     1       7.022   5.833   8.679  0.00  0.00    +0.270 C 
ATOM     38  C   UNL     1       8.147   6.594   7.966  0.00  0.00    +0.270 C 
ATOM     39  O   UNL     1       8.462   5.898   6.755  0.00  0.00    -0.485 OA
ENDBRANCH  23  24
ENDBRANCH   1  23
TORSDOF 7
