REMARK  Name = ZINC20071790
REMARK  6 active torsions:
REMARK  status: ('A' for Active; 'I' for Inactive)
REMARK    1  A    between atoms: C_3  and  C_8
REMARK    2  A    between atoms: C_12  and  C_23
REMARK    3  A    between atoms: C_13  and  O_22
REMARK    4  A    between atoms: C_17  and  N_21
REMARK    5  A    between atoms: C_18  and  C_19
REMARK    6  A    between atoms: N_24  and  C_25
REMARK                            x       y       z     vdW  Elec       q    Type
REMARK                         _______ _______ _______ _____ _____    ______ ____
ROOT
ATOM      1  C   UNL     1      -4.238   6.722   2.639  0.00  0.00    +0.098 C 
ATOM      2  C   UNL     1      -4.054   5.555   1.704  0.00  0.00    +0.008 A 
ATOM      3  C   UNL     1      -2.852   4.880   1.696  0.00  0.00    +0.021 A 
ATOM      4  C   UNL     1      -2.663   3.795   0.834  0.00  0.00    +0.035 A 
ATOM      5  C   UNL     1      -3.701   3.401  -0.026  0.00  0.00    +0.129 A 
ATOM      6  C   UNL     1      -4.904   4.083  -0.003  0.00  0.00    +0.092 A 
ATOM      7  C   UNL     1      -5.083   5.161   0.857  0.00  0.00    +0.138 A 
ATOM      8  O   UNL     1      -6.269   5.817   0.855  0.00  0.00    -0.441 OA
ATOM      9  C   UNL     1      -6.614   6.583   1.903  0.00  0.00    +0.199 C 
ATOM     10  C   UNL     1      -5.698   7.045   2.786  0.00  0.00    +0.098 C 
ENDROOT
BRANCH   1  13
ATOM     11  C   UNL     1      -3.198   9.530   0.338  0.00  0.00    +0.001 A 
ATOM     12  C   UNL     1      -3.857   8.424   0.844  0.00  0.00    +0.004 A 
ATOM     13  C   UNL     1      -3.515   7.923   2.086  0.00  0.00    -0.034 A 
ATOM     14  C   UNL     1      -2.506   8.520   2.818  0.00  0.00    +0.019 A 
ATOM     15  C   UNL     1      -1.842   9.622   2.310  0.00  0.00    +0.014 A 
ATOM     16  C   UNL     1      -2.189  10.127   1.070  0.00  0.00    +0.014 A 
ATOM     17  I   UNL     1      -0.312  10.527   3.420  0.00  0.00    -0.044 I 
ENDBRANCH   1  13
BRANCH   9  18
ATOM     18  N   UNL     1      -7.935   6.908   2.083  0.00  0.00    -0.328 N 
ATOM     19  H   UNL     1      -8.236   7.535   2.935  0.00  0.00    +0.145 HD
ATOM     20  H   UNL     1      -8.693   6.542   1.375  0.00  0.00    +0.145 HD
ENDBRANCH   9  18
BRANCH  10  21
ATOM     21  C   UNL     1      -6.129   7.857   3.884  0.00  0.00    +0.101 C 
ATOM     22  N   UNL     1      -6.471   8.502   4.754  0.00  0.00    -0.191 NA
ENDBRANCH  10  21
BRANCH   5  23
ATOM     23  O   UNL     1      -3.527   2.354  -0.870  0.00  0.00    -0.506 OA
ATOM     24  H   UNL     1      -4.342   2.048  -1.543  0.00  0.00    +0.292 HD
ENDBRANCH   5  23
BRANCH   4  25
ATOM     25  C   UNL     1      -1.383   3.075   0.824  0.00  0.00    +0.123 C 
ATOM     26  N   UNL     1      -1.210   2.063   0.019  0.00  0.00    -0.255 NA
BRANCH  26  27
ATOM     27  C   UNL     1      -0.017   1.392   0.010  0.00  0.00    +0.067 A 
ATOM     28  C   UNL     1       1.187   2.101   0.002  0.00  0.00    +0.028 A 
ATOM     29  C   UNL     1       2.386   1.419  -0.014  0.00  0.00    +0.005 A 
ATOM     30  C   UNL     1       2.400   0.036  -0.021  0.00  0.00    +0.038 A 
ATOM     31  C   UNL     1       1.210  -0.675  -0.013  0.00  0.00    +0.125 A 
ATOM     32  C   UNL     1       0.002  -0.004   0.002  0.00  0.00    +0.066 A 
ATOM     33  F   UNL     1       1.232  -2.026  -0.021  0.00  0.00    -0.205 F 
ENDBRANCH  26  27
ENDBRANCH   4  25
TORSDOF 6
