REMARK  Name = ZINC67045583
REMARK  4 active torsions:
REMARK  status: ('A' for Active; 'I' for Inactive)
REMARK    1  A    between atoms: C_1  and  C_2
REMARK    2  A    between atoms: C_2  and  C_4
REMARK    3  A    between atoms: C_2  and  N_10
REMARK    4  A    between atoms: C_17  and  C_20
REMARK                            x       y       z     vdW  Elec       q    Type
REMARK                         _______ _______ _______ _____ _____    ______ ____
ROOT
ATOM      1  N   UNL     1      -1.371  -0.515   0.012  0.00  0.00    -0.292 N 
ATOM      2  C   UNL     1      -2.051  -0.643  -1.145  0.00  0.00    +0.303 C 
ATOM      3  O   UNL     1      -1.559  -0.253  -2.186  0.00  0.00    -0.253 OA
ATOM      4  N   UNL     1      -3.277  -1.203  -1.147  0.00  0.00    -0.281 N 
ATOM      5  C   UNL     1      -3.943  -1.573   0.112  0.00  0.00    +0.137 C 
ATOM      6  C   UNL     1      -5.357  -0.982   0.102  0.00  0.00    +0.179 C 
ATOM      7  O   UNL     1      -6.020  -1.368  -1.105  0.00  0.00    -0.369 OA
ATOM      8  C   UNL     1      -5.401  -0.876  -2.296  0.00  0.00    +0.168 C 
ATOM      9  C   UNL     1      -3.991  -1.457  -2.408  0.00  0.00    +0.145 C 
ATOM     10  H   UNL     1      -1.791  -0.760   0.851  0.00  0.00    +0.151 HD
ENDROOT
BRANCH   8  11
ATOM     11  C   UNL     1      -6.216  -1.290  -3.494  0.00  0.00    +0.018 A 
ATOM     12  C   UNL     1      -7.031  -2.404  -3.425  0.00  0.00    +0.009 A 
ATOM     13  C   UNL     1      -7.778  -2.784  -4.524  0.00  0.00    +0.001 A 
ATOM     14  C   UNL     1      -7.711  -2.050  -5.694  0.00  0.00    +0.003 A 
ATOM     15  C   UNL     1      -6.898  -0.935  -5.765  0.00  0.00    +0.039 A 
ATOM     16  C   UNL     1      -6.152  -0.551  -4.663  0.00  0.00    +0.129 A 
ATOM     17  F   UNL     1      -5.360   0.541  -4.730  0.00  0.00    -0.205 F 
ENDBRANCH   8  11
BRANCH   1  19
ATOM     18  C   UNL     1      -0.018   1.522   0.015  0.00  0.00    +0.033 C 
ATOM     19  C   UNL     1       0.004  -0.007   0.001  0.00  0.00    +0.108 C 
BRANCH  19  20
ATOM     20  C   UNL     1       0.735  -0.511   1.219  0.00  0.00    +0.011 A 
ATOM     21  C   UNL     1       2.014  -0.946   1.327  0.00  0.00    +0.014 A 
ATOM     22  C   UNL     1       2.477  -1.367   2.560  0.00  0.00    +0.028 A 
ATOM     23  C   UNL     1       1.637  -1.331   3.624  0.00  0.00    +0.078 A 
ATOM     24  S   UNL     1       0.143  -0.682   2.894  0.00  0.00    -0.080 S 
ATOM     25 CL   UNL     1       1.939  -1.792   5.271  0.00  0.00    -0.076 Cl
ENDBRANCH  19  20
ENDBRANCH   1  19
TORSDOF 3
