REMARK  Name = ZINC39699301
REMARK  10 active torsions:
REMARK  status: ('A' for Active; 'I' for Inactive)
REMARK    1  A    between atoms: C_1  and  C_2
REMARK    2  A    between atoms: C_4  and  C_38
REMARK    3  A    between atoms: C_9  and  C_14
REMARK    4  A    between atoms: C_14  and  C_16
REMARK    5  A    between atoms: C_14  and  N_26
REMARK    6  A    between atoms: N_21  and  C_22
REMARK    7  A    between atoms: C_22  and  C_23
REMARK    8  A    between atoms: C_22  and  C_24
REMARK    9  A    between atoms: C_22  and  C_25
REMARK   10  A    between atoms: N_29  and  C_32
REMARK                            x       y       z     vdW  Elec       q    Type
REMARK                         _______ _______ _______ _____ _____    ______ ____
ROOT
ATOM      1  C   UNL     1      -3.208  -4.743   2.396  0.00  0.00    +0.113 C 
ENDROOT
BRANCH   1  10
ATOM      2  C   UNL     1      -1.579  -0.359  -3.002  0.00  0.00    +0.044 C 
ATOM      3  C   UNL     1      -1.907  -1.708  -2.415  0.00  0.00    -0.050 A 
ATOM      4  C   UNL     1      -2.427  -2.704  -3.242  0.00  0.00    +0.008 A 
ATOM      5  C   UNL     1      -2.746  -3.943  -2.785  0.00  0.00    -0.028 A 
ATOM      6  C   UNL     1      -2.559  -4.275  -1.431  0.00  0.00    +0.043 A 
ATOM      7  N   UNL     1      -2.876  -5.494  -0.994  0.00  0.00    -0.284 N 
ATOM      8  C   UNL     1      -2.726  -5.871   0.265  0.00  0.00    +0.226 C 
ATOM      9  O   UNL     1      -3.033  -6.998   0.605  0.00  0.00    -0.275 OA
ATOM     10  C   UNL     1      -2.173  -4.896   1.279  0.00  0.00    +0.119 C 
ATOM     11  C   UNL     1      -1.811  -3.509   0.787  0.00  0.00    -0.003 C 
ATOM     12  C   UNL     1      -2.012  -3.242  -0.534  0.00  0.00    -0.006 A 
ATOM     13  C   UNL     1      -1.685  -1.930  -1.094  0.00  0.00    +0.012 A 
ATOM     14  C   UNL     1      -3.304  -4.970  -3.737  0.00  0.00    +0.046 C 
ATOM     15  H   UNL     1      -3.232  -6.134  -1.629  0.00  0.00    +0.155 HD
ENDBRANCH   1  10
BRANCH   1  16
ATOM     16  N   UNL     1      -4.375  -4.012   1.885  0.00  0.00    -0.299 NA
ATOM     17  C   UNL     1      -4.712  -4.444   0.521  0.00  0.00    +0.066 C 
ATOM     18  C   UNL     1      -5.965  -3.704   0.049  0.00  0.00    -0.063 C 
ATOM     19  N   UNL     1      -5.718  -2.257   0.075  0.00  0.00    +0.383 N 
ATOM     20  C   UNL     1      -5.407  -1.835   1.447  0.00  0.00    -0.063 C 
ATOM     21  C   UNL     1      -4.149  -2.560   1.931  0.00  0.00    +0.066 C 
ATOM     22  H   UNL     1      -4.939  -2.038  -0.528  0.00  0.00    -0.081 HD
BRANCH  19  23
ATOM     23  C   UNL     1      -6.915  -1.547  -0.396  0.00  0.00    -0.068 C 
ATOM     24  C   UNL     1      -7.238  -1.984  -1.826  0.00  0.00    -0.015 C 
ATOM     25  C   UNL     1      -8.485  -1.245  -2.316  0.00  0.00    -0.002 C 
ATOM     26  C   UNL     1      -8.227   0.263  -2.289  0.00  0.00    -0.000 C 
ATOM     27  C   UNL     1      -7.904   0.700  -0.859  0.00  0.00    -0.002 C 
ATOM     28  C   UNL     1      -6.657  -0.039  -0.369  0.00  0.00    -0.015 C 
ENDBRANCH  19  23
ENDBRANCH   1  16
BRANCH   1  29
ATOM     29  C   UNL     1      -3.645  -6.127   2.880  0.00  0.00    +0.214 C 
ATOM     30  N   UNL     1      -4.878  -6.554   2.194  0.00  0.00    -0.226 N 
ATOM     31  N   UNL     1      -5.841  -6.710   3.199  0.00  0.00    -0.064 NA
ATOM     32  N   UNL     1      -5.403  -6.457   4.317  0.00  0.00    -0.061 NA
ATOM     33  N   UNL     1      -4.050  -6.080   4.298  0.00  0.00    -0.208 N 
ATOM     34  H   UNL     1      -4.999  -6.698   1.242  0.00  0.00    +0.172 HD
BRANCH  33  35
ATOM     35  C   UNL     1      -3.214  -5.715   5.444  0.00  0.00    +0.047 C 
ATOM     36  C   UNL     1      -2.763  -4.260   5.303  0.00  0.00    +0.033 C 
ATOM     37  C   UNL     1      -4.019  -5.877   6.734  0.00  0.00    +0.033 C 
ATOM     38  C   UNL     1      -1.987  -6.628   5.491  0.00  0.00    +0.033 C 
ENDBRANCH  33  35
ENDBRANCH   1  29
TORSDOF 5
