REMARK  Name = ZINC13880185
REMARK  12 active torsions:
REMARK  status: ('A' for Active; 'I' for Inactive)
REMARK    1  A    between atoms: C_1  and  C_2
REMARK    2  A    between atoms: C_5  and  C_8
REMARK    3  A    between atoms: C_8  and  C_10
REMARK    4  A    between atoms: C_8  and  N_22
REMARK    5  A    between atoms: N_12  and  C_13
REMARK    6  A    between atoms: C_16  and  C_19
REMARK    7  A    between atoms: C_19  and  C_20
REMARK    8  A    between atoms: C_19  and  C_21
REMARK    9  A    between atoms: N_22  and  C_23
REMARK   10  A    between atoms: C_23  and  C_24
REMARK   11  A    between atoms: C_29  and  C_31
REMARK   12  A    between atoms: C_31  and  C_32
REMARK                            x       y       z     vdW  Elec       q    Type
REMARK                         _______ _______ _______ _____ _____    ______ ____
ROOT
ATOM      1  C   UNL     1       3.185   2.517   0.043  0.00  0.00    +0.193 C 
ENDROOT
BRANCH   1   6
ATOM      2  C   UNL     1      -1.830   5.351   0.500  0.00  0.00    +0.044 C 
ATOM      3  C   UNL     1      -0.522   4.612   0.381  0.00  0.00    -0.050 A 
ATOM      4  C   UNL     1       0.597   5.262  -0.105  0.00  0.00    +0.004 A 
ATOM      5  C   UNL     1       1.797   4.584  -0.214  0.00  0.00    +0.006 A 
ATOM      6  C   UNL     1       1.877   3.256   0.162  0.00  0.00    -0.018 A 
ATOM      7  C   UNL     1       0.758   2.607   0.649  0.00  0.00    +0.006 A 
ATOM      8  C   UNL     1      -0.442   3.285   0.758  0.00  0.00    +0.004 A 
ENDBRANCH   1   6
BRANCH   1   9
ATOM      9  C   UNL     1       4.126   2.984   1.123  0.00  0.00    +0.242 C 
ATOM     10  O   UNL     1       4.857   3.931   0.922  0.00  0.00    -0.273 OA
ATOM     11  N   UNL     1       4.156   2.350   2.312  0.00  0.00    -0.284 N 
ATOM     12  H   UNL     1       3.607   1.564   2.456  0.00  0.00    +0.155 HD
BRANCH  11  13
ATOM     13  C   UNL     1       4.980   2.826   3.338  0.00  0.00    +0.033 A 
ATOM     14  C   UNL     1       5.577   1.936   4.221  0.00  0.00    +0.023 A 
ATOM     15  C   UNL     1       6.395   2.409   5.228  0.00  0.00    +0.006 A 
ATOM     16  C   UNL     1       6.609   3.768   5.367  0.00  0.00    -0.045 A 
ATOM     17  C   UNL     1       6.011   4.657   4.493  0.00  0.00    +0.006 A 
ATOM     18  C   UNL     1       5.197   4.191   3.479  0.00  0.00    +0.023 A 
BRANCH  16  19
ATOM     19  C   UNL     1       7.496   4.280   6.471  0.00  0.00    +0.013 C 
ATOM     20  C   UNL     1       6.922   3.857   7.825  0.00  0.00    +0.012 C 
ATOM     21  C   UNL     1       8.902   3.698   6.309  0.00  0.00    +0.012 C 
ENDBRANCH  16  19
ENDBRANCH  11  13
ENDBRANCH   1   9
BRANCH   1  22
ATOM     22  N   UNL     1       3.778   2.781  -1.270  0.00  0.00    -0.278 N 
ATOM     23  C   UNL     1       3.778   1.821  -2.216  0.00  0.00    +0.219 C 
ATOM     24  O   UNL     1       3.287   0.738  -1.980  0.00  0.00    -0.275 OA
BRANCH  22  25
ATOM     25  C   UNL     1       4.371   4.090  -1.556  0.00  0.00    +0.183 C 
BRANCH  25  26
ATOM     26  C   UNL     1       5.870   3.956  -1.634  0.00  0.00    +0.122 A 
ATOM     27  C   UNL     1       6.594   3.867  -2.764  0.00  0.00    +0.046 A 
ATOM     28  C   UNL     1       7.949   3.758  -2.374  0.00  0.00    +0.041 A 
ATOM     29  C   UNL     1       7.971   3.780  -1.030  0.00  0.00    +0.195 A 
ATOM     30  O   UNL     1       6.709   3.900  -0.586  0.00  0.00    -0.466 OA
ENDBRANCH  25  26
ENDBRANCH  22  25
BRANCH  23  31
ATOM     31  C   UNL     1       4.388   2.093  -3.567  0.00  0.00    +0.127 C 
BRANCH  31  32
ATOM     32  C   UNL     1       4.257   0.848  -4.446  0.00  0.00    +0.169 C 
ATOM     33  C   UNL     1       4.925   1.070  -5.788  0.00  0.00    +0.241 C 
ATOM     34  O   UNL     1       6.097   1.305  -5.993  0.00  0.00    -0.273 OA
ATOM     35  N   UNL     1       3.946   0.952  -6.707  0.00  0.00    -0.239 N 
ATOM     36  C   UNL     1       2.765   0.688  -6.138  0.00  0.00    +0.307 C 
ATOM     37  O   UNL     1       1.732   0.538  -6.761  0.00  0.00    -0.252 OA
ATOM     38  N   UNL     1       2.846   0.605  -4.794  0.00  0.00    -0.287 N 
ATOM     39  H   UNL     1       4.082   1.046  -7.663  0.00  0.00    +0.159 HD
ATOM     40  H   UNL     1       2.120   0.422  -4.177  0.00  0.00    +0.151 HD
ENDBRANCH  31  32
ENDBRANCH  23  31
ENDBRANCH   1  22
TORSDOF 9
