REMARK  Name = ZINC40045970
REMARK  5 active torsions:
REMARK  status: ('A' for Active; 'I' for Inactive)
REMARK    1  A    between atoms: C_1  and  C_2
REMARK    2  A    between atoms: C_2  and  C_3
REMARK    3  A    between atoms: C_17  and  C_19
REMARK    4  A    between atoms: C_22  and  O_25
REMARK    5  A    between atoms: C_31  and  C_35
REMARK                            x       y       z     vdW  Elec       q    Type
REMARK                         _______ _______ _______ _____ _____    ______ ____
ROOT
ATOM      1  C   UNL     1       0.731  -0.503   1.223  0.00  0.00    -0.047 A 
ATOM      2  C   UNL     1       2.103  -0.710   1.173  0.00  0.00    +0.007 A 
ATOM      3  C   UNL     1       2.787  -1.169   2.276  0.00  0.00    +0.047 A 
ATOM      4  C   UNL     1       2.104  -1.431   3.463  0.00  0.00    +0.139 A 
ATOM      5  C   UNL     1       0.717  -1.213   3.504  0.00  0.00    +0.065 A 
ATOM      6  C   UNL     1       0.040  -0.746   2.377  0.00  0.00    +0.019 A 
ATOM      7  C   UNL     1      -0.017  -1.474   4.768  0.00  0.00    +0.199 A 
ATOM      8  O   UNL     1      -1.233  -1.474   4.846  0.00  0.00    -0.287 OA
ATOM      9  C   UNL     1       0.861  -1.734   5.913  0.00  0.00    +0.072 A 
ATOM     10  C   UNL     1       2.204  -1.921   5.743  0.00  0.00    +0.199 A 
ATOM     11  O   UNL     1       2.795  -1.888   4.532  0.00  0.00    -0.450 OA
ATOM     12  C   UNL     1       2.810  -2.148   7.066  0.00  0.00    +0.289 C 
ATOM     13  O   UNL     1       3.992  -2.345   7.265  0.00  0.00    -0.266 OA
ATOM     14  N   UNL     1       1.862  -2.106   8.024  0.00  0.00    -0.232 N 
ATOM     15  C   UNL     1       0.567  -1.845   7.373  0.00  0.00    +0.151 C 
ATOM     16  C   UNL     1       2.069  -2.279   9.381  0.00  0.00    +0.169 A 
ATOM     17  N   UNL     1       1.192  -2.256  10.358  0.00  0.00    -0.224 NA
ATOM     18  C   UNL     1       1.538  -2.441  11.649  0.00  0.00    +0.080 A 
ATOM     19  C   UNL     1       0.699  -2.440  12.788  0.00  0.00    +0.029 A 
ATOM     20  C   UNL     1       1.217  -2.646  14.040  0.00  0.00    +0.005 A 
ATOM     21  C   UNL     1       2.574  -2.862  14.237  0.00  0.00    -0.049 A 
ATOM     22  C   UNL     1       3.424  -2.869  13.146  0.00  0.00    +0.020 A 
ATOM     23  C   UNL     1       2.914  -2.664  11.888  0.00  0.00    +0.041 A 
ATOM     24  S   UNL     1       3.598  -2.598  10.250  0.00  0.00    -0.052 S 
ATOM     25  C   UNL     1       3.115  -3.084  15.625  0.00  0.00    +0.044 C 
ENDROOT
BRANCH  15  26
ATOM     26  C   UNL     1      -0.021  -0.555   7.885  0.00  0.00    -0.022 A 
ATOM     27  C   UNL     1       0.806   0.515   8.171  0.00  0.00    +0.009 A 
ATOM     28  C   UNL     1       0.269   1.698   8.641  0.00  0.00    +0.046 A 
ATOM     29  C   UNL     1      -1.101   1.812   8.825  0.00  0.00    +0.117 A 
ATOM     30  C   UNL     1      -1.929   0.737   8.536  0.00  0.00    +0.046 A 
ATOM     31  C   UNL     1      -1.388  -0.443   8.062  0.00  0.00    +0.009 A 
BRANCH  29  32
ATOM     32  O   UNL     1      -1.632   2.974   9.287  0.00  0.00    -0.507 OA
ATOM     33  H   UNL     1      -1.872   3.601   8.591  0.00  0.00    +0.292 HD
ENDBRANCH  29  32
ENDBRANCH  15  26
BRANCH   1  35
ATOM     34  C   UNL     1      -0.019   1.526   0.010  0.00  0.00    +0.009 C 
ATOM     35  C   UNL     1       0.002  -0.004   0.002  0.00  0.00    +0.032 C 
ENDBRANCH   1  35
TORSDOF 3
