REMARK  Name = ZINC12470597
REMARK  13 active torsions:
REMARK  status: ('A' for Active; 'I' for Inactive)
REMARK    1  A    between atoms: C_1  and  C_2
REMARK    2  A    between atoms: C_2  and  C_3
REMARK    3  A    between atoms: C_2  and  C_4
REMARK    4  A    between atoms: C_2  and  N_5
REMARK    5  A    between atoms: C_6  and  C_8
REMARK    6  A    between atoms: C_8  and  C_10
REMARK    7  A    between atoms: C_8  and  N_17
REMARK    8  A    between atoms: C_13  and  O_16
REMARK    9  A    between atoms: N_17  and  C_18
REMARK   10  A    between atoms: C_18  and  C_19
REMARK   11  A    between atoms: C_25  and  C_27
REMARK   12  A    between atoms: C_27  and  N_28
REMARK   13  A    between atoms: C_30  and  C_33
REMARK                            x       y       z     vdW  Elec       q    Type
REMARK                         _______ _______ _______ _____ _____    ______ ____
ROOT
ATOM      1  N   UNL     1       3.319   1.648   3.872  0.00  0.00    -0.282 N 
ATOM      2  C   UNL     1       4.508   1.040   4.052  0.00  0.00    +0.240 C 
ATOM      3  O   UNL     1       4.571  -0.171   4.089  0.00  0.00    -0.273 OA
ENDROOT
BRANCH   1   4
ATOM      4  C   UNL     1       2.102   0.846   3.721  0.00  0.00    +0.192 C 
BRANCH   4   5
ATOM      5  C   UNL     1       1.896   0.009   4.957  0.00  0.00    -0.018 A 
ATOM      6  C   UNL     1       2.306   0.485   6.189  0.00  0.00    +0.009 A 
ATOM      7  C   UNL     1       2.113  -0.279   7.325  0.00  0.00    +0.046 A 
ATOM      8  C   UNL     1       1.519  -1.528   7.226  0.00  0.00    +0.117 A 
ATOM      9  C   UNL     1       1.114  -2.006   5.988  0.00  0.00    +0.046 A 
ATOM     10  C   UNL     1       1.304  -1.236   4.857  0.00  0.00    +0.009 A 
BRANCH   8  11
ATOM     11  O   UNL     1       1.333  -2.283   8.341  0.00  0.00    -0.507 OA
ATOM     12  H   UNL     1       2.073  -2.871   8.546  0.00  0.00    +0.292 HD
ENDBRANCH   8  11
ENDBRANCH   4   5
BRANCH   4  14
ATOM     13  N   UNL     1       0.047   1.534   2.529  0.00  0.00    -0.309 N 
ATOM     14  C   UNL     1       0.919   1.760   3.531  0.00  0.00    +0.238 C 
ATOM     15  O   UNL     1       0.751   2.699   4.280  0.00  0.00    -0.273 OA
ATOM     16  H   UNL     1       0.181   0.783   1.929  0.00  0.00    +0.149 HD
BRANCH  13  18
ATOM     17  C   UNL     1      -0.610   3.849   2.091  0.00  0.00    +0.031 C 
ATOM     18  C   UNL     1      -1.103   2.422   2.344  0.00  0.00    +0.026 C 
ATOM     19  C   UNL     1      -1.973   2.399   3.602  0.00  0.00    +0.031 C 
ATOM     20  C   UNL     1      -1.927   1.947   1.145  0.00  0.00    +0.031 C 
ENDBRANCH  13  18
ENDBRANCH   4  14
ENDBRANCH   1   4
BRANCH   1  21
ATOM     21  C   UNL     1       3.243   3.110   3.826  0.00  0.00    +0.140 C 
BRANCH  21  22
ATOM     22  C   UNL     1       3.096   3.657   5.247  0.00  0.00    +0.136 C 
ATOM     23  C   UNL     1       2.891   5.188   5.216  0.00  0.00    +0.035 C 
ATOM     24  C   UNL     1       3.675   5.698   6.446  0.00  0.00    +0.031 C 
ATOM     25  C   UNL     1       4.260   4.414   7.076  0.00  0.00    +0.160 C 
ATOM     26  O   UNL     1       4.319   3.462   5.990  0.00  0.00    -0.375 OA
ENDBRANCH  21  22
ENDBRANCH   1  21
BRANCH   2  27
ATOM     27  C   UNL     1       5.760   1.864   4.206  0.00  0.00    +0.264 C 
BRANCH  27  28
ATOM     28  N   UNL     1       6.911   0.976   4.387  0.00  0.00    -0.154 N 
ATOM     29  N   UNL     1       7.354   0.553   5.521  0.00  0.00    -0.129 NA
ATOM     30  C   UNL     1       8.394  -0.224   5.283  0.00  0.00    +0.211 A 
ATOM     31  N   UNL     1       8.562  -0.242   3.951  0.00  0.00    -0.107 NA
ATOM     32  N   UNL     1       7.640   0.500   3.439  0.00  0.00    -0.045 NA
BRANCH  30  33
ATOM     33  C   UNL     1       9.217  -0.932   6.287  0.00  0.00    +0.060 A 
ATOM     34  C   UNL     1      10.301  -1.746   6.096  0.00  0.00    +0.019 A 
ATOM     35  C   UNL     1      10.918  -2.298   7.197  0.00  0.00    +0.008 A 
ATOM     36  C   UNL     1      10.427  -2.029   8.434  0.00  0.00    +0.046 A 
ATOM     37  S   UNL     1       9.051  -0.954   8.065  0.00  0.00    -0.093 S 
ENDBRANCH  30  33
ENDBRANCH  27  28
ENDBRANCH   2  27
TORSDOF 10
