REMARK  Name = ZINC43286579
REMARK  9 active torsions:
REMARK  status: ('A' for Active; 'I' for Inactive)
REMARK    1  A    between atoms: C_1  and  C_2
REMARK    2  A    between atoms: C_2  and  C_3
REMARK    3  A    between atoms: C_3  and  C_5
REMARK    4  A    between atoms: C_3  and  N_21
REMARK    5  A    between atoms: C_5  and  C_7
REMARK    6  A    between atoms: C_5  and  N_13
REMARK    7  A    between atoms: N_13  and  C_14
REMARK    8  A    between atoms: N_13  and  C_15
REMARK    9  A    between atoms: C_15  and  C_16
REMARK                            x       y       z     vdW  Elec       q    Type
REMARK                         _______ _______ _______ _____ _____    ______ ____
ROOT
ATOM      1  C   UNL     1      -1.337  -1.938  -0.140  0.00  0.00    -0.046 C 
ENDROOT
BRANCH   1   2
ATOM      2  C   UNL     1      -2.716  -2.542  -0.202  0.00  0.00    -0.024 A 
ATOM      3  C   UNL     1      -3.487  -3.015   0.807  0.00  0.00    +0.024 A 
ATOM      4  C   UNL     1      -4.735  -3.531   0.512  0.00  0.00    +0.025 A 
ATOM      5  C   UNL     1      -5.151  -3.548  -0.778  0.00  0.00    +0.060 A 
ATOM      6  S   UNL     1      -3.761  -2.813  -1.624  0.00  0.00    -0.102 S 
ATOM      7 BR   UNL     1      -5.845  -4.203   1.888  0.00  0.00    -0.050 Br
ENDBRANCH   1   2
BRANCH   1   8
ATOM      8  N   UNL     1      -0.542  -2.412  -1.282  0.00  0.00    +0.384 N 
ATOM      9  C   UNL     1      -0.525  -3.881  -1.290  0.00  0.00    -0.095 C 
ATOM     10  H   UNL     1      -0.953  -2.076  -2.140  0.00  0.00    -0.081 HD
BRANCH   8  11
ATOM     11  C   UNL     1       0.832  -1.907  -1.165  0.00  0.00    -0.039 C 
BRANCH  11  12
ATOM     12  C   UNL     1       1.608  -2.272  -2.404  0.00  0.00    -0.026 A 
ATOM     13  C   UNL     1       2.355  -3.455  -2.612  0.00  0.00    +0.043 A 
ATOM     14  C   UNL     1       2.881  -3.372  -3.847  0.00  0.00    +0.195 A 
ATOM     15  O   UNL     1       2.495  -2.208  -4.395  0.00  0.00    -0.471 OA
ATOM     16  C   UNL     1       1.718  -1.540  -3.527  0.00  0.00    +0.196 A 
ENDBRANCH  11  12
ENDBRANCH   8  11
ENDBRANCH   1   8
BRANCH   1  17
ATOM     17  C   UNL     1      -1.445  -0.413  -0.193  0.00  0.00    -0.085 C 
BRANCH  17  18
ATOM     18  N   UNL     1      -2.169  -0.015  -1.408  0.00  0.00    +0.379 N 
ATOM     19  H   UNL     1      -2.240   0.991  -1.442  0.00  0.00    -0.090 HD
ATOM     20  H   UNL     1      -1.670  -0.345  -2.220  0.00  0.00    -0.090 HD
ATOM     21  H   UNL     1      -3.094  -0.418  -1.395  0.00  0.00    -0.090 HD
ENDBRANCH  17  18
BRANCH  17  23
ATOM     22  C   UNL     1      -2.222   1.617   1.039  0.00  0.00    +0.002 C 
ATOM     23  C   UNL     1      -2.202   0.087   1.039  0.00  0.00    -0.021 C 
ENDBRANCH  17  23
ENDBRANCH   1  17
TORSDOF 7
