REMARK  Name = ZINC21137098
REMARK  7 active torsions:
REMARK  status: ('A' for Active; 'I' for Inactive)
REMARK    1  A    between atoms: C_1  and  N_2
REMARK    2  A    between atoms: C_3  and  C_24
REMARK    3  A    between atoms: C_6  and  S_7
REMARK    4  A    between atoms: S_7  and  C_8
REMARK    5  A    between atoms: C_8  and  C_9
REMARK    6  A    between atoms: N_11  and  C_12
REMARK    7  A    between atoms: C_13  and  C_21
REMARK                            x       y       z     vdW  Elec       q    Type
REMARK                         _______ _______ _______ _____ _____    ______ ____
ROOT
ATOM      1  C   UNL     1      -2.827  -5.495   0.785  0.00  0.00    +0.173 C 
ENDROOT
BRANCH   1   2
ATOM      2  C   UNL     1      -2.285  -4.098   0.635  0.00  0.00    +0.228 C 
ATOM      3  O   UNL     1      -3.005  -3.143   0.837  0.00  0.00    -0.275 OA
ATOM      4  N   UNL     1      -0.999  -3.909   0.277  0.00  0.00    -0.279 N 
ATOM      5  H   UNL     1      -0.346  -4.775   0.094  0.00  0.00    +0.155 HD
BRANCH   4   6
ATOM      6  C   UNL     1      -0.500  -2.623   0.139  0.00  0.00    +0.084 A 
ATOM      7  C   UNL     1       0.782  -2.229  -0.218  0.00  0.00    +0.068 A 
ATOM      8  C   UNL     1       1.051  -0.803  -0.291  0.00  0.00    -0.023 A 
ATOM      9  C   UNL     1       0.002  -0.004   0.002  0.00  0.00    -0.004 A 
ATOM     10  S   UNL     1      -1.325  -1.117   0.370  0.00  0.00    -0.077 S 
ATOM     11  C   UNL     1      -0.018   1.493   0.010  0.00  0.00    +0.043 C 
ATOM     12  C   UNL     1       1.433   1.997  -0.001  0.00  0.00    +0.005 C 
ATOM     13  C   UNL     1       2.207   1.245  -1.087  0.00  0.00    +0.005 C 
ATOM     14  C   UNL     1       2.404  -0.214  -0.669  0.00  0.00    +0.037 C 
BRANCH   7  15
ATOM     15  C   UNL     1       1.827  -3.216  -0.510  0.00  0.00    +0.244 C 
ATOM     16  O   UNL     1       2.543  -3.626   0.384  0.00  0.00    -0.270 OA
ATOM     17  N   UNL     1       1.993  -3.668  -1.769  0.00  0.00    -0.325 N 
ATOM     18  H   UNL     1       2.777  -4.408  -1.988  0.00  0.00    +0.145 HD
ATOM     19  H   UNL     1       1.345  -3.297  -2.577  0.00  0.00    +0.145 HD
ENDBRANCH   7  15
ENDBRANCH   4   6
ENDBRANCH   1   2
BRANCH   1  20
ATOM     20  S   UNL     1      -4.569  -5.418   1.270  0.00  0.00    -0.077 S 
BRANCH  20  26
ATOM     21  C   UNL     1      -7.374  -6.987   2.051  0.00  0.00    +0.153 C 
ATOM     22  N   UNL     1      -6.138  -7.694   1.705  0.00  0.00    -0.306 N 
ATOM     23  C   UNL     1      -5.948  -9.047   1.650  0.00  0.00    +0.178 A 
ATOM     24  N   UNL     1      -4.709  -9.251   1.304  0.00  0.00    -0.130 NA
ATOM     25  N   UNL     1      -4.108  -8.128   1.133  0.00  0.00    -0.122 NA
ATOM     26  C   UNL     1      -4.936  -7.138   1.371  0.00  0.00    +0.192 A 
BRANCH  23  27
ATOM     27  C   UNL     1      -6.981 -10.106   1.937  0.00  0.00    +0.278 C 
ATOM     28  C   UNL     1      -7.448 -10.744   0.621  0.00  0.00    +0.281 C 
ATOM     29  O   UNL     1      -8.416 -11.752   0.930  0.00  0.00    -0.484 OA
ATOM     30  C   UNL     1      -8.108 -12.606   1.944  0.00  0.00    +0.162 A 
ATOM     31  C   UNL     1      -8.804 -13.800   2.064  0.00  0.00    +0.049 A 
ATOM     32  C   UNL     1      -8.505 -14.676   3.090  0.00  0.00    +0.004 A 
ATOM     33  C   UNL     1      -7.512 -14.364   4.000  0.00  0.00    +0.004 A 
ATOM     34  C   UNL     1      -6.814 -13.177   3.886  0.00  0.00    +0.049 A 
ATOM     35  C   UNL     1      -7.108 -12.294   2.857  0.00  0.00    +0.163 A 
ATOM     36  O   UNL     1      -6.408 -11.132   2.755  0.00  0.00    -0.474 OA
ENDBRANCH  23  27
ENDBRANCH  20  26
ENDBRANCH   1  20
TORSDOF 6
