REMARK  Name = ZINC18165195
REMARK  5 active torsions:
REMARK  status: ('A' for Active; 'I' for Inactive)
REMARK    1  A    between atoms: C_1  and  C_2
REMARK    2  A    between atoms: C_4  and  C_34
REMARK    3  A    between atoms: C_9  and  N_27
REMARK    4  A    between atoms: N_10  and  C_11
REMARK    5  A    between atoms: N_27  and  C_28
REMARK                            x       y       z     vdW  Elec       q    Type
REMARK                         _______ _______ _______ _____ _____    ______ ____
ROOT
ATOM      1  C   UNL     1       0.354   0.628  -0.598  0.00  0.00    +0.066 C 
ATOM      2  C   UNL     1      -0.028  -0.789  -0.257  0.00  0.00    +0.044 A 
ATOM      3  C   UNL     1      -0.193  -1.732  -1.259  0.00  0.00    +0.046 A 
ATOM      4  C   UNL     1      -0.544  -3.025  -0.901  0.00  0.00    +0.044 A 
ATOM      5  N   UNL     1      -0.710  -3.317   0.378  0.00  0.00    -0.217 NA
ATOM      6  C   UNL     1      -0.545  -2.392   1.311  0.00  0.00    +0.231 A 
ATOM      7  N   UNL     1      -0.205  -1.150   1.004  0.00  0.00    -0.217 NA
ATOM      8  N   UNL     1      -0.728  -2.734   2.644  0.00  0.00    -0.295 N 
ATOM      9  C   UNL     1      -0.561  -1.791   3.622  0.00  0.00    +0.224 C 
ATOM     10  N   UNL     1      -0.747  -2.114   4.891  0.00  0.00    -0.127 NA
ATOM     11  C   UNL     1      -0.734  -4.083  -1.957  0.00  0.00    +0.066 C 
ATOM     12  H   UNL     1      -0.974  -3.642   2.883  0.00  0.00    +0.172 HD
ENDROOT
BRANCH  10  13
ATOM     13  C   UNL     1      -1.210  -3.331   5.212  0.00  0.00    +0.338 C 
ATOM     14  O   UNL     1      -0.448  -4.178   5.644  0.00  0.00    -0.250 OA
ATOM     15  N   UNL     1      -2.518  -3.616   5.057  0.00  0.00    -0.221 N 
ATOM     16  C   UNL     1      -3.356  -2.668   4.457  0.00  0.00    +0.057 A 
ATOM     17  C   UNL     1      -3.177  -1.317   4.710  0.00  0.00    +0.025 A 
ATOM     18  C   UNL     1      -4.010  -0.386   4.115  0.00  0.00    +0.002 A 
ATOM     19  C   UNL     1      -5.022  -0.793   3.267  0.00  0.00    +0.001 A 
ATOM     20  C   UNL     1      -5.210  -2.140   3.006  0.00  0.00    +0.017 A 
ATOM     21  C   UNL     1      -4.380  -3.075   3.598  0.00  0.00    +0.035 A 
ATOM     22  S   UNL     1      -4.594  -4.799   3.286  0.00  0.00    -0.086 S 
ATOM     23  C   UNL     1      -3.982  -5.531   4.772  0.00  0.00    +0.035 A 
ATOM     24  C   UNL     1      -3.001  -4.856   5.496  0.00  0.00    +0.057 A 
ATOM     25  C   UNL     1      -2.510  -5.425   6.661  0.00  0.00    +0.025 A 
ATOM     26  C   UNL     1      -2.994  -6.648   7.090  0.00  0.00    +0.002 A 
ATOM     27  C   UNL     1      -3.966  -7.311   6.364  0.00  0.00    +0.001 A 
ATOM     28  C   UNL     1      -4.463  -6.751   5.210  0.00  0.00    +0.017 A 
ENDBRANCH  10  13
BRANCH   9  29
ATOM     29  N   UNL     1      -0.203  -0.516   3.287  0.00  0.00    -0.215 NA
BRANCH  29  30
ATOM     30  C   UNL     1       0.339   0.336   4.255  0.00  0.00    +0.067 A 
ATOM     31  C   UNL     1       1.084  -0.188   5.304  0.00  0.00    +0.028 A 
ATOM     32  C   UNL     1       1.617   0.655   6.258  0.00  0.00    +0.002 A 
ATOM     33  C   UNL     1       1.411   2.020   6.171  0.00  0.00    +0.000 A 
ATOM     34  C   UNL     1       0.669   2.545   5.128  0.00  0.00    +0.002 A 
ATOM     35  C   UNL     1       0.138   1.707   4.167  0.00  0.00    +0.028 A 
ENDBRANCH  29  30
ENDBRANCH   9  29
TORSDOF 3
