REMARK  Name = ZINC09355659
REMARK  5 active torsions:
REMARK  status: ('A' for Active; 'I' for Inactive)
REMARK    1  A    between atoms: C_1  and  C_2
REMARK    2  A    between atoms: C_4  and  O_27
REMARK    3  A    between atoms: C_5  and  C_16
REMARK    4  A    between atoms: N_8  and  C_9
REMARK    5  A    between atoms: C_9  and  C_10
REMARK                            x       y       z     vdW  Elec       q    Type
REMARK                         _______ _______ _______ _____ _____    ______ ____
ROOT
ATOM      1  C   UNL     1       2.498   3.913  -0.256  0.00  0.00    +0.064 C 
ATOM      2  C   UNL     1       1.166   3.222  -0.114  0.00  0.00    +0.023 A 
ATOM      3  C   UNL     1       0.055   3.957   0.105  0.00  0.00    +0.067 A 
ATOM      4  C   UNL     1      -1.193   3.317   0.239  0.00  0.00    +0.131 A 
ATOM      5  C   UNL     1      -1.254   1.940   0.136  0.00  0.00    +0.103 A 
ATOM      6  C   UNL     1      -0.074   1.220  -0.086  0.00  0.00    +0.262 A 
ATOM      7  O   UNL     1      -0.110   0.003  -0.174  0.00  0.00    -0.267 OA
ATOM      8  N   UNL     1       1.100   1.868  -0.208  0.00  0.00    -0.310 N 
ENDROOT
BRANCH   5   9
ATOM      9  C   UNL     1      -2.572   1.222   0.268  0.00  0.00    +0.247 C 
ATOM     10  C   UNL     1      -2.554   0.324   1.480  0.00  0.00    +0.011 A 
ATOM     11  C   UNL     1      -2.393   0.558   2.826  0.00  0.00    +0.008 A 
ATOM     12  C   UNL     1      -2.425  -0.499   3.720  0.00  0.00    +0.000 A 
ATOM     13  C   UNL     1      -2.618  -1.791   3.264  0.00  0.00    +0.001 A 
ATOM     14  C   UNL     1      -2.781  -2.037   1.916  0.00  0.00    +0.015 A 
ATOM     15  C   UNL     1      -2.750  -0.977   1.009  0.00  0.00    +0.066 A 
ATOM     16  C   UNL     1      -2.889  -0.915  -0.458  0.00  0.00    +0.340 C 
ATOM     17  O   UNL     1      -3.071  -1.875  -1.179  0.00  0.00    -0.245 OA
ATOM     18  O   UNL     1      -2.786   0.356  -0.881  0.00  0.00    -0.448 OA
ENDBRANCH   5   9
BRANCH   4  19
ATOM     19  O   UNL     1      -2.317   4.040   0.458  0.00  0.00    -0.506 OA
ATOM     20  H   UNL     1      -2.167   4.994   0.508  0.00  0.00    +0.292 HD
ENDBRANCH   4  19
BRANCH   8  21
ATOM     21  C   UNL     1       2.325   1.101  -0.446  0.00  0.00    +0.156 C 
BRANCH  21  22
ATOM     22  C   UNL     1       2.954   0.715   0.894  0.00  0.00    +0.138 C 
ATOM     23  C   UNL     1       4.304   0.007   0.654  0.00  0.00    +0.035 C 
ATOM     24  C   UNL     1       4.287  -1.111   1.732  0.00  0.00    +0.031 C 
ATOM     25  C   UNL     1       2.777  -1.457   1.772  0.00  0.00    +0.160 C 
ATOM     26  O   UNL     1       2.100  -0.204   1.585  0.00  0.00    -0.375 OA
ENDBRANCH  21  22
ENDBRANCH   8  21
TORSDOF 4
