REMARK  Name = ZINC61941341
REMARK  4 active torsions:
REMARK  status: ('A' for Active; 'I' for Inactive)
REMARK    1  A    between atoms: C_3  and  C_19
REMARK    2  A    between atoms: C_5  and  N_8
REMARK    3  A    between atoms: N_11  and  C_14
REMARK    4  A    between atoms: C_14  and  C_15
REMARK                            x       y       z     vdW  Elec       q    Type
REMARK                         _______ _______ _______ _____ _____    ______ ____
ROOT
ATOM      1  N   UNL     1       1.807  -1.584  -0.440  0.00  0.00    -0.296 NA
ATOM      2  C   UNL     1       3.041  -1.820  -1.202  0.00  0.00    +0.100 C 
ATOM      3  C   UNL     1       3.801  -2.996  -0.584  0.00  0.00    +0.100 C 
ATOM      4  N   UNL     1       2.944  -4.189  -0.593  0.00  0.00    -0.292 NA
ATOM      5  C   UNL     1       1.710  -3.953   0.169  0.00  0.00    +0.100 C 
ATOM      6  C   UNL     1       0.949  -2.777  -0.449  0.00  0.00    +0.100 C 
ENDROOT
BRANCH   1  10
ATOM      7  C   UNL     1      -0.170   1.462  -0.029  0.00  0.00    +0.003 C 
ATOM      8  C   UNL     1       1.328   1.857  -0.013  0.00  0.00    +0.020 C 
ATOM      9  C   UNL     1       2.002   0.822  -0.937  0.00  0.00    +0.109 C 
ATOM     10  C   UNL     1       1.085  -0.413  -0.956  0.00  0.00    +0.074 C 
ATOM     11  C   UNL     1      -0.115  -0.085  -0.043  0.00  0.00    +0.020 C 
BRANCH   9  12
ATOM     12  C   UNL     1       2.138   1.372  -2.296  0.00  0.00    +0.067 C 
ATOM     13  N   UNL     1       2.243   1.796  -3.345  0.00  0.00    -0.196 NA
ENDBRANCH   9  12
ENDBRANCH   1  10
BRANCH   4  14
ATOM     14  C   UNL     1       3.665  -5.360  -0.076  0.00  0.00    +0.198 C 
BRANCH  14  15
ATOM     15  C   UNL     1       4.623  -5.883  -1.149  0.00  0.00    +0.402 C 
ATOM     16  F   UNL     1       5.621  -4.932  -1.387  0.00  0.00    -0.169 F 
ATOM     17  F   UNL     1       5.210  -7.074  -0.709  0.00  0.00    -0.169 F 
ATOM     18  F   UNL     1       3.913  -6.121  -2.331  0.00  0.00    -0.169 F 
ENDBRANCH  14  15
ENDBRANCH   4  14
TORSDOF 4
