REMARK  Name = ZINC66623367
REMARK  5 active torsions:
REMARK  status: ('A' for Active; 'I' for Inactive)
REMARK    1  A    between atoms: C_4  and  C_7
REMARK    2  A    between atoms: C_7  and  C_9
REMARK    3  A    between atoms: C_7  and  N_22
REMARK    4  A    between atoms: N_11  and  N_12
REMARK    5  A    between atoms: N_12  and  C_13
REMARK                            x       y       z     vdW  Elec       q    Type
REMARK                         _______ _______ _______ _____ _____    ______ ____
ROOT
ATOM      1  C   UNL     1       4.112  -1.067   1.370  0.00  0.00    +0.254 C 
ATOM      2  O   UNL     1       4.269  -2.230   1.677  0.00  0.00    -0.272 OA
ATOM      3  N   UNL     1       4.295  -0.097   2.287  0.00  0.00    -0.235 N 
ATOM      4  H   UNL     1       4.169   0.833   2.042  0.00  0.00    +0.173 HD
ENDROOT
BRANCH   3   5
ATOM      5  N   UNL     1       4.667  -0.431   3.596  0.00  0.00    -0.262 N 
ATOM      6  H   UNL     1       4.793  -1.361   3.842  0.00  0.00    +0.170 HD
BRANCH   5   7
ATOM      7  C   UNL     1       4.857   0.576   4.549  0.00  0.00    +0.083 A 
ATOM      8  C   UNL     1       4.672   1.907   4.200  0.00  0.00    +0.030 A 
ATOM      9  C   UNL     1       4.859   2.901   5.141  0.00  0.00    +0.043 A 
ATOM     10  C   UNL     1       5.233   2.573   6.433  0.00  0.00    +0.161 A 
ATOM     11  C   UNL     1       5.420   1.245   6.786  0.00  0.00    +0.195 A 
ATOM     12  C   UNL     1       5.227   0.245   5.847  0.00  0.00    +0.183 A 
ATOM     13  F   UNL     1       5.403  -1.049   6.192  0.00  0.00    -0.200 F 
ATOM     14  F   UNL     1       5.785   0.926   8.047  0.00  0.00    -0.199 F 
ATOM     15  F   UNL     1       5.417   3.547   7.350  0.00  0.00    -0.202 F 
ENDBRANCH   5   7
ENDBRANCH   3   5
BRANCH   1  16
ATOM     16  C   UNL     1       3.711  -0.707  -0.038  0.00  0.00    +0.194 C 
BRANCH  16  17
ATOM     17  N   UNL     1       3.577  -1.929  -0.835  0.00  0.00    -0.286 N 
ATOM     18  C   UNL     1       2.516  -2.864  -0.478  0.00  0.00    +0.109 C 
ATOM     19  C   UNL     1       2.216  -3.803  -1.647  0.00  0.00    +0.019 C 
ATOM     20  C   UNL     1       3.534  -4.411  -2.140  0.00  0.00    +0.011 C 
ATOM     21  C   UNL     1       4.377  -3.297  -2.766  0.00  0.00    +0.096 C 
ATOM     22  C   UNL     1       4.429  -2.114  -1.844  0.00  0.00    +0.216 C 
ATOM     23  O   UNL     1       5.294  -1.284  -2.023  0.00  0.00    -0.276 OA
ENDBRANCH  16  17
BRANCH  16  27
ATOM     24  C   UNL     1      -0.024   1.365   0.029  0.00  0.00    +0.000 A 
ATOM     25  C   UNL     1       1.024   1.853  -0.730  0.00  0.00    +0.000 A 
ATOM     26  C   UNL     1       2.233   1.182  -0.751  0.00  0.00    +0.006 A 
ATOM     27  C   UNL     1       2.394   0.025  -0.013  0.00  0.00    -0.018 A 
ATOM     28  C   UNL     1       1.347  -0.463   0.746  0.00  0.00    +0.006 A 
ATOM     29  C   UNL     1       0.138   0.207   0.766  0.00  0.00    +0.000 A 
ENDBRANCH  16  27
ENDBRANCH   1  16
TORSDOF 5
