REMARK  Name = ZINC31055902
REMARK  10 active torsions:
REMARK  status: ('A' for Active; 'I' for Inactive)
REMARK    1  A    between atoms: C_1  and  C_2
REMARK    2  A    between atoms: C_5  and  O_8
REMARK    3  A    between atoms: O_8  and  C_9
REMARK    4  A    between atoms: C_9  and  C_10
REMARK    5  A    between atoms: C_10  and  C_12
REMARK    6  A    between atoms: C_10  and  N_13
REMARK    7  A    between atoms: C_14  and  C_16
REMARK    8  A    between atoms: N_21  and  C_23
REMARK    9  A    between atoms: C_23  and  C_24
REMARK   10  A    between atoms: C_26  and  C_29
REMARK                            x       y       z     vdW  Elec       q    Type
REMARK                         _______ _______ _______ _____ _____    ______ ____
ROOT
ATOM      1  C   UNL     1       2.563   6.921  -2.856  0.00  0.00    +0.058 C 
ATOM      2  C   UNL     1       1.316   6.838  -3.740  0.00  0.00    +0.009 C 
ATOM      3  C   UNL     1       0.721   5.431  -3.639  0.00  0.00    -0.018 C 
ATOM      4  C   UNL     1       0.396   5.124  -2.175  0.00  0.00    -0.078 C 
ATOM      5  N   UNL     1       1.621   5.216  -1.371  0.00  0.00    +0.386 N 
ATOM      6  C   UNL     1       2.185   6.571  -1.415  0.00  0.00    -0.065 C 
ATOM      7  H   UNL     1       2.361   4.530  -1.808  0.00  0.00    -0.081 HD
ENDROOT
BRANCH   1   9
ATOM      8  N   UNL     1       3.525   8.845  -4.078  0.00  0.00    -0.309 N 
ATOM      9  C   UNL     1       3.122   8.320  -2.904  0.00  0.00    +0.215 C 
ATOM     10  O   UNL     1       3.209   8.973  -1.886  0.00  0.00    -0.276 OA
ATOM     11  H   UNL     1       3.446   8.252  -5.001  0.00  0.00    +0.149 HD
BRANCH   8  12
ATOM     12  C   UNL     1       4.068  10.204  -4.125  0.00  0.00    +0.107 C 
ATOM     13  C   UNL     1       5.562  10.168  -3.796  0.00  0.00    +0.031 C 
BRANCH  12  14
ATOM     14  C   UNL     1       3.868  10.786  -5.526  0.00  0.00    +0.251 C 
BRANCH  14  15
ATOM     15  O   UNL     1       4.640  10.037  -6.467  0.00  0.00    -0.490 OA
BRANCH  15  20
ATOM     16  C   UNL     1       4.367  11.650 -11.857  0.00  0.00    +0.044 C 
ATOM     17  C   UNL     1       4.440  11.219 -10.415  0.00  0.00    -0.050 A 
ATOM     18  C   UNL     1       5.230  10.142 -10.055  0.00  0.00    +0.007 A 
ATOM     19  C   UNL     1       5.299   9.745  -8.734  0.00  0.00    +0.046 A 
ATOM     20  C   UNL     1       4.574  10.427  -7.767  0.00  0.00    +0.121 A 
ATOM     21  C   UNL     1       3.778  11.503  -8.131  0.00  0.00    +0.046 A 
ATOM     22  C   UNL     1       3.717  11.900  -9.453  0.00  0.00    +0.007 A 
ENDBRANCH  15  20
ENDBRANCH  14  15
ENDBRANCH  12  14
ENDBRANCH   8  12
ENDBRANCH   1   9
BRANCH   5  23
ATOM     23  C   UNL     1       1.374   4.793   0.014  0.00  0.00    +0.022 C 
BRANCH  23  24
ATOM     24  C   UNL     1       0.577   3.515   0.015  0.00  0.00    +0.211 A 
ATOM     25  N   UNL     1       1.059   2.297   0.004  0.00  0.00    -0.193 NA
ATOM     26  C   UNL     1      -0.018   1.480   0.010  0.00  0.00    +0.203 A 
ATOM     27  N   UNL     1      -1.081   2.241   0.019  0.00  0.00    -0.056 NA
ATOM     28  O   UNL     1      -0.756   3.410   0.027  0.00  0.00    -0.340 OA
BRANCH  26  29
ATOM     29  C   UNL     1       0.002  -0.004   0.002  0.00  0.00    +0.041 A 
ATOM     30  C   UNL     1       1.217  -0.687  -0.019  0.00  0.00    +0.014 A 
ATOM     31  C   UNL     1       1.231  -2.066  -0.020  0.00  0.00    +0.021 A 
ATOM     32  C   UNL     1       0.040  -2.773  -0.013  0.00  0.00    +0.042 A 
ATOM     33  C   UNL     1      -1.170  -2.101   0.002  0.00  0.00    +0.040 A 
ATOM     34  C   UNL     1      -1.194  -0.720   0.010  0.00  0.00    +0.053 A 
ATOM     35 CL   UNL     1      -2.712   0.123   0.028  0.00  0.00    -0.083 Cl
ATOM     36 CL   UNL     1       0.065  -4.509  -0.023  0.00  0.00    -0.083 Cl
ENDBRANCH  26  29
ENDBRANCH  23  24
ENDBRANCH   5  23
TORSDOF 8
