REMARK  Name = ZINC01233683
REMARK  7 active torsions:
REMARK  status: ('A' for Active; 'I' for Inactive)
REMARK    1  A    between atoms: C_1  and  C_2
REMARK    2  A    between atoms: C_2  and  C_4
REMARK    3  A    between atoms: C_2  and  O_16
REMARK    4  A    between atoms: N_6  and  N_7
REMARK    5  A    between atoms: C_8  and  C_9
REMARK    6  A    between atoms: C_14  and  O_15
REMARK    7  A    between atoms: O_16  and  C_17
REMARK                            x       y       z     vdW  Elec       q    Type
REMARK                         _______ _______ _______ _____ _____    ______ ____
ROOT
ATOM      1  C   UNL     1       3.429   7.372  -0.156  0.00  0.00    +0.273 C 
ATOM      2  O   UNL     1       2.425   8.021   0.048  0.00  0.00    -0.270 OA
ATOM      3  N   UNL     1       3.345   6.039  -0.335  0.00  0.00    -0.204 N 
ATOM      4  H   UNL     1       4.147   5.519  -0.498  0.00  0.00    +0.177 HD
ENDROOT
BRANCH   1   6
ATOM      5  C   UNL     1       5.638   7.569   0.953  0.00  0.00    +0.062 C 
ATOM      6  C   UNL     1       4.771   8.056  -0.210  0.00  0.00    +0.257 C 
BRANCH   6   7
ATOM      7  O   UNL     1       4.589   9.470  -0.109  0.00  0.00    -0.480 OA
BRANCH   7   8
ATOM      8  C   UNL     1       5.561  10.256  -0.642  0.00  0.00    +0.122 A 
ATOM      9  C   UNL     1       5.394  11.633  -0.687  0.00  0.00    +0.047 A 
ATOM     10  C   UNL     1       6.385  12.431  -1.224  0.00  0.00    +0.019 A 
ATOM     11  C   UNL     1       7.539  11.857  -1.728  0.00  0.00    +0.018 A 
ATOM     12  C   UNL     1       7.705  10.484  -1.690  0.00  0.00    +0.019 A 
ATOM     13  C   UNL     1       6.718   9.683  -1.148  0.00  0.00    +0.047 A 
ATOM     14 BR   UNL     1       8.892  12.951  -2.469  0.00  0.00    -0.050 Br
ENDBRANCH   7   8
ENDBRANCH   6   7
ENDBRANCH   1   6
BRANCH   3  15
ATOM     15  N   UNL     1       2.097   5.403  -0.285  0.00  0.00    -0.188 NA
ATOM     16  C   UNL     1       2.016   4.119  -0.458  0.00  0.00    +0.142 C 
BRANCH  16  17
ATOM     17  C   UNL     1       0.704   3.450  -0.405  0.00  0.00    +0.036 A 
ATOM     18  C   UNL     1       0.612   2.069  -0.590  0.00  0.00    +0.013 A 
ATOM     19  C   UNL     1      -0.619   1.449  -0.540  0.00  0.00    +0.001 A 
ATOM     20  C   UNL     1      -1.766   2.191  -0.312  0.00  0.00    +0.004 A 
ATOM     21  C   UNL     1      -1.687   3.558  -0.122  0.00  0.00    +0.046 A 
ATOM     22  C   UNL     1      -0.459   4.196  -0.170  0.00  0.00    +0.125 A 
BRANCH  22  23
ATOM     23  O   UNL     1      -0.382   5.540   0.012  0.00  0.00    -0.506 OA
ATOM     24  H   UNL     1      -0.456   6.052  -0.805  0.00  0.00    +0.292 HD
ENDBRANCH  22  23
ENDBRANCH  16  17
ENDBRANCH   3  15
TORSDOF 6
