REMARK  Name = ZINC44326280
REMARK  12 active torsions:
REMARK  status: ('A' for Active; 'I' for Inactive)
REMARK    1  A    between atoms: C_1  and  C_2
REMARK    2  A    between atoms: N_8  and  C_9
REMARK    3  A    between atoms: C_9  and  C_10
REMARK    4  A    between atoms: C_10  and  O_11
REMARK    5  A    between atoms: O_11  and  C_12
REMARK    6  A    between atoms: C_15  and  C_18
REMARK    7  A    between atoms: C_18  and  CA_19
REMARK    8  A    between atoms: CA_19  and  C_21
REMARK    9  A    between atoms: CA_19  and  N_24
REMARK   10  A    between atoms: C_25  and  O_27
REMARK   11  A    between atoms: O_27  and  C_28
REMARK   12  A    between atoms: C_28  and  C_29
REMARK                            x       y       z     vdW  Elec       q    Type
REMARK                         _______ _______ _______ _____ _____    ______ ____
ROOT
ATOM      1  CA  UNL     1       4.359  -3.821   8.414  0.00  0.00    +0.193 C 
ENDROOT
BRANCH   1   2
ATOM      2  N   UNL     1       3.585  -2.638   8.800  0.00  0.00    -0.267 N 
ATOM      3  C   UNL     1       2.320  -2.776   9.244  0.00  0.00    +0.401 C 
ATOM      4  O   UNL     1       1.821  -3.881   9.325  0.00  0.00    -0.226 OA
ATOM      5  H   UNL     1       3.983  -1.756   8.735  0.00  0.00    +0.153 HD
BRANCH   3   6
ATOM      6  O   UNL     1       1.609  -1.689   9.599  0.00  0.00    -0.449 OA
BRANCH   6   7
ATOM      7  C   UNL     1       0.275  -1.909  10.061  0.00  0.00    +0.246 C 
BRANCH   7   8
ATOM      8  C   UNL     1      -0.370  -0.567  10.415  0.00  0.00    +0.088 C 
ATOM      9  C   UNL     1       0.296   0.025  11.633  0.00  0.00    -0.029 A 
ATOM     10  C   UNL     1       1.595   0.414  11.880  0.00  0.00    +0.005 A 
ATOM     11  C   UNL     1       1.939   0.937  13.114  0.00  0.00    +0.000 A 
ATOM     12  C   UNL     1       0.980   1.069  14.102  0.00  0.00    +0.001 A 
ATOM     13  C   UNL     1      -0.322   0.682  13.864  0.00  0.00    +0.009 A 
ATOM     14  C   UNL     1      -0.676   0.154  12.621  0.00  0.00    -0.014 A 
ATOM     15  C   UNL     1      -1.977  -0.335  12.101  0.00  0.00    -0.014 A 
ATOM     16  C   UNL     1      -1.818  -0.769  10.788  0.00  0.00    -0.029 A 
ATOM     17  C   UNL     1      -2.893  -1.271  10.086  0.00  0.00    +0.005 A 
ATOM     18  C   UNL     1      -4.138  -1.344  10.686  0.00  0.00    +0.000 A 
ATOM     19  C   UNL     1      -4.306  -0.915  11.990  0.00  0.00    +0.001 A 
ATOM     20  C   UNL     1      -3.236  -0.412  12.700  0.00  0.00    +0.009 A 
ENDBRANCH   7   8
ENDBRANCH   6   7
ENDBRANCH   3   6
ENDBRANCH   1   2
BRANCH   1  21
ATOM     21  C   UNL     1       5.007  -4.418   9.636  0.00  0.00    +0.376 C 
ATOM     22  O   UNL     1       4.992  -3.809  10.692  0.00  0.00    -0.244 OA
ATOM     23  OXT UNL     1       5.546  -5.510   9.569  0.00  0.00    -0.244 OA
ENDBRANCH   1  21
BRANCH   1  24
ATOM     24  C   UNL     1       5.440  -3.417   7.409  0.00  0.00    +0.069 C 
BRANCH  24  28
ATOM     25  C   UNL     1       3.596  -2.048   3.805  0.00  0.00    +0.120 A 
ATOM     26  C   UNL     1       3.881  -1.151   4.824  0.00  0.00    +0.046 A 
ATOM     27  C   UNL     1       4.476  -1.596   5.988  0.00  0.00    +0.007 A 
ATOM     28  C   UNL     1       4.789  -2.934   6.138  0.00  0.00    -0.045 A 
ATOM     29  C   UNL     1       4.507  -3.830   5.123  0.00  0.00    +0.007 A 
ATOM     30  C   UNL     1       3.905  -3.391   3.960  0.00  0.00    +0.046 A 
BRANCH  25  31
ATOM     31  O   UNL     1       3.009  -1.612   2.659  0.00  0.00    -0.494 OA
BRANCH  31  32
ATOM     32  C   UNL     1       2.719  -0.216   2.569  0.00  0.00    +0.210 C 
BRANCH  32  33
ATOM     33  C   UNL     1       2.066   0.083   1.218  0.00  0.00    -0.037 C 
BRANCH  33  40
ATOM     34  C   UNL     1       0.002   1.459  -0.098  0.00  0.00    -0.013 C 
ATOM     35  C   UNL     1       0.029  -0.070  -0.037  0.00  0.00    -0.072 C 
ATOM     36  C   UNL     1      -1.404  -0.605  -0.035  0.00  0.00    -0.016 C 
ATOM     37  C   UNL     1      -1.371  -2.135   0.026  0.00  0.00    -0.003 C 
ATOM     38  C   UNL     1      -0.588  -2.570   1.268  0.00  0.00    -0.019 C 
ATOM     39  C   UNL     1       0.816  -1.962   1.217  0.00  0.00    -0.078 C 
ATOM     40  N   UNL     1       0.717  -0.497   1.187  0.00  0.00    +0.384 N 
ATOM     41  H   UNL     1       0.197  -0.179   1.992  0.00  0.00    -0.081 HD
ENDBRANCH  33  40
ENDBRANCH  32  33
ENDBRANCH  31  32
ENDBRANCH  25  31
ENDBRANCH  24  28
ENDBRANCH   1  24
TORSDOF 11
