REMARK  Name = ZINC39856221
REMARK  10 active torsions:
REMARK  status: ('A' for Active; 'I' for Inactive)
REMARK    1  A    between atoms: C_1  and  C_2
REMARK    2  A    between atoms: C_2  and  N_3
REMARK    3  A    between atoms: N_3  and  C_4
REMARK    4  A    between atoms: C_14  and  C_16
REMARK    5  A    between atoms: C_17  and  C_32
REMARK    6  A    between atoms: C_22  and  C_30
REMARK    7  A    between atoms: C_22  and  C_31
REMARK    8  A    between atoms: N_25  and  N_26
REMARK    9  A    between atoms: N_26  and  C_27
REMARK   10  A    between atoms: C_27  and  N_29
REMARK                            x       y       z     vdW  Elec       q    Type
REMARK                         _______ _______ _______ _____ _____    ______ ____
ROOT
ATOM      1  C   UNL     1      -1.359  -0.302   2.442  0.00  0.00    +0.193 A 
ATOM      2  C   UNL     1      -1.869  -0.494   3.696  0.00  0.00    +0.009 A 
ATOM      3  C   UNL     1      -0.903  -0.015   4.589  0.00  0.00    +0.042 A 
ATOM      4  C   UNL     1       0.154   0.451   3.843  0.00  0.00    +0.116 A 
ATOM      5  O   UNL     1      -0.135   0.262   2.557  0.00  0.00    -0.454 OA
ATOM      6  C   UNL     1       1.391   1.052   4.459  0.00  0.00    +0.081 C 
ATOM      7  C   UNL     1       1.075   1.520   5.882  0.00  0.00    -0.023 C 
ATOM      8  C   UNL     1       0.444   0.386   6.697  0.00  0.00    +0.064 C 
ATOM      9  C   UNL     1      -0.897   0.036   6.068  0.00  0.00    +0.070 C 
ATOM     10  N   UNL     1      -1.957  -0.199   6.777  0.00  0.00    -0.185 NA
ATOM     11  C   UNL     1       0.100   2.698   5.820  0.00  0.00    +0.011 C 
ATOM     12  C   UNL     1       2.368   1.972   6.564  0.00  0.00    +0.011 C 
ATOM     13  C   UNL     1      -3.204  -1.100   4.046  0.00  0.00    +0.048 C 
ENDROOT
BRANCH   1  15
ATOM     14  N   UNL     1      -1.371  -0.514   0.013  0.00  0.00    -0.265 N 
ATOM     15  C   UNL     1      -2.025  -0.654   1.183  0.00  0.00    +0.286 C 
ATOM     16  O   UNL     1      -3.168  -1.073   1.195  0.00  0.00    -0.266 OA
BRANCH  14  17
ATOM     17  C   UNL     1      -0.028  -0.139   0.005  0.00  0.00    +0.044 A 
ATOM     18  C   UNL     1       0.323   1.194  -0.035  0.00  0.00    +0.024 A 
ATOM     19  C   UNL     1       1.660   1.578  -0.043  0.00  0.00    +0.002 A 
ATOM     20  C   UNL     1       2.658   0.651  -0.013  0.00  0.00    +0.008 A 
ATOM     21  C   UNL     1       2.343  -0.718   0.028  0.00  0.00    -0.016 A 
ATOM     22  C   UNL     1       0.985  -1.121   0.043  0.00  0.00    +0.004 A 
ATOM     23  C   UNL     1       0.673  -2.489   0.089  0.00  0.00    +0.010 A 
ATOM     24  C   UNL     1       1.676  -3.408   0.125  0.00  0.00    +0.001 A 
ATOM     25  C   UNL     1       3.012  -3.013   0.116  0.00  0.00    +0.001 A 
ATOM     26  C   UNL     1       3.353  -1.696   0.059  0.00  0.00    +0.008 A 
ENDBRANCH  14  17
BRANCH  14  28
ATOM     27  C   UNL     1      -1.843  -2.201  -1.693  0.00  0.00    +0.025 C 
ATOM     28  C   UNL     1      -2.072  -0.755  -1.251  0.00  0.00    +0.111 C 
ENDBRANCH  14  28
ENDBRANCH   1  15
BRANCH  10  29
ATOM     29  N   UNL     1      -1.893  -0.137   8.175  0.00  0.00    -0.218 N 
ATOM     30  H   UNL     1      -1.056   0.082   8.613  0.00  0.00    +0.176 HD
BRANCH  29  31
ATOM     31  C   UNL     1      -2.995  -0.382   8.911  0.00  0.00    +0.147 C 
ATOM     32  S   UNL     1      -2.917  -0.305  10.620  0.00  0.00    -0.017 S 
BRANCH  31  33
ATOM     33  N   UNL     1      -4.159  -0.686   8.303  0.00  0.00    -0.339 N 
ATOM     34  H   UNL     1      -4.203  -0.730   7.335  0.00  0.00    +0.144 HD
ATOM     35  H   UNL     1      -4.952  -0.863   8.833  0.00  0.00    +0.144 HD
ENDBRANCH  31  33
ENDBRANCH  29  31
ENDBRANCH  10  29
TORSDOF 6
