REMARK  Name = ZINC05953146
REMARK  7 active torsions:
REMARK  status: ('A' for Active; 'I' for Inactive)
REMARK    1  A    between atoms: C_1  and  C_2
REMARK    2  A    between atoms: C_2  and  O_3
REMARK    3  A    between atoms: O_3  and  C_4
REMARK    4  A    between atoms: C_4  and  C_6
REMARK    5  A    between atoms: C_10  and  N_11
REMARK    6  A    between atoms: N_14  and  N_15
REMARK    7  A    between atoms: C_16  and  C_17
REMARK                            x       y       z     vdW  Elec       q    Type
REMARK                         _______ _______ _______ _____ _____    ______ ____
ROOT
ATOM      1  N   UNL     1       3.657   6.178  -0.001  0.00  0.00    -0.262 N 
ATOM      2  C   UNL     1       4.832   5.516  -0.016  0.00  0.00    +0.324 C 
ATOM      3  O   UNL     1       5.878   6.136  -0.023  0.00  0.00    -0.251 OA
ATOM      4  N   UNL     1       4.846   4.169  -0.023  0.00  0.00    -0.191 N 
ATOM      5  H   UNL     1       2.822   5.684   0.004  0.00  0.00    +0.157 HD
ATOM      6  H   UNL     1       5.691   3.693  -0.034  0.00  0.00    +0.179 HD
ENDROOT
BRANCH   1  11
ATOM      7  C   UNL     1       2.548   8.412   0.015  0.00  0.00    +0.091 A 
ATOM      8  C   UNL     1       2.808   9.852   0.024  0.00  0.00    -0.021 A 
ATOM      9  C   UNL     1       4.108  10.197   0.014  0.00  0.00    -0.004 A 
ATOM     10  S   UNL     1       4.986   8.653  -0.003  0.00  0.00    -0.077 S 
ATOM     11  C   UNL     1       3.642   7.563   0.006  0.00  0.00    +0.088 A 
ATOM     12  C   UNL     1       4.296  11.690   0.022  0.00  0.00    +0.043 C 
ATOM     13  C   UNL     1       2.930  12.252   0.476  0.00  0.00    +0.010 C 
ATOM     14  C   UNL     1       1.968  11.130   0.036  0.00  0.00    +0.037 C 
BRANCH   7  15
ATOM     15  C   UNL     1       1.181   7.889   0.019  0.00  0.00    +0.342 C 
ATOM     16  O   UNL     1       0.618   7.667   1.075  0.00  0.00    -0.245 OA
BRANCH  15  17
ATOM     17  O   UNL     1       0.545   7.652  -1.147  0.00  0.00    -0.461 OA
BRANCH  17  19
ATOM     18  C   UNL     1      -1.361   6.930  -2.478  0.00  0.00    +0.048 C 
ATOM     19  C   UNL     1      -0.809   7.133  -1.066  0.00  0.00    +0.229 C 
ENDBRANCH  17  19
ENDBRANCH  15  17
ENDBRANCH   7  15
ENDBRANCH   1  11
BRANCH   4  20
ATOM     20  N   UNL     1       3.641   3.455  -0.015  0.00  0.00    -0.186 NA
ATOM     21  C   UNL     1       3.655   2.158  -0.022  0.00  0.00    +0.138 C 
BRANCH  21  22
ATOM     22  C   UNL     1       2.385   1.407  -0.013  0.00  0.00    -0.005 A 
ATOM     23  C   UNL     1       1.166   2.089   0.002  0.00  0.00    +0.009 A 
ATOM     24  C   UNL     1      -0.017   1.379   0.010  0.00  0.00    +0.001 A 
ATOM     25  C   UNL     1       0.002  -0.004   0.002  0.00  0.00    +0.000 A 
ATOM     26  C   UNL     1       1.206  -0.686  -0.013  0.00  0.00    +0.001 A 
ATOM     27  C   UNL     1       2.397   0.010  -0.020  0.00  0.00    +0.009 A 
ENDBRANCH  21  22
ENDBRANCH   4  20
TORSDOF 6
