REMARK  Name = ZINC23441630
REMARK  10 active torsions:
REMARK  status: ('A' for Active; 'I' for Inactive)
REMARK    1  A    between atoms: C_2  and  C_3
REMARK    2  A    between atoms: C_3  and  C_4
REMARK    3  A    between atoms: C_8  and  C_11
REMARK    4  A    between atoms: C_9  and  O_10
REMARK    5  A    between atoms: N_12  and  C_13
REMARK    6  A    between atoms: C_17  and  N_19
REMARK    7  A    between atoms: C_20  and  C_21
REMARK    8  A    between atoms: C_25  and  C_28
REMARK    9  A    between atoms: C_26  and  O_27
REMARK   10  A    between atoms: C_28  and  C_29
REMARK                            x       y       z     vdW  Elec       q    Type
REMARK                         _______ _______ _______ _____ _____    ______ ____
ROOT
ATOM      1  C   UNL     1       4.926  -2.631  -0.058  0.00  0.00    +0.132 A 
ATOM      2  C   UNL     1       4.948  -4.028  -0.059  0.00  0.00    +0.046 A 
ATOM      3  C   UNL     1       6.165  -4.688  -0.079  0.00  0.00    +0.007 A 
ATOM      4  C   UNL     1       7.328  -3.936  -0.086  0.00  0.00    +0.046 A 
ATOM      5  C   UNL     1       7.241  -2.541  -0.079  0.00  0.00    +0.132 A 
ATOM      6  N   UNL     1       6.058  -1.937  -0.065  0.00  0.00    -0.325 N 
ATOM      7  H   UNL     1       6.029  -0.837  -0.060  0.00  0.00    +0.169 HD
ENDROOT
BRANCH   1   9
ATOM      8  C   UNL     1       3.701  -0.668  -0.036  0.00  0.00    +0.124 C 
ATOM      9  N   UNL     1       3.729  -1.973  -0.043  0.00  0.00    -0.237 NA
BRANCH   8  14
ATOM     10  C   UNL     1       0.002  -0.004   0.002  0.00  0.00    -0.002 A 
ATOM     11  C   UNL     1      -0.017   1.377   0.010  0.00  0.00    +0.007 A 
ATOM     12  C   UNL     1       1.168   2.095   0.002  0.00  0.00    +0.001 A 
ATOM     13  C   UNL     1       2.379   1.438  -0.013  0.00  0.00    +0.013 A 
ATOM     14  C   UNL     1       2.414   0.040  -0.021  0.00  0.00    +0.035 A 
ATOM     15  C   UNL     1       1.210  -0.683  -0.013  0.00  0.00    +0.129 A 
BRANCH  15  16
ATOM     16  O   UNL     1       1.230  -2.040  -0.021  0.00  0.00    -0.506 OA
ATOM     17  H   UNL     1       2.190  -2.576  -0.033  0.00  0.00    +0.292 HD
ENDBRANCH  15  16
BRANCH  10  18
ATOM     18  C   UNL     1      -1.293  -0.774   0.010  0.00  0.00    +0.065 C 
BRANCH  18  20
ATOM     19  C   UNL     1      -2.815  -0.806   1.919  0.00  0.00    +0.004 C 
ATOM     20  C   UNL     1      -1.649  -1.145   1.427  0.00  0.00    -0.030 C 
ENDBRANCH  18  20
ENDBRANCH  10  18
ENDBRANCH   8  14
ENDBRANCH   1   9
BRANCH   5  21
ATOM     21  N   UNL     1       8.384  -1.792  -0.086  0.00  0.00    -0.237 NA
ATOM     22  C   UNL     1       8.310  -0.489  -0.079  0.00  0.00    +0.124 C 
BRANCH  22  23
ATOM     23  C   UNL     1       9.539   0.317  -0.086  0.00  0.00    +0.035 A 
ATOM     24  C   UNL     1       9.464   1.714  -0.079  0.00  0.00    +0.013 A 
ATOM     25  C   UNL     1      10.621   2.463  -0.086  0.00  0.00    +0.001 A 
ATOM     26  C   UNL     1      11.858   1.839  -0.101  0.00  0.00    +0.007 A 
ATOM     27  C   UNL     1      11.946   0.461  -0.109  0.00  0.00    -0.002 A 
ATOM     28  C   UNL     1      10.794  -0.310  -0.095  0.00  0.00    +0.129 A 
BRANCH  28  29
ATOM     29  O   UNL     1      10.880  -1.664  -0.096  0.00  0.00    -0.506 OA
ATOM     30  H   UNL     1      11.866  -2.153  -0.103  0.00  0.00    +0.292 HD
ENDBRANCH  28  29
BRANCH  27  31
ATOM     31  C   UNL     1      13.298  -0.206  -0.126  0.00  0.00    +0.065 C 
BRANCH  31  32
ATOM     32  C   UNL     1      13.679  -0.532  -1.546  0.00  0.00    -0.030 C 
ATOM     33  C   UNL     1      14.815  -0.099  -2.035  0.00  0.00    +0.004 C 
ENDBRANCH  31  32
ENDBRANCH  27  31
ENDBRANCH  22  23
ENDBRANCH   5  21
TORSDOF 10
