REMARK  Name = ZINC63772678
REMARK  12 active torsions:
REMARK  status: ('A' for Active; 'I' for Inactive)
REMARK    1  A    between atoms: C_1  and  O_2
REMARK    2  A    between atoms: O_2  and  C_3
REMARK    3  A    between atoms: C_6  and  C_9
REMARK    4  A    between atoms: C_9  and  N_10
REMARK    5  A    between atoms: C_11  and  C_13
REMARK    6  A    between atoms: C_13  and  O_14
REMARK    7  A    between atoms: O_14  and  C_15
REMARK    8  A    between atoms: C_15  and  C_17
REMARK    9  A    between atoms: C_17  and  C_19
REMARK   10  A    between atoms: C_17  and  N_29
REMARK   11  A    between atoms: C_19  and  C_20
REMARK   12  A    between atoms: C_30  and  C_32
REMARK                            x       y       z     vdW  Elec       q    Type
REMARK                         _______ _______ _______ _____ _____    ______ ____
ROOT
ATOM      1  C   UNL     1     -10.196  -5.355  -4.253  0.00  0.00    +0.186 C 
ENDROOT
BRANCH   1   2
ATOM      2  N   UNL     1     -10.797  -5.131  -5.570  0.00  0.00    -0.298 N 
ATOM      3  C   UNL     1     -10.155  -5.540  -6.683  0.00  0.00    +0.251 C 
ATOM      4  O   UNL     1      -9.076  -6.096  -6.593  0.00  0.00    -0.270 OA
ATOM      5  H   UNL     1     -11.658  -4.689  -5.642  0.00  0.00    +0.150 HD
BRANCH   3   6
ATOM      6  C   UNL     1     -10.757  -5.316  -8.000  0.00  0.00    +0.074 A 
ATOM      7  C   UNL     1     -10.271  -5.660  -9.253  0.00  0.00    +0.021 A 
ATOM      8  C   UNL     1     -11.068  -5.315 -10.318  0.00  0.00    +0.008 A 
ATOM      9  C   UNL     1     -12.243  -4.681 -10.083  0.00  0.00    +0.046 A 
ATOM     10  S   UNL     1     -12.307  -4.538  -8.410  0.00  0.00    -0.092 S 
ENDBRANCH   3   6
ENDBRANCH   1   2
BRANCH   1  11
ATOM     11  C   UNL     1      -8.864  -4.654  -4.183  0.00  0.00    +0.328 C 
ATOM     12  O   UNL     1      -8.289  -4.346  -5.201  0.00  0.00    -0.249 OA
BRANCH  11  13
ATOM     13  O   UNL     1      -8.316  -4.371  -2.991  0.00  0.00    -0.454 OA
BRANCH  13  14
ATOM     14  C   UNL     1      -7.052  -3.705  -2.999  0.00  0.00    +0.327 C 
BRANCH  14  16
ATOM     15  N   UNL     1      -5.423  -2.855  -1.343  0.00  0.00    -0.308 N 
ATOM     16  C   UNL     1      -6.597  -3.473  -1.582  0.00  0.00    +0.251 C 
ATOM     17  O   UNL     1      -7.288  -3.841  -0.655  0.00  0.00    -0.272 OA
ATOM     18  H   UNL     1      -4.871  -2.561  -2.084  0.00  0.00    +0.149 HD
BRANCH  15  19
ATOM     19  C   UNL     1      -4.981  -2.629   0.035  0.00  0.00    +0.139 C 
BRANCH  19  23
ATOM     20  C   UNL     1      -1.200  -0.637   0.010  0.00  0.00    +0.120 A 
ATOM     21  C   UNL     1      -2.375   0.101   0.019  0.00  0.00    +0.046 A 
ATOM     22  C   UNL     1      -3.596  -0.545   0.027  0.00  0.00    +0.009 A 
ATOM     23  C   UNL     1      -3.648  -1.927   0.026  0.00  0.00    -0.030 A 
ATOM     24  C   UNL     1      -2.479  -2.665   0.017  0.00  0.00    +0.009 A 
ATOM     25  C   UNL     1      -1.255  -2.024   0.003  0.00  0.00    +0.046 A 
BRANCH  20  27
ATOM     26  C   UNL     1      -0.017   1.425   0.010  0.00  0.00    +0.277 C 
ATOM     27  O   UNL     1       0.002  -0.004   0.002  0.00  0.00    -0.495 OA
ENDBRANCH  20  27
ENDBRANCH  19  23
ENDBRANCH  15  19
ENDBRANCH  14  16
ENDBRANCH  13  14
ENDBRANCH  11  13
ENDBRANCH   1  11
BRANCH   1  28
ATOM     28  C   UNL     1      -9.995  -6.856  -4.033  0.00  0.00    +0.067 C 
BRANCH  28  29
ATOM     29  C   UNL     1     -11.336  -7.540  -3.981  0.00  0.00    -0.039 C 
ATOM     30  C   UNL     1     -11.979  -8.149  -5.003  0.00  0.00    -0.001 A 
ATOM     31  C   UNL     1     -11.636  -8.347  -6.416  0.00  0.00    +0.010 A 
ATOM     32  C   UNL     1     -12.502  -9.011  -7.215  0.00  0.00    +0.001 A 
ATOM     33  C   UNL     1     -13.716  -9.514  -6.728  0.00  0.00    +0.002 A 
ATOM     34  C   UNL     1     -14.101  -9.371  -5.442  0.00  0.00    +0.026 A 
ATOM     35  C   UNL     1     -13.268  -8.689  -4.514  0.00  0.00    +0.043 A 
ATOM     36  N   UNL     1     -13.415  -8.425  -3.238  0.00  0.00    -0.380 N 
ATOM     37  C   UNL     1     -12.233  -7.692  -2.772  0.00  0.00    +0.144 C 
ATOM     38  H   UNL     1     -14.177  -8.676  -2.692  0.00  0.00    +0.160 HD
ENDBRANCH  28  29
ENDBRANCH   1  28
TORSDOF 11
