REMARK  Name = ZINC66250756
REMARK  7 active torsions:
REMARK  status: ('A' for Active; 'I' for Inactive)
REMARK    1  A    between atoms: C_1  and  C_2
REMARK    2  A    between atoms: C_7  and  S_8
REMARK    3  A    between atoms: S_8  and  N_11
REMARK    4  A    between atoms: C_14  and  C_17
REMARK    5  A    between atoms: C_17  and  N_18
REMARK    6  A    between atoms: C_20  and  C_27
REMARK    7  A    between atoms: C_23  and  C_26
REMARK                            x       y       z     vdW  Elec       q    Type
REMARK                         _______ _______ _______ _____ _____    ______ ____
ROOT
ATOM      1  N   UNL     1       1.966   1.236   2.204  0.00  0.00    -0.103 NA
ATOM      2  C   UNL     1       2.050   1.898   3.331  0.00  0.00    +0.192 A 
ATOM      3  N   UNL     1       3.092   2.654   3.825  0.00  0.00    -0.335 N 
ATOM      4  C   UNL     1       2.940   3.255   5.040  0.00  0.00    +0.039 A 
ATOM      5  C   UNL     1       1.806   3.108   5.724  0.00  0.00    +0.071 A 
ATOM      6  S   UNL     1       0.843   2.070   4.636  0.00  0.00    -0.056 S 
ATOM      7  H   UNL     1       3.914   2.755   3.320  0.00  0.00    +0.168 HD
ENDROOT
BRANCH   1   8
ATOM      8  S   UNL     1       0.585   0.401   1.835  0.00  0.00    +0.101 S 
ATOM      9  O   UNL     1      -0.441   1.369   1.661  0.00  0.00    -0.146 OA
ATOM     10  O   UNL     1       0.483  -0.655   2.781  0.00  0.00    -0.146 OA
BRANCH   8  17
ATOM     11  C   UNL     1       0.956   1.932  -0.745  0.00  0.00    +0.046 C 
ATOM     12  C   UNL     1       0.997   0.430  -0.863  0.00  0.00    -0.023 A 
ATOM     13  C   UNL     1       1.200  -0.161  -2.096  0.00  0.00    +0.008 A 
ATOM     14  C   UNL     1       1.238  -1.538  -2.205  0.00  0.00    +0.039 A 
ATOM     15  C   UNL     1       1.072  -2.326  -1.078  0.00  0.00    +0.125 A 
ATOM     16  C   UNL     1       0.868  -1.733   0.156  0.00  0.00    +0.067 A 
ATOM     17  C   UNL     1       0.836  -0.355   0.263  0.00  0.00    +0.118 A 
ATOM     18  F   UNL     1       1.108  -3.672  -1.183  0.00  0.00    -0.205 F 
ENDBRANCH   8  17
ENDBRANCH   1   8
BRANCH   4  19
ATOM     19  C   UNL     1       4.059   4.089   5.610  0.00  0.00    +0.138 C 
BRANCH  19  20
ATOM     20  N   UNL     1       5.221   3.232   5.878  0.00  0.00    -0.292 NA
ATOM     21  C   UNL     1       6.449   4.030   5.993  0.00  0.00    +0.116 C 
ATOM     22  C   UNL     1       7.641   3.095   6.212  0.00  0.00    +0.130 C 
ATOM     23  O   UNL     1       7.405   2.295   7.374  0.00  0.00    -0.371 OA
ATOM     24  C   UNL     1       6.217   1.503   7.296  0.00  0.00    +0.130 C 
ATOM     25  C   UNL     1       5.011   2.423   7.088  0.00  0.00    +0.116 C 
ATOM     26  C   UNL     1       6.041   0.716   8.596  0.00  0.00    +0.039 C 
ATOM     27  C   UNL     1       8.912   3.924   6.411  0.00  0.00    +0.039 C 
ENDBRANCH  19  20
ENDBRANCH   4  19
TORSDOF 4
