REMARK  Name = ZINC57681243
REMARK  3 active torsions:
REMARK  status: ('A' for Active; 'I' for Inactive)
REMARK    1  A    between atoms: C_6  and  C_7
REMARK    2  A    between atoms: C_7  and  N_8
REMARK    3  A    between atoms: C_17  and  C_20
REMARK                            x       y       z     vdW  Elec       q    Type
REMARK                         _______ _______ _______ _____ _____    ______ ____
ROOT
ATOM      1  N   UNL     1      -1.754  -1.014  -1.364  0.00  0.00    -0.295 NA
ATOM      2  C   UNL     1      -0.816  -1.923  -2.034  0.00  0.00    +0.103 C 
ATOM      3  C   UNL     1      -1.170  -2.012  -3.522  0.00  0.00    +0.122 C 
ATOM      4  N   UNL     1      -2.588  -2.382  -3.643  0.00  0.00    -0.312 N 
ATOM      5  C   UNL     1      -3.579  -1.600  -2.888  0.00  0.00    +0.122 C 
ATOM      6  C   UNL     1      -3.129  -1.527  -1.425  0.00  0.00    +0.103 C 
ATOM      7  C   UNL     1      -2.981  -3.439  -4.446  0.00  0.00    +0.140 A 
ATOM      8  C   UNL     1      -2.068  -4.091  -5.264  0.00  0.00    +0.098 A 
ATOM      9  C   UNL     1      -2.473  -5.168  -6.080  0.00  0.00    +0.111 A 
ATOM     10  C   UNL     1      -1.372  -5.712  -6.859  0.00  0.00    +0.106 A 
ATOM     11  N   UNL     1      -0.181  -5.186  -6.739  0.00  0.00    -0.208 NA
ATOM     12  S   UNL     1      -0.342  -3.947  -5.624  0.00  0.00    +0.017 S 
ATOM     13  N   UNL     1      -3.776  -5.512  -6.013  0.00  0.00    -0.233 NA
ATOM     14  C   UNL     1      -4.605  -4.872  -5.228  0.00  0.00    +0.224 A 
ATOM     15  N   UNL     1      -4.243  -3.864  -4.452  0.00  0.00    -0.220 NA
ENDROOT
BRANCH  10  16
ATOM     16  C   UNL     1      -1.598  -6.852  -7.779  0.00  0.00    +0.003 A 
ATOM     17  C   UNL     1      -2.520  -7.845  -7.449  0.00  0.00    +0.011 A 
ATOM     18  C   UNL     1      -2.726  -8.904  -8.309  0.00  0.00    +0.020 A 
ATOM     19  C   UNL     1      -2.020  -8.981  -9.498  0.00  0.00    +0.041 A 
ATOM     20  C   UNL     1      -1.103  -7.998  -9.830  0.00  0.00    +0.020 A 
ATOM     21  C   UNL     1      -0.894  -6.932  -8.979  0.00  0.00    +0.011 A 
ATOM     22 CL   UNL     1      -2.285 -10.316 -10.575  0.00  0.00    -0.084 Cl
ENDBRANCH  10  16
BRANCH   1  23
ATOM     23  C   UNL     1      -1.346  -0.766   0.025  0.00  0.00    +0.119 C 
BRANCH  23  29
ATOM     24  C   UNL     1      -0.035   1.365   0.035  0.00  0.00    +0.006 A 
ATOM     25  C   UNL     1       1.164   2.053   0.048  0.00  0.00    +0.020 A 
ATOM     26  C   UNL     1       2.360   1.357   0.065  0.00  0.00    +0.041 A 
ATOM     27  C   UNL     1       2.355  -0.026   0.069  0.00  0.00    +0.020 A 
ATOM     28  C   UNL     1       1.156  -0.713   0.056  0.00  0.00    +0.006 A 
ATOM     29  C   UNL     1      -0.039  -0.017   0.039  0.00  0.00    -0.033 A 
ATOM     30 CL   UNL     1       3.866   2.220   0.081  0.00  0.00    -0.084 Cl
ENDBRANCH  23  29
ENDBRANCH   1  23
TORSDOF 3
