REMARK  Name = ZINC08324953
REMARK  11 active torsions:
REMARK  status: ('A' for Active; 'I' for Inactive)
REMARK    1  A    between atoms: C_1  and  C_2
REMARK    2  A    between atoms: C_2  and  O_3
REMARK    3  A    between atoms: O_3  and  C_4
REMARK    4  A    between atoms: C_7  and  C_13
REMARK    5  A    between atoms: C_9  and  O_10
REMARK    6  A    between atoms: O_10  and  C_11
REMARK    7  A    between atoms: C_11  and  C_12
REMARK    8  A    between atoms: C_13  and  N_60
REMARK    9  A    between atoms: C_14  and  C_16
REMARK   10  A    between atoms: C_14  and  C_17
REMARK   11  A    between atoms: C_14  and  N_60
REMARK                            x       y       z     vdW  Elec       q    Type
REMARK                         _______ _______ _______ _____ _____    ______ ____
ROOT
ATOM      1  N   UNL     1       3.963   0.051   3.695  0.00  0.00    +0.384 N 
ATOM      2  H   UNL     1       3.927   0.657   4.523  0.00  0.00    -0.085 HD
ATOM      3  H   UNL     1       3.966   0.629   2.847  0.00  0.00    -0.085 HD
ENDROOT
BRANCH   1   4
ATOM      4  C   UNL     1       5.196  -0.758   3.737  0.00  0.00    -0.068 C 
ATOM      5  C   UNL     1       5.522  -1.117   5.188  0.00  0.00    -0.013 C 
BRANCH   4   6
ATOM      6  C   UNL     1       6.348   0.051   3.140  0.00  0.00    -0.041 C 
ATOM      7  C   UNL     1       6.544   1.334   3.951  0.00  0.00    +0.009 C 
ATOM      8  C   UNL     1       7.697   2.144   3.354  0.00  0.00    -0.010 C 
ATOM      9  C   UNL     1       8.980   1.313   3.398  0.00  0.00    +0.007 C 
ATOM     10  C   UNL     1       8.785   0.030   2.587  0.00  0.00    -0.010 C 
ATOM     11  C   UNL     1       7.632  -0.780   3.184  0.00  0.00    +0.009 C 
ATOM     12  C   UNL     1       8.459   0.388   1.136  0.00  0.00    +0.007 C 
ATOM     13  C   UNL     1       7.175   1.220   1.093  0.00  0.00    -0.010 C 
ATOM     14  C   UNL     1       7.370   2.503   1.903  0.00  0.00    +0.007 C 
ATOM     15  C   UNL     1       6.022   0.410   1.689  0.00  0.00    +0.009 C 
ENDBRANCH   4   6
ENDBRANCH   1   4
BRANCH   1  16
ATOM     16  C   UNL     1       2.776  -0.825   3.682  0.00  0.00    -0.046 C 
BRANCH  16  20
ATOM     17  C   UNL     1      -0.745   1.600   3.566  0.00  0.00    +0.162 A 
ATOM     18  C   UNL     1      -0.201   1.221   4.783  0.00  0.00    +0.049 A 
ATOM     19  C   UNL     1       0.938   0.438   4.817  0.00  0.00    +0.005 A 
ATOM     20  C   UNL     1       1.534   0.028   3.639  0.00  0.00    -0.061 A 
ATOM     21  C   UNL     1       0.993   0.398   2.422  0.00  0.00    +0.051 A 
ATOM     22  C   UNL     1      -0.148   1.182   2.380  0.00  0.00    +0.162 A 
BRANCH  17  23
ATOM     23  O   UNL     1      -1.862   2.374   3.531  0.00  0.00    -0.489 OA
BRANCH  23  25
ATOM     24  C   UNL     1      -3.663   3.626   4.546  0.00  0.00    +0.048 C 
ATOM     25  C   UNL     1      -2.420   2.766   4.787  0.00  0.00    +0.226 C 
ENDBRANCH  23  25
ENDBRANCH  17  23
BRANCH  22  26
ATOM     26  O   UNL     1      -0.682   1.547   1.184  0.00  0.00    -0.489 OA
BRANCH  26  27
ATOM     27  C   UNL     1      -0.013   1.086   0.008  0.00  0.00    +0.226 C 
ATOM     28  C   UNL     1      -0.753   1.593  -1.232  0.00  0.00    +0.048 C 
ENDBRANCH  26  27
ENDBRANCH  22  26
ENDBRANCH  16  20
ENDBRANCH   1  16
TORSDOF 8
