REMARK  Name = ZINC22062008
REMARK  11 active torsions:
REMARK  status: ('A' for Active; 'I' for Inactive)
REMARK    1  A    between atoms: C_1  and  C_2
REMARK    2  A    between atoms: C_5  and  C_38
REMARK    3  A    between atoms: N_6  and  C_7
REMARK    4  A    between atoms: N_16  and  C_17
REMARK    5  A    between atoms: C_17  and  C_18
REMARK    6  A    between atoms: C_18  and  C_19
REMARK    7  A    between atoms: C_19  and  C_21
REMARK    8  A    between atoms: C_19  and  N_27
REMARK    9  A    between atoms: C_28  and  C_30
REMARK   10  A    between atoms: C_38  and  C_39
REMARK   11  A    between atoms: C_38  and  C_40
REMARK                            x       y       z     vdW  Elec       q    Type
REMARK                         _______ _______ _______ _____ _____    ______ ____
ROOT
ATOM      1  C   UNL     1      -2.983  -0.415   5.066  0.00  0.00    +0.008 C 
ENDROOT
BRANCH   1   2
ATOM      2  C   UNL     1      -3.614  -1.809   5.105  0.00  0.00    -0.076 C 
BRANCH   2  10
ATOM      3  C   UNL     1      -3.601  -3.644   9.008  0.00  0.00    +0.087 C 
ATOM      4  C   UNL     1      -3.029  -2.241   8.786  0.00  0.00    +0.010 C 
ATOM      5  C   UNL     1      -3.679  -1.631   7.534  0.00  0.00    -0.066 C 
ATOM      6  C   UNL     1      -5.206  -1.849   7.641  0.00  0.00    -0.017 C 
ATOM      7  C   UNL     1      -5.455  -3.227   6.993  0.00  0.00    -0.017 C 
ATOM      8  C   UNL     1      -4.056  -3.716   6.555  0.00  0.00    -0.066 C 
ATOM      9  C   UNL     1      -3.432  -4.478   7.735  0.00  0.00    +0.010 C 
ATOM     10  N   UNL     1      -3.271  -2.466   6.374  0.00  0.00    +0.384 N 
ATOM     11  H   UNL     1      -2.186  -2.637   6.322  0.00  0.00    -0.081 HD
BRANCH   3  17
ATOM     12  C   UNL     1      -4.876  -4.681  11.671  0.00  0.00    +0.088 C 
ATOM     13  C   UNL     1      -3.424  -4.745  11.272  0.00  0.00    +0.131 A 
ATOM     14  N   UNL     1      -2.449  -5.250  11.978  0.00  0.00    -0.135 NA
ATOM     15  N   UNL     1      -1.343  -5.138  11.331  0.00  0.00    -0.134 NA
ATOM     16  C   UNL     1      -1.563  -4.562  10.181  0.00  0.00    +0.136 A 
ATOM     17  N   UNL     1      -2.889  -4.291  10.113  0.00  0.00    -0.312 N 
BRANCH  16  18
ATOM     18  C   UNL     1      -0.533  -4.252   9.125  0.00  0.00    +0.051 C 
ATOM     19  C   UNL     1       0.530  -3.319   9.709  0.00  0.00    +0.015 C 
ATOM     20  C   UNL     1       0.128  -5.552   8.661  0.00  0.00    +0.015 C 
ENDBRANCH  16  18
ENDBRANCH   3  17
ENDBRANCH   2  10
ENDBRANCH   1   2
BRANCH   1  21
ATOM     21  C   UNL     1      -3.340   0.270   3.746  0.00  0.00    +0.101 C 
BRANCH  21  22
ATOM     22  C   UNL     1      -2.823   1.685   3.758  0.00  0.00    -0.027 A 
ATOM     23  C   UNL     1      -1.489   1.937   3.495  0.00  0.00    +0.005 A 
ATOM     24  C   UNL     1      -1.016   3.236   3.501  0.00  0.00    +0.000 A 
ATOM     25  C   UNL     1      -1.875   4.282   3.781  0.00  0.00    +0.000 A 
ATOM     26  C   UNL     1      -3.207   4.030   4.050  0.00  0.00    +0.000 A 
ATOM     27  C   UNL     1      -3.681   2.732   4.038  0.00  0.00    +0.005 A 
ENDBRANCH  21  22
BRANCH  21  28
ATOM     28  N   UNL     1      -2.728  -0.464   2.635  0.00  0.00    -0.308 N 
ATOM     29  C   UNL     1      -3.268  -0.393   1.402  0.00  0.00    +0.217 C 
ATOM     30  O   UNL     1      -4.260   0.278   1.212  0.00  0.00    -0.275 OA
ATOM     31  H   UNL     1      -1.827  -1.072   2.807  0.00  0.00    +0.149 HD
BRANCH  29  32
ATOM     32  C   UNL     1      -2.638  -1.147   0.259  0.00  0.00    +0.075 C 
ATOM     33  C   UNL     1      -1.200  -0.666   0.061  0.00  0.00    +0.018 C 
ATOM     34  C   UNL     1      -0.561  -1.432  -1.099  0.00  0.00    +0.076 C 
ATOM     35  C   UNL     1      -1.363  -1.182  -2.378  0.00  0.00    +0.249 C 
ATOM     36  C   UNL     1      -2.801  -1.664  -2.180  0.00  0.00    +0.076 C 
ATOM     37  C   UNL     1      -3.440  -0.898  -1.020  0.00  0.00    +0.018 C 
ATOM     38  F   UNL     1      -1.365   0.186  -2.668  0.00  0.00    -0.206 F 
ATOM     39  F   UNL     1      -0.779  -1.883  -3.439  0.00  0.00    -0.206 F 
ENDBRANCH  29  32
ENDBRANCH  21  28
ENDBRANCH   1  21
TORSDOF 8
