REMARK  Name = ZINC38344816
REMARK  11 active torsions:
REMARK  status: ('A' for Active; 'I' for Inactive)
REMARK    1  A    between atoms: C_1  and  N_2
REMARK    2  A    between atoms: N_2  and  C_3
REMARK    3  A    between atoms: N_2  and  C_4
REMARK    4  A    between atoms: C_4  and  C_6
REMARK    5  A    between atoms: C_4  and  C_19
REMARK    6  A    between atoms: C_6  and  N_7
REMARK    7  A    between atoms: N_7  and  C_8
REMARK    8  A    between atoms: C_22  and  O_27
REMARK    9  A    between atoms: C_23  and  O_25
REMARK   10  A    between atoms: O_25  and  C_26
REMARK   11  A    between atoms: O_27  and  C_28
REMARK                            x       y       z     vdW  Elec       q    Type
REMARK                         _______ _______ _______ _____ _____    ______ ____
ROOT
ATOM      1  C   UNL     1      -1.311  -0.067   0.124  0.00  0.00    -0.056 C 
ENDROOT
BRANCH   1   2
ATOM      2  C   UNL     1      -1.793   0.393  -1.228  0.00  0.00    -0.059 A 
ATOM      3  C   UNL     1      -1.004   0.195  -2.346  0.00  0.00    +0.006 A 
ATOM      4  C   UNL     1      -1.441   0.615  -3.588  0.00  0.00    +0.049 A 
ATOM      5  C   UNL     1      -2.673   1.236  -3.715  0.00  0.00    +0.161 A 
ATOM      6  C   UNL     1      -3.468   1.435  -2.590  0.00  0.00    +0.162 A 
ATOM      7  C   UNL     1      -3.026   1.007  -1.349  0.00  0.00    +0.051 A 
BRANCH   6   8
ATOM      8  O   UNL     1      -4.678   2.043  -2.710  0.00  0.00    -0.491 OA
ATOM      9  C   UNL     1      -5.440   2.214  -1.513  0.00  0.00    +0.277 C 
ENDBRANCH   6   8
BRANCH   5  10
ATOM     10  O   UNL     1      -3.105   1.650  -4.936  0.00  0.00    -0.491 OA
ATOM     11  C   UNL     1      -2.236   1.413  -6.046  0.00  0.00    +0.277 C 
ENDBRANCH   5  10
ENDBRANCH   1   2
BRANCH   1  13
ATOM     12  C   UNL     1       0.356   1.657   0.061  0.00  0.00    -0.096 C 
ATOM     13  N   UNL     1       0.124   0.220   0.256  0.00  0.00    +0.379 N 
ATOM     14  C   UNL     1       0.580  -0.172   1.596  0.00  0.00    -0.096 C 
ATOM     15  H   UNL     1       0.636  -0.301  -0.440  0.00  0.00    -0.082 HD
ENDBRANCH   1  13
BRANCH   1  16
ATOM     16  C   UNL     1      -1.546  -1.572   0.264  0.00  0.00    -0.093 C 
BRANCH  16  17
ATOM     17  N   UNL     1      -2.989  -1.845   0.256  0.00  0.00    +0.380 N 
ATOM     18  H   UNL     1      -3.430  -1.349   1.016  0.00  0.00    -0.086 HD
ATOM     19  H   UNL     1      -3.384  -1.539  -0.621  0.00  0.00    -0.086 HD
BRANCH  17  20
ATOM     20  C   UNL     1      -3.215  -3.288   0.417  0.00  0.00    -0.067 C 
ATOM     21  C   UNL     1      -4.719  -3.567   0.521  0.00  0.00    -0.011 C 
ATOM     22  C   UNL     1      -4.911  -5.027   0.925  0.00  0.00    +0.034 C 
ATOM     23  C   UNL     1      -4.120  -5.935   0.020  0.00  0.00    -0.044 A 
ATOM     24  C   UNL     1      -4.465  -7.281  -0.007  0.00  0.00    +0.004 A 
ATOM     25  C   UNL     1      -3.775  -8.165  -0.811  0.00  0.00    +0.000 A 
ATOM     26  C   UNL     1      -2.732  -7.709  -1.595  0.00  0.00    +0.000 A 
ATOM     27  C   UNL     1      -2.390  -6.373  -1.572  0.00  0.00    +0.004 A 
ATOM     28  C   UNL     1      -3.086  -5.480  -0.766  0.00  0.00    -0.046 A 
ATOM     29  C   UNL     1      -2.669  -4.033  -0.800  0.00  0.00    +0.019 C 
ENDBRANCH  17  20
ENDBRANCH  16  17
ENDBRANCH   1  16
TORSDOF 7
