REMARK  Name = ZINC21241589
REMARK  7 active torsions:
REMARK  status: ('A' for Active; 'I' for Inactive)
REMARK    1  A    between atoms: C_1  and  C_2
REMARK    2  A    between atoms: C_2  and  C_3
REMARK    3  A    between atoms: C_2  and  O_4
REMARK    4  A    between atoms: O_4  and  C_5
REMARK    5  A    between atoms: C_8  and  C_11
REMARK    6  A    between atoms: C_16  and  C_26
REMARK    7  A    between atoms: C_29  and  C_32
REMARK                            x       y       z     vdW  Elec       q    Type
REMARK                         _______ _______ _______ _____ _____    ______ ____
ROOT
ATOM      1  C   UNL     1      -4.296   0.196   7.343  0.00  0.00    +0.032 C 
ATOM      2  C   UNL     1      -5.217   0.589   6.189  0.00  0.00    +0.059 C 
ATOM      3  C   UNL     1      -4.691   1.845   5.513  0.00  0.00    +0.017 C 
ATOM      4  C   UNL     1      -3.371   2.075   5.439  0.00  0.00    +0.036 C 
ATOM      5  C   UNL     1      -2.712   3.256   4.768  0.00  0.00    +0.136 C 
ATOM      6  N   UNL     1      -3.622   4.321   4.401  0.00  0.00    -0.331 N 
ATOM      7  C   UNL     1      -4.619   4.120   3.448  0.00  0.00    +0.049 A 
ATOM      8  C   UNL     1      -4.611   4.797   2.239  0.00  0.00    +0.025 A 
ATOM      9  C   UNL     1      -5.597   4.531   1.304  0.00  0.00    +0.002 A 
ATOM     10  C   UNL     1      -6.580   3.596   1.571  0.00  0.00    +0.002 A 
ATOM     11  C   UNL     1      -6.601   2.930   2.785  0.00  0.00    +0.025 A 
ATOM     12  C   UNL     1      -5.628   3.211   3.728  0.00  0.00    +0.052 A 
ATOM     13  N   UNL     1      -5.651   2.659   5.004  0.00  0.00    -0.316 N 
ATOM     14  C   UNL     1      -2.455   1.169   6.027  0.00  0.00    +0.163 C 
ATOM     15  O   UNL     1      -1.265   1.396   5.934  0.00  0.00    -0.292 OA
ATOM     16  C   UNL     1      -2.901  -0.060   6.760  0.00  0.00    +0.088 C 
ATOM     17  H   UNL     1      -3.534   5.308   4.877  0.00  0.00    +0.147 HD
ATOM     18  H   UNL     1      -6.527   2.925   5.615  0.00  0.00    +0.152 HD
ENDROOT
BRANCH   1  22
ATOM     19  C   UNL     1      -5.759  -3.353   9.220  0.00  0.00    +0.121 A 
ATOM     20  C   UNL     1      -5.631  -2.182   9.953  0.00  0.00    +0.046 A 
ATOM     21  C   UNL     1      -5.158  -1.036   9.344  0.00  0.00    +0.007 A 
ATOM     22  C   UNL     1      -4.812  -1.055   8.005  0.00  0.00    -0.043 A 
ATOM     23  C   UNL     1      -4.944  -2.220   7.271  0.00  0.00    +0.007 A 
ATOM     24  C   UNL     1      -5.412  -3.370   7.877  0.00  0.00    +0.046 A 
BRANCH  19  25
ATOM     25  O   UNL     1      -6.225  -4.481   9.818  0.00  0.00    -0.489 OA
BRANCH  25  27
ATOM     26  C   UNL     1      -7.689  -5.469  11.467  0.00  0.00    +0.051 C 
ATOM     27  C   UNL     1      -6.676  -4.362  11.168  0.00  0.00    +0.167 C 
ATOM     28  C   UNL     1      -5.483  -4.492  12.117  0.00  0.00    +0.051 C 
ENDBRANCH  25  27
ENDBRANCH  19  25
ENDBRANCH   1  22
BRANCH   5  29
ATOM     29  C   UNL     1      -2.017   2.771   3.522  0.00  0.00    -0.023 A 
ATOM     30  C   UNL     1      -0.638   2.827   3.433  0.00  0.00    +0.006 A 
ATOM     31  C   UNL     1      -0.001   2.381   2.290  0.00  0.00    +0.013 A 
ATOM     32  C   UNL     1      -0.742   1.880   1.236  0.00  0.00    +0.055 A 
ATOM     33  C   UNL     1      -2.120   1.829   1.323  0.00  0.00    +0.013 A 
ATOM     34  C   UNL     1      -2.758   2.270   2.468  0.00  0.00    +0.006 A 
BRANCH  32  35
ATOM     35  C   UNL     1      -0.047   1.394  -0.010  0.00  0.00    +0.417 C 
ATOM     36  F   UNL     1       0.251   0.033   0.122  0.00  0.00    -0.166 F 
ATOM     37  F   UNL     1       1.138   2.115  -0.194  0.00  0.00    -0.166 F 
ATOM     38  F   UNL     1      -0.884   1.583  -1.115  0.00  0.00    -0.166 F 
ENDBRANCH  32  35
ENDBRANCH   5  29
TORSDOF 5
