REMARK  Name = ZINC11161919
REMARK  5 active torsions:
REMARK  status: ('A' for Active; 'I' for Inactive)
REMARK    1  A    between atoms: C_1  and  C_2
REMARK    2  A    between atoms: C_2  and  N_3
REMARK    3  A    between atoms: N_14  and  N_15
REMARK    4  A    between atoms: C_16  and  C_18
REMARK    5  A    between atoms: C_18  and  C_19
REMARK                            x       y       z     vdW  Elec       q    Type
REMARK                         _______ _______ _______ _____ _____    ______ ____
ROOT
ATOM      1  N   UNL     1      -3.451   7.033  -4.451  0.00  0.00    -0.280 N 
ATOM      2  C   UNL     1      -3.925   8.268  -4.733  0.00  0.00    +0.263 A 
ATOM      3  O   UNL     1      -4.077   8.638  -5.883  0.00  0.00    -0.267 OA
ATOM      4  C   UNL     1      -4.244   9.149  -3.602  0.00  0.00    +0.065 A 
ATOM      5  C   UNL     1      -4.733  10.442  -3.788  0.00  0.00    +0.015 A 
ATOM      6  C   UNL     1      -5.013  11.219  -2.698  0.00  0.00    +0.001 A 
ATOM      7  C   UNL     1      -4.816  10.736  -1.411  0.00  0.00    +0.002 A 
ATOM      8  C   UNL     1      -4.338   9.473  -1.200  0.00  0.00    +0.028 A 
ATOM      9  C   UNL     1      -4.043   8.654  -2.293  0.00  0.00    +0.080 A 
ATOM     10  N   UNL     1      -3.567   7.396  -2.131  0.00  0.00    -0.214 NA
ATOM     11  C   UNL     1      -3.290   6.631  -3.156  0.00  0.00    +0.216 A 
ATOM     12  N   UNL     1      -2.811   5.368  -2.919  0.00  0.00    -0.234 N 
ATOM     13  H   UNL     1      -2.598   4.782  -3.663  0.00  0.00    +0.173 HD
ENDROOT
BRANCH  12  14
ATOM     14  N   UNL     1      -2.628   4.924  -1.603  0.00  0.00    -0.234 N 
ATOM     15  C   UNL     1      -2.157   3.683  -1.370  0.00  0.00    +0.235 C 
ATOM     16  O   UNL     1      -1.891   2.950  -2.299  0.00  0.00    -0.274 OA
ATOM     17  H   UNL     1      -2.840   5.510  -0.860  0.00  0.00    +0.173 HD
BRANCH  15  18
ATOM     18  C   UNL     1      -1.960   3.205   0.046  0.00  0.00    +0.156 C 
BRANCH  18  19
ATOM     19  C   UNL     1      -1.428   1.795   0.031  0.00  0.00    +0.100 A 
ATOM     20  C   UNL     1      -0.017   1.400   0.010  0.00  0.00    +0.045 A 
ATOM     21  C   UNL     1       1.185   2.112   0.002  0.00  0.00    +0.013 A 
ATOM     22  C   UNL     1       2.373   1.438  -0.014  0.00  0.00    +0.001 A 
ATOM     23  C   UNL     1       2.396   0.051  -0.021  0.00  0.00    +0.004 A 
ATOM     24  C   UNL     1       1.222  -0.670  -0.014  0.00  0.00    +0.049 A 
ATOM     25  C   UNL     1       0.002  -0.004   0.002  0.00  0.00    +0.168 A 
ATOM     26  O   UNL     1      -1.281  -0.418   0.013  0.00  0.00    -0.354 OA
ATOM     27  N   UNL     1      -2.136   0.708   0.027  0.00  0.00    -0.082 NA
ENDBRANCH  18  19
ENDBRANCH  15  18
ENDBRANCH  12  14
BRANCH   1  29
ATOM     28  C   UNL     1      -4.343   5.288  -5.914  0.00  0.00    +0.027 C 
ATOM     29  C   UNL     1      -3.112   6.117  -5.543  0.00  0.00    +0.125 C 
ENDBRANCH   1  29
TORSDOF 4
