REMARK  Name = ZINC39520255
REMARK  4 active torsions:
REMARK  status: ('A' for Active; 'I' for Inactive)
REMARK    1  A    between atoms: C_1  and  C_2
REMARK    2  A    between atoms: C_2  and  C_3
REMARK    3  A    between atoms: C_2  and  S_4
REMARK    4  A    between atoms: S_4  and  C_7
REMARK                            x       y       z     vdW  Elec       q    Type
REMARK                         _______ _______ _______ _____ _____    ______ ____
ROOT
ATOM      1  C   UNL     1      -1.464  -2.425   0.157  0.00  0.00    +0.133 C 
ATOM      2  C   UNL     1      -0.626  -2.964  -1.029  0.00  0.00    +0.028 C 
ATOM      3  C   UNL     1      -1.020  -4.454  -1.124  0.00  0.00    +0.028 C 
ATOM      4  C   UNL     1      -2.407  -4.581  -0.477  0.00  0.00    +0.070 C 
ATOM      5  C   UNL     1      -2.813  -3.170  -0.004  0.00  0.00    +0.052 C 
ATOM      6  C   UNL     1      -2.337  -5.522   0.723  0.00  0.00    +0.103 C 
ATOM      7  C   UNL     1      -1.945  -6.924   0.245  0.00  0.00    +0.022 C 
ATOM      8  C   UNL     1      -2.958  -7.398  -0.801  0.00  0.00    +0.019 C 
ATOM      9  C   UNL     1      -2.992  -6.402  -1.962  0.00  0.00    +0.121 C 
ATOM     10  N   UNL     1      -3.375  -5.075  -1.460  0.00  0.00    -0.138 NA
ATOM     11  F   UNL     1      -4.576  -5.095  -0.962  0.00  0.00    -0.132 F 
ATOM     12 CL   UNL     1      -1.105  -4.918   1.892  0.00  0.00    -0.120 Cl
ENDROOT
BRANCH   1  13
ATOM     13  S   UNL     1      -1.700  -0.632   0.015  0.00  0.00    -0.026 S 
ATOM     14  O   UNL     1      -2.341  -0.168   1.195  0.00  0.00    -0.174 OA
ATOM     15  O   UNL     1      -2.291  -0.355  -1.247  0.00  0.00    -0.174 OA
BRANCH  13  17
ATOM     16  C   UNL     1      -0.019   1.526   0.010  0.00  0.00    +0.031 C 
ATOM     17  C   UNL     1       0.002  -0.004   0.002  0.00  0.00    +0.125 C 
ATOM     18  C   UNL     1       0.742  -0.511   1.242  0.00  0.00    +0.031 C 
ENDBRANCH  13  17
ENDBRANCH   1  13
TORSDOF 2
