REMARK  Name = ZINC20020373
REMARK  7 active torsions:
REMARK  status: ('A' for Active; 'I' for Inactive)
REMARK    1  A    between atoms: C_1  and  O_2
REMARK    2  A    between atoms: O_2  and  C_3
REMARK    3  A    between atoms: C_5  and  N_12
REMARK    4  A    between atoms: C_6  and  O_10
REMARK    5  A    between atoms: O_10  and  C_11
REMARK    6  A    between atoms: C_15  and  C_19
REMARK    7  A    between atoms: C_19  and  N_21
REMARK                            x       y       z     vdW  Elec       q    Type
REMARK                         _______ _______ _______ _____ _____    ______ ____
ROOT
ATOM      1  N   UNL     1      -0.079   0.008   0.141  0.00  0.00    -0.296 N 
ATOM      2  C   UNL     1       0.591  -0.635   1.176  0.00  0.00    +0.124 A 
ATOM      3  C   UNL     1       0.985   0.090   2.295  0.00  0.00    +0.054 A 
ATOM      4  C   UNL     1       1.652  -0.572   3.328  0.00  0.00    +0.008 A 
ATOM      5  C   UNL     1       1.906  -1.942   3.181  0.00  0.00    +0.030 A 
ATOM      6  C   UNL     1       1.486  -2.584   2.036  0.00  0.00    +0.113 A 
ATOM      7  N   UNL     1       0.853  -1.929   1.082  0.00  0.00    -0.240 NA
ATOM      8  H   UNL     1      -0.490  -0.577  -0.696  0.00  0.00    +0.154 HD
ENDROOT
BRANCH   1  11
ATOM      9  C   UNL     1      -1.637   3.337   0.368  0.00  0.00    +0.140 A 
ATOM     10  C   UNL     1      -1.489   1.958   0.341  0.00  0.00    +0.074 A 
ATOM     11  C   UNL     1      -0.232   1.400   0.163  0.00  0.00    +0.078 A 
ATOM     12  C   UNL     1       0.878   2.226   0.001  0.00  0.00    +0.143 A 
ATOM     13  C   UNL     1       0.725   3.602   0.023  0.00  0.00    +0.071 A 
ATOM     14  C   UNL     1      -0.529   4.157   0.207  0.00  0.00    +0.086 A 
ATOM     15 CL   UNL     1      -0.718   5.883   0.234  0.00  0.00    -0.080 Cl
BRANCH   9  17
ATOM     16  C   UNL     1      -3.979   2.986   0.586  0.00  0.00    +0.277 C 
ATOM     17  O   UNL     1      -2.868   3.885   0.548  0.00  0.00    -0.494 OA
ENDBRANCH   9  17
BRANCH  12  18
ATOM     18  O   UNL     1       2.112   1.681  -0.179  0.00  0.00    -0.493 OA
ATOM     19  C   UNL     1       3.205   2.588  -0.338  0.00  0.00    +0.277 C 
ENDBRANCH  12  18
ENDBRANCH   1  11
BRANCH   4  20
ATOM     20  C   UNL     1       2.085   0.156   4.540  0.00  0.00    +0.077 C 
ATOM     21  S   UNL     1       2.630   1.774   4.419  0.00  0.00    -0.035 S 
BRANCH  20  22
ATOM     22  N   UNL     1       2.051  -0.456   5.741  0.00  0.00    -0.352 N 
ATOM     23  H   UNL     1       2.373   0.085   6.643  0.00  0.00    +0.143 HD
ATOM     24  H   UNL     1       1.701  -1.496   5.819  0.00  0.00    +0.143 HD
ENDBRANCH  20  22
ENDBRANCH   4  20
TORSDOF 5
