REMARK  Name = ZINC13394613
REMARK  8 active torsions:
REMARK  status: ('A' for Active; 'I' for Inactive)
REMARK    1  A    between atoms: C_3  and  S_20
REMARK    2  A    between atoms: C_6  and  N_7
REMARK    3  A    between atoms: C_8  and  C_10
REMARK    4  A    between atoms: C_11  and  C_12
REMARK    5  A    between atoms: S_20  and  N_23
REMARK    6  A    between atoms: N_23  and  C_24
REMARK    7  A    between atoms: C_24  and  C_25
REMARK    8  A    between atoms: C_25  and  C_26
REMARK                            x       y       z     vdW  Elec       q    Type
REMARK                         _______ _______ _______ _____ _____    ______ ____
ROOT
ATOM      1  C   UNL     1       0.013  -0.008   0.187  0.00  0.00    +0.025 A 
ATOM      2  C   UNL     1      -0.008   1.373   0.199  0.00  0.00    +0.030 A 
ATOM      3  C   UNL     1       1.163   2.086   0.018  0.00  0.00    +0.105 A 
ATOM      4  C   UNL     1       2.359   1.419  -0.176  0.00  0.00    +0.030 A 
ATOM      5  C   UNL     1       2.387   0.038  -0.190  0.00  0.00    +0.025 A 
ATOM      6  C   UNL     1       1.213  -0.681  -0.008  0.00  0.00    +0.034 A 
ENDROOT
BRANCH   6   7
ATOM      7  N   UNL     1       1.238  -2.079  -0.021  0.00  0.00    -0.282 N 
ATOM      8  C   UNL     1       0.186  -2.767  -0.509  0.00  0.00    +0.241 C 
ATOM      9  O   UNL     1      -0.743  -2.173  -1.025  0.00  0.00    -0.270 OA
ATOM     10  H   UNL     1       2.012  -2.553   0.320  0.00  0.00    +0.155 HD
BRANCH   8  11
ATOM     11  C   UNL     1       0.162  -4.226  -0.418  0.00  0.00    +0.068 C 
ATOM     12  C   UNL     1      -0.891  -4.915  -0.906  0.00  0.00    +0.016 C 
BRANCH  12  13
ATOM     13  C   UNL     1      -0.915  -6.383  -0.814  0.00  0.00    +0.011 A 
ATOM     14  C   UNL     1       0.151  -7.069  -0.222  0.00  0.00    +0.026 A 
ATOM     15  C   UNL     1       0.120  -8.445  -0.140  0.00  0.00    +0.019 A 
ATOM     16  C   UNL     1      -0.962  -9.150  -0.642  0.00  0.00    +0.018 A 
ATOM     17  C   UNL     1      -2.021  -8.481  -1.229  0.00  0.00    +0.040 A 
ATOM     18  C   UNL     1      -2.009  -7.102  -1.314  0.00  0.00    +0.131 A 
ATOM     19  F   UNL     1      -3.046  -6.449  -1.883  0.00  0.00    -0.205 F 
ATOM     20 BR   UNL     1       1.560  -9.373   0.660  0.00  0.00    -0.050 Br
ENDBRANCH  12  13
ENDBRANCH   8  11
ENDBRANCH   6   7
BRANCH   3  21
ATOM     21  S   UNL     1       1.132   3.847   0.034  0.00  0.00    +0.058 S 
ATOM     22  O   UNL     1       2.268   4.281  -0.701  0.00  0.00    -0.153 OA
ATOM     23  O   UNL     1      -0.192   4.233  -0.311  0.00  0.00    -0.153 OA
BRANCH  21  24
ATOM     24  N   UNL     1       1.371   4.327   1.601  0.00  0.00    -0.189 NA
ATOM     25  H   UNL     1       0.666   4.792   2.079  0.00  0.00    +0.148 HD
BRANCH  24  26
ATOM     26  C   UNL     1       2.646   4.048   2.266  0.00  0.00    +0.117 C 
BRANCH  26  27
ATOM     27  C   UNL     1       2.756   4.896   3.534  0.00  0.00    +0.142 C 
BRANCH  27  28
ATOM     28  C   UNL     1       4.068   4.609   4.218  0.00  0.00    +0.357 C 
ATOM     29  O   UNL     1       4.836   3.808   3.740  0.00  0.00    -0.246 OA
ATOM     30  O   UNL     1       4.384   5.244   5.358  0.00  0.00    -0.246 OA
ENDBRANCH  27  28
ENDBRANCH  26  27
ENDBRANCH  24  26
ENDBRANCH  21  24
ENDBRANCH   3  21
TORSDOF 8
