REMARK  Name = ZINC54720394
REMARK  7 active torsions:
REMARK  status: ('A' for Active; 'I' for Inactive)
REMARK    1  A    between atoms: C_1  and  C_2
REMARK    2  A    between atoms: C_2  and  C_4
REMARK    3  A    between atoms: C_2  and  N_10
REMARK    4  A    between atoms: C_13  and  N_16
REMARK    5  A    between atoms: N_19  and  C_20
REMARK    6  A    between atoms: C_20  and  C_21
REMARK    7  A    between atoms: N_25  and  C_27
REMARK                            x       y       z     vdW  Elec       q    Type
REMARK                         _______ _______ _______ _____ _____    ______ ____
ROOT
ATOM      1  N   UNL     1      -3.530  -1.292  -2.771  0.00  0.00    -0.298 N 
ATOM      2  C   UNL     1      -4.731  -1.756  -3.169  0.00  0.00    +0.300 C 
ATOM      3  O   UNL     1      -5.604  -1.964  -2.349  0.00  0.00    -0.253 OA
ATOM      4  N   UNL     1      -4.964  -1.991  -4.475  0.00  0.00    -0.299 N 
ATOM      5  H   UNL     1      -2.833  -1.127  -3.426  0.00  0.00    +0.150 HD
ATOM      6  H   UNL     1      -4.268  -1.826  -5.130  0.00  0.00    +0.150 HD
ENDROOT
BRANCH   1  10
ATOM      7  N   UNL     1      -1.376  -0.512   0.012  0.00  0.00    +0.385 N 
ATOM      8  C   UNL     1      -1.385  -1.992  -0.122  0.00  0.00    -0.076 C 
ATOM      9  C   UNL     1      -2.796  -2.326  -0.653  0.00  0.00    +0.002 C 
ATOM     10  C   UNL     1      -3.276  -1.037  -1.351  0.00  0.00    +0.056 C 
ATOM     11  C   UNL     1      -2.116  -0.033  -1.183  0.00  0.00    -0.056 C 
ATOM     12  H   UNL     1      -1.850  -0.230   0.857  0.00  0.00    -0.081 HD
BRANCH   7  14
ATOM     13  C   UNL     1      -0.019   1.526   0.010  0.00  0.00    -0.008 C 
ATOM     14  C   UNL     1       0.002  -0.004   0.002  0.00  0.00    -0.041 C 
BRANCH  14  15
ATOM     15  C   UNL     1       0.731  -0.503   1.223  0.00  0.00    -0.061 A 
ATOM     16  C   UNL     1       0.081  -0.558   2.442  0.00  0.00    +0.002 A 
ATOM     17  C   UNL     1       0.749  -1.016   3.562  0.00  0.00    +0.000 A 
ATOM     18  C   UNL     1       2.068  -1.420   3.463  0.00  0.00    +0.000 A 
ATOM     19  C   UNL     1       2.718  -1.365   2.244  0.00  0.00    +0.000 A 
ATOM     20  C   UNL     1       2.048  -0.911   1.123  0.00  0.00    +0.002 A 
ENDBRANCH  14  15
ENDBRANCH   7  14
ENDBRANCH   1  10
BRANCH   4  21
ATOM     21  C   UNL     1      -6.270  -2.496  -4.907  0.00  0.00    +0.110 C 
BRANCH  21  22
ATOM     22  C   UNL     1      -6.271  -2.675  -6.427  0.00  0.00    +0.025 C 
ATOM     23  C   UNL     1      -6.236  -1.301  -7.148  0.00  0.00    +0.025 C 
ATOM     24  C   UNL     1      -6.910  -1.606  -8.503  0.00  0.00    +0.105 C 
ATOM     25  N   UNL     1      -7.733  -2.810  -8.320  0.00  0.00    -0.330 N 
ATOM     26  C   UNL     1      -7.622  -3.251  -6.918  0.00  0.00    +0.110 C 
BRANCH  25  27
ATOM     27  C   UNL     1      -8.494  -3.434  -9.312  0.00  0.00    +0.030 A 
ATOM     28  C   UNL     1      -9.236  -4.568  -9.009  0.00  0.00    +0.023 A 
ATOM     29  C   UNL     1      -9.989  -5.182  -9.991  0.00  0.00    +0.002 A 
ATOM     30  C   UNL     1     -10.002  -4.669 -11.275  0.00  0.00    +0.000 A 
ATOM     31  C   UNL     1      -9.264  -3.540 -11.580  0.00  0.00    +0.002 A 
ATOM     32  C   UNL     1      -8.514  -2.918 -10.601  0.00  0.00    +0.023 A 
ENDBRANCH  25  27
ENDBRANCH  21  22
ENDBRANCH   4  21
TORSDOF 6
