REMARK  Name = ZINC45592074
REMARK  6 active torsions:
REMARK  status: ('A' for Active; 'I' for Inactive)
REMARK    1  A    between atoms: C_10  and  C_11
REMARK    2  A    between atoms: C_11  and  C_12
REMARK    3  A    between atoms: N_14  and  C_15
REMARK    4  A    between atoms: C_15  and  C_16
REMARK    5  A    between atoms: N_18  and  N_19
REMARK    6  A    between atoms: C_20  and  C_22
REMARK                            x       y       z     vdW  Elec       q    Type
REMARK                         _______ _______ _______ _____ _____    ______ ____
ROOT
ATOM      1  C   UNL     1       8.132   2.341   2.970  0.00  0.00    +0.246 C 
ATOM      2  O   UNL     1       8.689   2.579   1.919  0.00  0.00    -0.273 OA
ATOM      3  N   UNL     1       8.669   2.769   4.129  0.00  0.00    -0.233 N 
ATOM      4  H   UNL     1       8.224   2.579   4.970  0.00  0.00    +0.173 HD
ENDROOT
BRANCH   3   5
ATOM      5  N   UNL     1       9.870   3.490   4.121  0.00  0.00    -0.230 N 
ATOM      6  C   UNL     1      10.407   3.918   5.280  0.00  0.00    +0.267 C 
ATOM      7  O   UNL     1       9.849   3.679   6.335  0.00  0.00    -0.268 OA
ATOM      8  H   UNL     1      10.316   3.680   3.280  0.00  0.00    +0.173 HD
BRANCH   6   9
ATOM      9  C   UNL     1      11.664   4.672   5.271  0.00  0.00    +0.076 A 
ATOM     10  C   UNL     1      12.377   5.191   6.334  0.00  0.00    +0.024 A 
ATOM     11  C   UNL     1      13.553   5.872   6.034  0.00  0.00    -0.036 A 
ATOM     12  C   UNL     1      13.883   5.961   4.719  0.00  0.00    -0.006 A 
ATOM     13  S   UNL     1      12.678   5.154   3.886  0.00  0.00    -0.088 S 
ATOM     14  C   UNL     1      15.079   6.638   4.115  0.00  0.00    +0.043 C 
ATOM     15  C   UNL     1      16.238   6.617   5.118  0.00  0.00    +0.005 C 
ATOM     16  C   UNL     1      16.151   7.867   5.988  0.00  0.00    +0.001 C 
ATOM     17  C   UNL     1      14.836   7.893   6.762  0.00  0.00    +0.005 C 
ATOM     18  C   UNL     1      14.413   6.477   7.140  0.00  0.00    +0.036 C 
ENDBRANCH   6   9
ENDBRANCH   3   5
BRANCH   1  19
ATOM     19  C   UNL     1       6.840   1.565   2.979  0.00  0.00    +0.201 C 
BRANCH  19  22
ATOM     20  C   UNL     1       5.341   0.519   1.367  0.00  0.00    +0.218 C 
ATOM     21  O   UNL     1       4.633   0.178   2.291  0.00  0.00    -0.275 OA
ATOM     22  N   UNL     1       6.469   1.218   1.605  0.00  0.00    -0.306 N 
ATOM     23  H   UNL     1       7.035   1.490   0.866  0.00  0.00    +0.149 HD
BRANCH  20  24
ATOM     24  C   UNL     1       4.960   0.161  -0.046  0.00  0.00    +0.131 C 
BRANCH  24  34
ATOM     25  C   UNL     1      -0.016   1.357   0.009  0.00  0.00    +0.001 A 
ATOM     26  C   UNL     1       1.169   2.091   0.002  0.00  0.00    +0.001 A 
ATOM     27  C   UNL     1       2.378   1.468  -0.013  0.00  0.00    +0.009 A 
ATOM     28  C   UNL     1       2.438   0.064  -0.021  0.00  0.00    -0.014 A 
ATOM     29  C   UNL     1       1.233  -0.683  -0.013  0.00  0.00    -0.018 A 
ATOM     30  C   UNL     1       0.002  -0.004   0.002  0.00  0.00    +0.008 A 
ATOM     31  C   UNL     1       1.292  -2.087  -0.021  0.00  0.00    +0.008 A 
ATOM     32  C   UNL     1       2.502  -2.709  -0.036  0.00  0.00    +0.001 A 
ATOM     33  C   UNL     1       3.687  -1.976  -0.043  0.00  0.00    +0.005 A 
ATOM     34  C   UNL     1       3.668  -0.615  -0.037  0.00  0.00    -0.031 A 
ENDBRANCH  24  34
ENDBRANCH  20  24
ENDBRANCH  19  22
ENDBRANCH   1  19
TORSDOF 6
