REMARK  Name = ZINC36634673
REMARK  6 active torsions:
REMARK  status: ('A' for Active; 'I' for Inactive)
REMARK    1  A    between atoms: C_1  and  C_2
REMARK    2  A    between atoms: C_6  and  N_9
REMARK    3  A    between atoms: C_7  and  C_8
REMARK    4  A    between atoms: C_23  and  S_24
REMARK    5  A    between atoms: S_24  and  C_25
REMARK    6  A    between atoms: C_25  and  C_26
REMARK                            x       y       z     vdW  Elec       q    Type
REMARK                         _______ _______ _______ _____ _____    ______ ____
ROOT
ATOM      1  N   UNL     1       0.050  -2.798   2.394  0.00  0.00    -0.254 N 
ATOM      2  C   UNL     1      -1.114  -3.158   2.976  0.00  0.00    +0.283 A 
ATOM      3  O   UNL     1      -2.182  -2.872   2.461  0.00  0.00    -0.265 OA
ATOM      4  C   UNL     1      -1.069  -3.872   4.191  0.00  0.00    +0.132 A 
ATOM      5  C   UNL     1       0.176  -4.175   4.740  0.00  0.00    +0.104 A 
ATOM      6  C   UNL     1      -0.084  -4.910   5.985  0.00  0.00    +0.026 A 
ATOM      7  C   UNL     1       0.741  -5.471   6.961  0.00  0.00    +0.012 A 
ATOM      8  C   UNL     1       0.189  -6.111   8.035  0.00  0.00    +0.001 A 
ATOM      9  C   UNL     1      -1.190  -6.208   8.163  0.00  0.00    +0.002 A 
ATOM     10  C   UNL     1      -2.023  -5.662   7.212  0.00  0.00    +0.026 A 
ATOM     11  C   UNL     1      -1.481  -5.005   6.109  0.00  0.00    +0.049 A 
ATOM     12  N   UNL     1      -2.055  -4.377   5.025  0.00  0.00    -0.349 N 
ATOM     13  H   UNL     1      -3.009  -4.299   4.868  0.00  0.00    +0.166 HD
ATOM     14  N   UNL     1       1.297  -3.787   4.110  0.00  0.00    -0.221 NA
ATOM     15  C   UNL     1       1.243  -3.127   2.975  0.00  0.00    +0.177 A 
ENDROOT
BRANCH   1  21
ATOM     16  C   UNL     1      -0.018   1.503   0.010  0.00  0.00    +0.044 C 
ATOM     17  C   UNL     1       0.002  -0.004   0.002  0.00  0.00    -0.046 A 
ATOM     18  C   UNL     1       0.006  -0.688  -1.200  0.00  0.00    +0.004 A 
ATOM     19  C   UNL     1       0.024  -2.071  -1.212  0.00  0.00    +0.002 A 
ATOM     20  C   UNL     1       0.039  -2.773  -0.022  0.00  0.00    +0.026 A 
ATOM     21  C   UNL     1       0.035  -2.089   1.186  0.00  0.00    +0.055 A 
ATOM     22  C   UNL     1       0.023  -0.700   1.194  0.00  0.00    -0.024 A 
ATOM     23  C   UNL     1       0.026   0.046   2.504  0.00  0.00    +0.046 C 
ENDBRANCH   1  21
BRANCH  15  24
ATOM     24  S   UNL     1       2.744  -2.648   2.186  0.00  0.00    -0.083 S 
BRANCH  24  25
ATOM     25  C   UNL     1       4.039  -3.281   3.287  0.00  0.00    +0.112 C 
BRANCH  25  26
ATOM     26  C   UNL     1       5.393  -2.936   2.721  0.00  0.00    -0.037 A 
ATOM     27  C   UNL     1       6.021  -3.807   1.851  0.00  0.00    +0.005 A 
ATOM     28  C   UNL     1       7.262  -3.490   1.331  0.00  0.00    +0.015 A 
ATOM     29  C   UNL     1       7.875  -2.301   1.682  0.00  0.00    +0.018 A 
ATOM     30  C   UNL     1       7.246  -1.429   2.553  0.00  0.00    +0.015 A 
ATOM     31  C   UNL     1       6.003  -1.745   3.068  0.00  0.00    +0.005 A 
ATOM     32 BR   UNL     1       9.573  -1.867   0.972  0.00  0.00    -0.050 Br
ENDBRANCH  25  26
ENDBRANCH  24  25
ENDBRANCH  15  24
TORSDOF 4
