REMARK  Name = ZINC64983373
REMARK  8 active torsions:
REMARK  status: ('A' for Active; 'I' for Inactive)
REMARK    1  A    between atoms: C_1  and  C_2
REMARK    2  A    between atoms: C_5  and  C_23
REMARK    3  A    between atoms: C_6  and  O_8
REMARK    4  A    between atoms: O_8  and  C_9
REMARK    5  A    between atoms: C_9  and  C_11
REMARK    6  A    between atoms: C_9  and  C_12
REMARK    7  A    between atoms: N_14  and  C_15
REMARK    8  A    between atoms: C_18  and  C_22
REMARK                            x       y       z     vdW  Elec       q    Type
REMARK                         _______ _______ _______ _____ _____    ______ ____
ROOT
ATOM      1  C   UNL     1       0.970  -2.772   4.573  0.00  0.00    +0.258 C 
ATOM      2  O   UNL     1       1.423  -3.861   4.291  0.00  0.00    -0.271 OA
ATOM      3  N   UNL     1       1.210  -2.235   5.786  0.00  0.00    -0.282 N 
ATOM      4  H   UNL     1       0.796  -1.394   6.034  0.00  0.00    +0.155 HD
ENDROOT
BRANCH   3   5
ATOM      5  C   UNL     1       2.057  -2.892   6.686  0.00  0.00    +0.048 A 
ATOM      6  C   UNL     1       2.084  -4.279   6.730  0.00  0.00    +0.025 A 
ATOM      7  C   UNL     1       2.921  -4.924   7.620  0.00  0.00    +0.005 A 
ATOM      8  C   UNL     1       3.731  -4.190   8.467  0.00  0.00    -0.049 A 
ATOM      9  C   UNL     1       3.705  -2.808   8.427  0.00  0.00    +0.020 A 
ATOM     10  C   UNL     1       2.875  -2.157   7.535  0.00  0.00    +0.039 A 
ATOM     11 BR   UNL     1       2.846  -0.267   7.475  0.00  0.00    -0.048 Br
ATOM     12  C   UNL     1       4.642  -4.898   9.437  0.00  0.00    +0.044 C 
ENDBRANCH   3   5
BRANCH   1  13
ATOM     13  C   UNL     1       0.137  -2.020   3.567  0.00  0.00    +0.256 C 
ATOM     14  C   UNL     1      -1.258  -1.770   4.144  0.00  0.00    +0.062 C 
BRANCH  13  15
ATOM     15  O   UNL     1       0.026  -2.790   2.369  0.00  0.00    -0.480 OA
BRANCH  15  21
ATOM     16  C   UNL     1      -0.254   1.481   0.023  0.00  0.00    +0.044 C 
ATOM     17  C   UNL     1      -0.164  -0.024   0.014  0.00  0.00    -0.047 A 
ATOM     18  C   UNL     1      -0.137  -0.707  -1.188  0.00  0.00    +0.004 A 
ATOM     19  C   UNL     1      -0.056  -2.087  -1.200  0.00  0.00    +0.007 A 
ATOM     20  C   UNL     1      -0.001  -2.787  -0.010  0.00  0.00    -0.009 A 
ATOM     21  C   UNL     1      -0.028  -2.104   1.197  0.00  0.00    +0.125 A 
ATOM     22  C   UNL     1      -0.104  -0.718   1.206  0.00  0.00    +0.049 A 
ATOM     23  C   UNL     1       0.087  -4.291  -0.023  0.00  0.00    +0.047 C 
ENDBRANCH  15  21
ENDBRANCH  13  15
ENDBRANCH   1  13
TORSDOF 4
