REMARK  Name = ZINC06443619
REMARK  9 active torsions:
REMARK  status: ('A' for Active; 'I' for Inactive)
REMARK    1  A    between atoms: C_1  and  C_2
REMARK    2  A    between atoms: C_12  and  C_14
REMARK    3  A    between atoms: C_14  and  C_16
REMARK    4  A    between atoms: C_14  and  N_67
REMARK    5  A    between atoms: N_20  and  C_21
REMARK    6  A    between atoms: C_26  and  C_27
REMARK    7  A    between atoms: C_26  and  N_67
REMARK    8  A    between atoms: C_34  and  C_35
REMARK    9  A    between atoms: C_34  and  N_67
REMARK                            x       y       z     vdW  Elec       q    Type
REMARK                         _______ _______ _______ _____ _____    ______ ____
ROOT
ATOM      1  C   UNL     1       0.154  -2.970   4.721  0.00  0.00    +0.040 C 
ENDROOT
BRANCH   1  13
ATOM      2  C   UNL     1      -0.263  -1.124  -1.574  0.00  0.00    +0.046 C 
ATOM      3  C   UNL     1      -0.098  -2.483  -0.944  0.00  0.00    -0.026 A 
ATOM      4  C   UNL     1      -0.014  -3.607  -1.737  0.00  0.00    +0.005 A 
ATOM      5  C   UNL     1       0.145  -4.864  -1.170  0.00  0.00    +0.001 A 
ATOM      6  C   UNL     1       0.208  -5.011   0.187  0.00  0.00    +0.010 A 
ATOM      7  C   UNL     1       0.119  -3.885   1.012  0.00  0.00    -0.001 A 
ATOM      8  C   UNL     1      -0.035  -2.608   0.439  0.00  0.00    +0.052 A 
ATOM      9  N   UNL     1      -0.122  -1.501   1.257  0.00  0.00    -0.322 N 
ATOM     10  H   UNL     1      -0.229  -0.622   0.861  0.00  0.00    +0.169 HD
ATOM     11  C   UNL     1      -0.063  -1.623   2.594  0.00  0.00    +0.251 A 
ATOM     12  O   UNL     1      -0.144  -0.623   3.286  0.00  0.00    -0.268 OA
ATOM     13  C   UNL     1       0.091  -2.880   3.218  0.00  0.00    +0.011 A 
ATOM     14  C   UNL     1       0.184  -4.006   2.469  0.00  0.00    +0.017 A 
ENDBRANCH   1  13
BRANCH   1  15
ATOM     15  C   UNL     1       1.365  -2.224   5.218  0.00  0.00    +0.143 A 
ATOM     16  N   UNL     1       1.431  -0.949   5.516  0.00  0.00    -0.115 NA
ATOM     17  N   UNL     1       2.633  -0.693   5.905  0.00  0.00    -0.023 NA
ATOM     18  N   UNL     1       3.335  -1.771   5.862  0.00  0.00    -0.044 NA
ATOM     19  N   UNL     1       2.587  -2.738   5.449  0.00  0.00    -0.227 N 
BRANCH  19  20
ATOM     20  C   UNL     1       2.993  -4.134   5.263  0.00  0.00    +0.111 C 
ATOM     21  C   UNL     1       3.676  -4.661   6.541  0.00  0.00    +0.027 C 
ATOM     22  C   UNL     1       4.809  -5.579   6.016  0.00  0.00    +0.002 C 
ATOM     23  C   UNL     1       5.315  -4.817   4.766  0.00  0.00    +0.002 C 
ATOM     24  C   UNL     1       4.035  -4.233   4.134  0.00  0.00    +0.027 C 
ENDBRANCH  19  20
ENDBRANCH   1  15
BRANCH   1  25
ATOM     25  N   UNL     1      -1.061  -2.348   5.288  0.00  0.00    +0.397 N 
ATOM     26  H   UNL     1      -1.142  -1.388   4.931  0.00  0.00    -0.079 HD
BRANCH  25  27
ATOM     27  C   UNL     1      -2.258  -3.114   4.880  0.00  0.00    -0.039 C 
BRANCH  27  28
ATOM     28  C   UNL     1      -3.489  -2.352   5.299  0.00  0.00    -0.046 A 
ATOM     29  C   UNL     1      -4.198  -2.747   6.418  0.00  0.00    +0.003 A 
ATOM     30  C   UNL     1      -5.325  -2.046   6.805  0.00  0.00    +0.000 A 
ATOM     31  C   UNL     1      -5.748  -0.955   6.067  0.00  0.00    +0.001 A 
ATOM     32  C   UNL     1      -5.043  -0.563   4.946  0.00  0.00    +0.020 A 
ATOM     33  C   UNL     1      -3.912  -1.262   4.561  0.00  0.00    +0.042 A 
ATOM     34 CL   UNL     1      -3.025  -0.770   3.152  0.00  0.00    -0.083 Cl
ENDBRANCH  27  28
ENDBRANCH  25  27
BRANCH  25  35
ATOM     35  C   UNL     1      -0.966  -2.306   6.762  0.00  0.00    -0.001 C 
BRANCH  35  36
ATOM     36  C   UNL     1      -0.831  -3.698   7.323  0.00  0.00    +0.089 A 
ATOM     37  C   UNL     1       0.325  -4.318   7.620  0.00  0.00    +0.042 A 
ATOM     38  C   UNL     1      -0.012  -5.599   8.115  0.00  0.00    +0.041 A 
ATOM     39  C   UNL     1      -1.354  -5.685   8.092  0.00  0.00    +0.195 A 
ATOM     40  O   UNL     1      -1.845  -4.529   7.616  0.00  0.00    -0.470 OA
ENDBRANCH  35  36
ENDBRANCH  25  35
ENDBRANCH   1  25
TORSDOF 8
