REMARK  Name = ZINC15830248
REMARK  6 active torsions:
REMARK  status: ('A' for Active; 'I' for Inactive)
REMARK    1  A    between atoms: C_1  and  C_2
REMARK    2  A    between atoms: C_5  and  C_8
REMARK    3  A    between atoms: C_11  and  C_27
REMARK    4  A    between atoms: N_17  and  C_20
REMARK    5  A    between atoms: C_20  and  C_21
REMARK    6  A    between atoms: C_32  and  O_33
REMARK                            x       y       z     vdW  Elec       q    Type
REMARK                         _______ _______ _______ _____ _____    ______ ____
ROOT
ATOM      1  C   UNL     1       0.059  -4.275  -0.021  0.00  0.00    +0.092 C 
ATOM      2  C   UNL     1      -1.350  -4.812   0.249  0.00  0.00    +0.079 C 
ATOM      3  C   UNL     1      -1.275  -6.282   0.555  0.00  0.00    +0.050 C 
ATOM      4  N   UNL     1      -0.184  -6.879   0.859  0.00  0.00    -0.266 NA
ATOM      5  C   UNL     1       1.116  -6.222   0.935  0.00  0.00    +0.109 C 
ATOM      6  N   UNL     1       0.952  -4.767   1.042  0.00  0.00    -0.286 NA
ATOM      7  C   UNL     1       1.878  -6.736   2.161  0.00  0.00    +0.027 C 
ATOM      8  C   UNL     1       2.128  -8.238   2.005  0.00  0.00    -0.075 C 
ATOM      9  N   UNL     1       2.925  -8.482   0.796  0.00  0.00    +0.383 N 
ATOM     10  C   UNL     1       2.175  -8.053  -0.391  0.00  0.00    -0.075 C 
ATOM     11  C   UNL     1       1.927  -6.545  -0.325  0.00  0.00    +0.027 C 
ATOM     12  H   UNL     1       1.845  -4.298   1.011  0.00  0.00    +0.125 HD
ATOM     13  H   UNL     1       3.788  -7.963   0.853  0.00  0.00    -0.081 HD
ENDROOT
BRANCH   1  18
ATOM     14  C   UNL     1      -0.018   1.503   0.010  0.00  0.00    +0.044 C 
ATOM     15  C   UNL     1       0.002  -0.004   0.002  0.00  0.00    -0.050 A 
ATOM     16  C   UNL     1       0.006  -0.689  -1.199  0.00  0.00    +0.003 A 
ATOM     17  C   UNL     1       0.025  -2.071  -1.206  0.00  0.00    +0.005 A 
ATOM     18  C   UNL     1       0.040  -2.768  -0.013  0.00  0.00    -0.030 A 
ATOM     19  C   UNL     1       0.037  -2.084   1.188  0.00  0.00    +0.005 A 
ATOM     20  C   UNL     1       0.023  -0.702   1.195  0.00  0.00    +0.003 A 
ENDBRANCH   1  18
BRANCH   3  21
ATOM     21  C   UNL     1      -2.518  -7.073   0.505  0.00  0.00    +0.039 A 
ATOM     22  C   UNL     1      -3.728  -6.459   0.173  0.00  0.00    +0.033 A 
ATOM     23  C   UNL     1      -4.888  -7.205   0.128  0.00  0.00    +0.042 A 
ATOM     24  C   UNL     1      -4.857  -8.562   0.411  0.00  0.00    +0.023 A 
ATOM     25  C   UNL     1      -3.666  -9.180   0.741  0.00  0.00    +0.047 A 
ATOM     26  C   UNL     1      -2.491  -8.446   0.784  0.00  0.00    +0.126 A 
ATOM     27 CL   UNL     1      -6.391  -6.442  -0.284  0.00  0.00    -0.084 Cl
BRANCH  26  28
ATOM     28  O   UNL     1      -1.320  -9.054   1.103  0.00  0.00    -0.506 OA
ATOM     29  H   UNL     1      -1.124  -9.059   2.049  0.00  0.00    +0.292 HD
ENDBRANCH  26  28
ENDBRANCH   3  21
BRANCH   9  30
ATOM     30  C   UNL     1       3.226  -9.916   0.692  0.00  0.00    -0.043 C 
BRANCH  30  31
ATOM     31  C   UNL     1       4.145 -10.152  -0.478  0.00  0.00    -0.064 A 
ATOM     32  C   UNL     1       3.619 -10.402  -1.732  0.00  0.00    +0.002 A 
ATOM     33  C   UNL     1       4.462 -10.619  -2.805  0.00  0.00    +0.000 A 
ATOM     34  C   UNL     1       5.832 -10.585  -2.626  0.00  0.00    +0.000 A 
ATOM     35  C   UNL     1       6.359 -10.335  -1.373  0.00  0.00    +0.000 A 
ATOM     36  C   UNL     1       5.516 -10.114  -0.300  0.00  0.00    +0.002 A 
ENDBRANCH  30  31
ENDBRANCH   9  30
TORSDOF 5
