REMARK  Name = ZINC38612876
REMARK  9 active torsions:
REMARK  status: ('A' for Active; 'I' for Inactive)
REMARK    1  A    between atoms: C_1  and  C_2
REMARK    2  A    between atoms: C_2  and  C_3
REMARK    3  A    between atoms: C_3  and  C_4
REMARK    4  A    between atoms: C_6  and  C_18
REMARK    5  A    between atoms: C_8  and  C_16
REMARK    6  A    between atoms: C_9  and  N_15
REMARK    7  A    between atoms: C_21  and  O_24
REMARK    8  A    between atoms: O_24  and  C_25
REMARK    9  A    between atoms: C_25  and  C_26
REMARK                            x       y       z     vdW  Elec       q    Type
REMARK                         _______ _______ _______ _____ _____    ______ ____
ROOT
ATOM      1  C   UNL     1       0.762  -2.018   1.233  0.00  0.00    +0.069 C 
ATOM      2  C   UNL     1       1.746  -2.751   0.770  0.00  0.00    +0.030 C 
ATOM      3  C   UNL     1       3.127  -2.434   0.266  0.00  0.00    +0.098 C 
ATOM      4  C   UNL     1       4.032  -3.497   0.862  0.00  0.00    +0.097 C 
ATOM      5  C   UNL     1       3.534  -4.566   1.517  0.00  0.00    +0.195 C 
ATOM      6  O   UNL     1       2.236  -4.830   1.755  0.00  0.00    -0.448 OA
ATOM      7  C   UNL     1       1.268  -4.196   0.915  0.00  0.00    +0.343 C 
ATOM      8  N   UNL     1      -0.023  -4.024   1.590  0.00  0.00    -0.138 NA
ATOM      9  N   UNL     1      -0.232  -2.810   1.710  0.00  0.00    -0.155 NA
ENDROOT
BRANCH   3  10
ATOM     10  C   UNL     1       3.160  -2.502  -1.240  0.00  0.00    -0.035 A 
ATOM     11  C   UNL     1       2.838  -3.682  -1.885  0.00  0.00    +0.008 A 
ATOM     12  C   UNL     1       2.868  -3.747  -3.264  0.00  0.00    +0.046 A 
ATOM     13  C   UNL     1       3.222  -2.627  -4.003  0.00  0.00    +0.121 A 
ATOM     14  C   UNL     1       3.544  -1.444  -3.353  0.00  0.00    +0.046 A 
ATOM     15  C   UNL     1       3.507  -1.383  -1.973  0.00  0.00    +0.008 A 
BRANCH  13  16
ATOM     16  O   UNL     1       3.253  -2.688  -5.360  0.00  0.00    -0.487 OA
BRANCH  16  17
ATOM     17  C   UNL     1       3.626  -1.497  -6.055  0.00  0.00    +0.264 C 
BRANCH  17  18
ATOM     18  C   UNL     1       3.604  -1.754  -7.540  0.00  0.00    -0.010 A 
ATOM     19  C   UNL     1       4.741  -2.212  -8.178  0.00  0.00    +0.008 A 
ATOM     20  C   UNL     1       4.722  -2.448  -9.540  0.00  0.00    +0.020 A 
ATOM     21  C   UNL     1       3.564  -2.225 -10.264  0.00  0.00    +0.041 A 
ATOM     22  C   UNL     1       2.427  -1.766  -9.624  0.00  0.00    +0.020 A 
ATOM     23  C   UNL     1       2.445  -1.536  -8.262  0.00  0.00    +0.008 A 
ATOM     24 CL   UNL     1       3.540  -2.520 -11.974  0.00  0.00    -0.084 Cl
ENDBRANCH  17  18
ENDBRANCH  16  17
ENDBRANCH  13  16
ENDBRANCH   3  10
BRANCH   5  25
ATOM     25  N   UNL     1       4.444  -5.479   1.987  0.00  0.00    -0.329 N 
ATOM     26  H   UNL     1       5.392  -5.337   1.842  0.00  0.00    +0.145 HD
ATOM     27  H   UNL     1       4.139  -6.266   2.465  0.00  0.00    +0.145 HD
ENDBRANCH   5  25
BRANCH   4  28
ATOM     28  C   UNL     1       5.451  -3.361   0.725  0.00  0.00    +0.101 C 
ATOM     29  N   UNL     1       6.576  -3.254   0.617  0.00  0.00    -0.191 NA
ENDBRANCH   4  28
BRANCH   1  30
ATOM     30  C   UNL     1       0.742  -0.511   1.242  0.00  0.00    +0.057 C 
BRANCH  30  32
ATOM     31  C   UNL     1      -0.019   1.526   0.010  0.00  0.00    +0.004 C 
ATOM     32  C   UNL     1       0.002  -0.004   0.002  0.00  0.00    +0.003 C 
ENDBRANCH  30  32
ENDBRANCH   1  30
TORSDOF 8
