REMARK  Name = ZINC22785756
REMARK  5 active torsions:
REMARK  status: ('A' for Active; 'I' for Inactive)
REMARK    1  A    between atoms: C_3  and  C_6
REMARK    2  A    between atoms: C_8  and  C_11
REMARK    3  A    between atoms: C_11  and  N_12
REMARK    4  A    between atoms: N_15  and  C_18
REMARK    5  A    between atoms: C_18  and  C_19
REMARK                            x       y       z     vdW  Elec       q    Type
REMARK                         _______ _______ _______ _____ _____    ______ ____
ROOT
ATOM      1  N   UNL     1       7.908   1.453  -1.453  0.00  0.00    +0.385 N 
ATOM      2  C   UNL     1       7.900   2.822  -1.985  0.00  0.00    -0.063 C 
ATOM      3  C   UNL     1       8.392   2.809  -3.434  0.00  0.00    +0.066 C 
ATOM      4  N   UNL     1       9.751   2.253  -3.482  0.00  0.00    -0.300 NA
ATOM      5  C   UNL     1       9.779   0.892  -2.930  0.00  0.00    +0.066 C 
ATOM      6  C   UNL     1       9.276   0.920  -1.485  0.00  0.00    -0.063 C 
ATOM      7  H   UNL     1       7.307   0.870  -2.017  0.00  0.00    -0.081 HD
ENDROOT
BRANCH   1   8
ATOM      8  C   UNL     1       7.419   1.463  -0.068  0.00  0.00    -0.019 C 
BRANCH   8  11
ATOM      9  C   UNL     1       3.739   1.809  -0.024  0.00  0.00    +0.174 A 
ATOM     10  C   UNL     1       4.865   1.038  -0.044  0.00  0.00    +0.074 A 
ATOM     11  C   UNL     1       5.974   1.893  -0.048  0.00  0.00    +0.068 A 
ATOM     12  N   UNL     1       5.544   3.124  -0.031  0.00  0.00    -0.085 NA
ATOM     13  O   UNL     1       4.128   3.099  -0.021  0.00  0.00    -0.354 OA
BRANCH   9  16
ATOM     14  C   UNL     1      -0.016   1.355   0.009  0.00  0.00    +0.008 A 
ATOM     15  C   UNL     1       1.174   2.044   0.002  0.00  0.00    +0.019 A 
ATOM     16  C   UNL     1       2.353   1.321  -0.013  0.00  0.00    +0.057 A 
ATOM     17  S   UNL     1       1.751  -0.360  -0.017  0.00  0.00    -0.093 S 
ATOM     18  C   UNL     1       0.002  -0.004   0.002  0.00  0.00    +0.046 A 
ENDBRANCH   9  16
ENDBRANCH   8  11
ENDBRANCH   1   8
BRANCH   4  19
ATOM     19  C   UNL     1      10.281   2.276  -4.853  0.00  0.00    +0.137 C 
BRANCH  19  20
ATOM     20  C   UNL     1      11.749   1.934  -4.829  0.00  0.00    +0.037 A 
ATOM     21  C   UNL     1      12.211   0.784  -5.433  0.00  0.00    +0.093 A 
ATOM     22  C   UNL     1      13.573   0.485  -5.402  0.00  0.00    +0.259 A 
ATOM     23  O   UNL     1      13.987  -0.532  -5.935  0.00  0.00    -0.267 OA
ATOM     24  N   UNL     1      14.443   1.331  -4.774  0.00  0.00    -0.264 N 
ATOM     25  C   UNL     1      15.803   1.175  -4.659  0.00  0.00    +0.104 A 
ATOM     26  C   UNL     1      16.547   2.075  -4.018  0.00  0.00    +0.067 A 
ATOM     27  S   UNL     1      15.319   3.267  -3.506  0.00  0.00    -0.059 S 
ATOM     28  C   UNL     1      13.899   2.450  -4.201  0.00  0.00    +0.158 A 
ATOM     29  N   UNL     1      12.622   2.740  -4.231  0.00  0.00    -0.338 N 
ATOM     30  H   UNL     1      12.308   3.553  -3.806  0.00  0.00    +0.168 HD
ENDBRANCH  19  20
ENDBRANCH   4  19
TORSDOF 5
