REMARK  Name = ZINC08293900
REMARK  8 active torsions:
REMARK  status: ('A' for Active; 'I' for Inactive)
REMARK    1  A    between atoms: C_1  and  C_2
REMARK    2  A    between atoms: C_5  and  S_8
REMARK    3  A    between atoms: S_8  and  C_9
REMARK    4  A    between atoms: C_9  and  C_10
REMARK    5  A    between atoms: N_12  and  N_13
REMARK    6  A    between atoms: C_14  and  C_16
REMARK    7  A    between atoms: C_17  and  C_18
REMARK    8  A    between atoms: C_22  and  C_24
REMARK                            x       y       z     vdW  Elec       q    Type
REMARK                         _______ _______ _______ _____ _____    ______ ____
ROOT
ATOM      1  N   UNL     1      -2.443   8.098   0.071  0.00  0.00    -0.231 N 
ATOM      2  C   UNL     1      -1.266   7.440   0.057  0.00  0.00    +0.253 C 
ATOM      3  O   UNL     1      -0.221   8.062   0.051  0.00  0.00    -0.269 OA
ATOM      4  H   UNL     1      -3.276   7.601   0.076  0.00  0.00    +0.173 HD
ENDROOT
BRANCH   1   7
ATOM      5  C   UNL     1      -3.638  10.156   0.095  0.00  0.00    +0.239 C 
ATOM      6  O   UNL     1      -4.680   9.536   0.101  0.00  0.00    -0.273 OA
ATOM      7  N   UNL     1      -2.462   9.498   0.080  0.00  0.00    -0.233 N 
ATOM      8  H   UNL     1      -1.628   9.995   0.075  0.00  0.00    +0.173 HD
BRANCH   5   9
ATOM      9  C   UNL     1      -3.658  11.663   0.104  0.00  0.00    +0.171 C 
BRANCH   9  10
ATOM     10  S   UNL     1      -5.376  12.245   0.123  0.00  0.00    -0.116 S 
BRANCH  10  15
ATOM     11  C   UNL     1      -4.883  18.260   0.156  0.00  0.00    +0.044 C 
ATOM     12  C   UNL     1      -5.006  16.758   0.147  0.00  0.00    -0.050 A 
ATOM     13  C   UNL     1      -6.257  16.169   0.155  0.00  0.00    +0.004 A 
ATOM     14  C   UNL     1      -6.374  14.793   0.148  0.00  0.00    +0.015 A 
ATOM     15  C   UNL     1      -5.232  14.001   0.133  0.00  0.00    +0.008 A 
ATOM     16  C   UNL     1      -3.977  14.596   0.130  0.00  0.00    +0.015 A 
ATOM     17  C   UNL     1      -3.868  15.973   0.132  0.00  0.00    +0.004 A 
ENDBRANCH  10  15
ENDBRANCH   9  10
ENDBRANCH   5   9
ENDBRANCH   1   7
BRANCH   2  18
ATOM     18  C   UNL     1      -1.247   5.976   0.048  0.00  0.00    +0.069 C 
ATOM     19  C   UNL     1      -0.070   5.317   0.033  0.00  0.00    +0.013 C 
BRANCH  19  20
ATOM     20  C   UNL     1      -0.050   3.846   0.024  0.00  0.00    -0.024 A 
ATOM     21  C   UNL     1      -1.250   3.126   0.031  0.00  0.00    +0.008 A 
ATOM     22  C   UNL     1      -1.223   1.748   0.017  0.00  0.00    +0.001 A 
ATOM     23  C   UNL     1      -0.013   1.076   0.008  0.00  0.00    +0.012 A 
ATOM     24  C   UNL     1       1.178   1.780   0.000  0.00  0.00    +0.055 A 
ATOM     25  C   UNL     1       1.168   3.159   0.008  0.00  0.00    +0.020 A 
BRANCH  24  26
ATOM     26  C   UNL     1       2.490   1.039  -0.016  0.00  0.00    +0.417 C 
ATOM     27  F   UNL     1       2.247  -0.339  -0.021  0.00  0.00    -0.166 F 
ATOM     28  F   UNL     1       3.210   1.390  -1.163  0.00  0.00    -0.166 F 
ATOM     29  F   UNL     1       3.232   1.377   1.121  0.00  0.00    -0.166 F 
ENDBRANCH  24  26
ENDBRANCH  19  20
ENDBRANCH   2  18
TORSDOF 7
