REMARK  Name = ZINC34756432
REMARK  7 active torsions:
REMARK  status: ('A' for Active; 'I' for Inactive)
REMARK    1  A    between atoms: C_1  and  C_2
REMARK    2  A    between atoms: C_2  and  C_4
REMARK    3  A    between atoms: C_4  and  N_5
REMARK    4  A    between atoms: C_18  and  S_20
REMARK    5  A    between atoms: S_20  and  C_21
REMARK    6  A    between atoms: C_21  and  C_22
REMARK    7  A    between atoms: C_22  and  C_23
REMARK                            x       y       z     vdW  Elec       q    Type
REMARK                         _______ _______ _______ _____ _____    ______ ____
ROOT
ATOM      1  N   UNL     1      -0.999  -0.235   2.351  0.00  0.00    +0.384 N 
ATOM      2  C   UNL     1      -1.194  -0.178   3.805  0.00  0.00    -0.059 C 
ATOM      3  C   UNL     1      -2.504  -0.884   4.172  0.00  0.00    +0.088 C 
ATOM      4  N   UNL     1      -3.593  -0.280   3.390  0.00  0.00    -0.318 N 
ATOM      5  C   UNL     1      -3.412  -0.147   1.936  0.00  0.00    +0.088 C 
ATOM      6  C   UNL     1      -2.059   0.523   1.675  0.00  0.00    -0.059 C 
ATOM      7  C   UNL     1      -4.756   0.150   4.003  0.00  0.00    +0.134 A 
ATOM      8  C   UNL     1      -5.897  -0.698   4.058  0.00  0.00    +0.051 A 
ATOM      9  C   UNL     1      -6.055  -2.055   3.529  0.00  0.00    -0.025 A 
ATOM     10  C   UNL     1      -7.251  -2.648   3.714  0.00  0.00    -0.004 A 
ATOM     11  S   UNL     1      -8.227  -1.457   4.592  0.00  0.00    -0.073 S 
ATOM     12  C   UNL     1      -7.024  -0.159   4.708  0.00  0.00    +0.115 A 
ATOM     13  N   UNL     1      -7.009   1.055   5.226  0.00  0.00    -0.215 NA
ATOM     14  C   UNL     1      -5.917   1.802   5.145  0.00  0.00    +0.191 A 
ATOM     15  N   UNL     1      -4.817   1.352   4.551  0.00  0.00    -0.206 NA
ATOM     16  C   UNL     1      -7.663  -4.019   3.271  0.00  0.00    +0.043 C 
ATOM     17  C   UNL     1      -6.642  -4.522   2.240  0.00  0.00    +0.005 C 
ATOM     18  C   UNL     1      -5.232  -4.280   2.788  0.00  0.00    +0.005 C 
ATOM     19  C   UNL     1      -4.930  -2.781   2.797  0.00  0.00    +0.037 C 
ATOM     20  H   UNL     1      -1.029  -1.197   2.047  0.00  0.00    -0.081 HD
ENDROOT
BRANCH   1  21
ATOM     21  C   UNL     1       0.308   0.343   2.011  0.00  0.00    -0.048 C 
BRANCH  21  23
ATOM     22  C   UNL     1       1.862  -1.747   1.844  0.00  0.00    +0.036 C 
ATOM     23  C   UNL     1       1.403  -0.518   2.585  0.00  0.00    -0.096 C 
ATOM     24  C   UNL     1       1.956  -0.198   3.729  0.00  0.00    +0.005 C 
ENDBRANCH  21  23
ENDBRANCH   1  21
BRANCH  14  25
ATOM     25  S   UNL     1      -5.922   3.419   5.844  0.00  0.00    -0.086 S 
BRANCH  25  26
ATOM     26  C   UNL     1      -7.590   3.594   6.535  0.00  0.00    +0.082 C 
BRANCH  26  27
ATOM     27  C   UNL     1      -7.732   4.973   7.182  0.00  0.00    +0.046 C 
BRANCH  27  28
ATOM     28  C   UNL     1      -9.118   5.117   7.756  0.00  0.00    -0.047 A 
ATOM     29  C   UNL     1     -10.139   5.628   6.976  0.00  0.00    +0.003 A 
ATOM     30  C   UNL     1     -11.411   5.760   7.503  0.00  0.00    +0.000 A 
ATOM     31  C   UNL     1     -11.661   5.383   8.809  0.00  0.00    +0.000 A 
ATOM     32  C   UNL     1     -10.640   4.872   9.588  0.00  0.00    +0.000 A 
ATOM     33  C   UNL     1      -9.369   4.735   9.060  0.00  0.00    +0.003 A 
ENDBRANCH  27  28
ENDBRANCH  26  27
ENDBRANCH  25  26
ENDBRANCH  14  25
TORSDOF 6
