REMARK  Name = ZINC40701253
REMARK  7 active torsions:
REMARK  status: ('A' for Active; 'I' for Inactive)
REMARK    1  A    between atoms: C_1  and  C_2
REMARK    2  A    between atoms: C_10  and  N_25
REMARK    3  A    between atoms: C_11  and  O_15
REMARK    4  A    between atoms: O_15  and  C_16
REMARK    5  A    between atoms: C_19  and  C_22
REMARK    6  A    between atoms: C_22  and  C_23
REMARK    7  A    between atoms: C_22  and  C_24
REMARK                            x       y       z     vdW  Elec       q    Type
REMARK                         _______ _______ _______ _____ _____    ______ ____
ROOT
ATOM      1  C   UNL     1       0.485  -2.693  -2.605  0.00  0.00    +0.044 C 
ATOM      2  C   UNL     1       0.466  -2.009  -1.262  0.00  0.00    -0.046 A 
ATOM      3  C   UNL     1       0.542  -0.626  -1.169  0.00  0.00    +0.023 A 
ATOM      4  C   UNL     1       0.522  -0.030   0.076  0.00  0.00    +0.113 A 
ATOM      5  N   UNL     1       0.432  -0.757   1.173  0.00  0.00    -0.240 NA
ATOM      6  C   UNL     1       0.357  -2.078   1.126  0.00  0.00    +0.124 A 
ATOM      7  C   UNL     1       0.366  -2.745  -0.095  0.00  0.00    +0.047 A 
ATOM      8  N   UNL     1       0.264  -2.806   2.308  0.00  0.00    -0.283 N 
ATOM      9  C   UNL     1       0.372  -2.159   3.534  0.00  0.00    +0.152 A 
ATOM     10  C   UNL     1       0.379  -2.890   4.725  0.00  0.00    +0.128 A 
ATOM     11  C   UNL     1       0.490  -2.191   5.926  0.00  0.00    +0.246 A 
ATOM     12  N   UNL     1       0.584  -0.865   5.894  0.00  0.00    -0.199 NA
ATOM     13  C   UNL     1       0.573  -0.212   4.749  0.00  0.00    +0.227 A 
ATOM     14  N   UNL     1       0.475  -0.834   3.591  0.00  0.00    -0.218 NA
ATOM     15  H   UNL     1       0.123  -3.765   2.277  0.00  0.00    +0.155 HD
ENDROOT
BRANCH  10  16
ATOM     16  N   UNL     1       0.278  -4.289   4.712  0.00  0.00    -0.351 N 
ATOM     17  H   UNL     1       0.201  -4.762   3.869  0.00  0.00    +0.143 HD
ATOM     18  H   UNL     1       0.284  -4.783   5.547  0.00  0.00    +0.143 HD
ENDBRANCH  10  16
BRANCH  11  19
ATOM     19  O   UNL     1       0.502  -2.853   7.110  0.00  0.00    -0.436 OA
BRANCH  19  20
ATOM     20  C   UNL     1       0.490  -2.118   8.252  0.00  0.00    +0.130 A 
ATOM     21  C   UNL     1      -0.655  -1.427   8.622  0.00  0.00    +0.046 A 
ATOM     22  C   UNL     1      -0.664  -0.680   9.785  0.00  0.00    +0.007 A 
ATOM     23  C   UNL     1       0.466  -0.622  10.579  0.00  0.00    -0.045 A 
ATOM     24  C   UNL     1       1.608  -1.309  10.213  0.00  0.00    +0.007 A 
ATOM     25  C   UNL     1       1.621  -2.062   9.055  0.00  0.00    +0.046 A 
BRANCH  23  26
ATOM     26  C   UNL     1       0.453   0.194  11.847  0.00  0.00    +0.013 C 
ATOM     27  C   UNL     1       0.736  -0.718  13.042  0.00  0.00    +0.012 C 
ATOM     28  C   UNL     1       1.529   1.278  11.766  0.00  0.00    +0.012 C 
ENDBRANCH  23  26
ENDBRANCH  19  20
ENDBRANCH  11  19
TORSDOF 4
