REMARK  Name = ZINC23656950
REMARK  7 active torsions:
REMARK  status: ('A' for Active; 'I' for Inactive)
REMARK    1  A    between atoms: C_1  and  C_2
REMARK    2  A    between atoms: C_7  and  N_8
REMARK    3  A    between atoms: C_9  and  C_11
REMARK    4  A    between atoms: C_11  and  N_12
REMARK    5  A    between atoms: N_12  and  C_13
REMARK    6  A    between atoms: C_14  and  C_16
REMARK    7  A    between atoms: N_18  and  C_23
REMARK                            x       y       z     vdW  Elec       q    Type
REMARK                         _______ _______ _______ _____ _____    ______ ____
ROOT
ATOM      1  N   UNL     1       0.006   0.068   0.043  0.00  0.00    -0.291 N 
ATOM      2  C   UNL     1      -0.040   1.531   0.108  0.00  0.00    +0.133 C 
ATOM      3  C   UNL     1      -0.060  -0.555  -1.151  0.00  0.00    +0.263 C 
ATOM      4  O   UNL     1      -0.118  -1.769  -1.200  0.00  0.00    -0.269 OA
ENDROOT
BRANCH   3   5
ATOM      5  C   UNL     1      -0.061   0.230  -2.390  0.00  0.00    +0.122 C 
ATOM      6  N   UNL     1       0.135   1.511  -2.335  0.00  0.00    -0.177 NA
ATOM      7  N   UNL     1       0.139   2.292  -3.495  0.00  0.00    -0.188 N 
ATOM      8  C   UNL     1      -0.428   1.833  -4.628  0.00  0.00    +0.235 C 
ATOM      9  O   UNL     1      -0.427   2.517  -5.630  0.00  0.00    -0.274 OA
ATOM     10  C   UNL     1      -1.064   0.466  -4.646  0.00  0.00    +0.104 C 
ATOM     11  C   UNL     1      -0.284  -0.462  -3.708  0.00  0.00    +0.071 C 
BRANCH   7  12
ATOM     12  C   UNL     1       0.762   3.618  -3.479  0.00  0.00    +0.124 C 
ATOM     13  C   UNL     1       0.051   4.504  -2.442  0.00  0.00    +0.049 C 
ATOM     14  C   UNL     1       0.915   5.778  -2.219  0.00  0.00    +0.168 C 
ATOM     15  S   UNL     1       2.604   5.042  -2.211  0.00  0.00    -0.029 S 
ATOM     16  O   UNL     1       2.967   4.733  -0.872  0.00  0.00    -0.174 OA
ATOM     17  O   UNL     1       3.466   5.851  -3.000  0.00  0.00    -0.174 OA
ATOM     18  C   UNL     1       2.260   3.477  -3.113  0.00  0.00    +0.190 C 
ENDBRANCH   7  12
ENDBRANCH   3   5
BRANCH   1  19
ATOM     19  C   UNL     1       0.124  -0.717   1.274  0.00  0.00    +0.203 C 
BRANCH  19  21
ATOM     20  N   UNL     1      -1.390  -1.754   2.932  0.00  0.00    -0.284 N 
ATOM     21  C   UNL     1      -1.252  -1.035   1.800  0.00  0.00    +0.235 C 
ATOM     22  O   UNL     1      -2.234  -0.645   1.205  0.00  0.00    -0.274 OA
ATOM     23  H   UNL     1      -0.502  -2.040   3.514  0.00  0.00    +0.155 HD
BRANCH  20  30
ATOM     24  C   UNL     1      -1.658  -4.239   4.292  0.00  0.00    +0.046 C 
ATOM     25  C   UNL     1      -2.840  -3.340   4.034  0.00  0.00    -0.028 A 
ATOM     26  C   UNL     1      -4.099  -3.715   4.462  0.00  0.00    +0.020 A 
ATOM     27  C   UNL     1      -5.185  -2.890   4.226  0.00  0.00    +0.018 A 
ATOM     28  C   UNL     1      -5.013  -1.689   3.561  0.00  0.00    +0.017 A 
ATOM     29  C   UNL     1      -3.756  -1.308   3.135  0.00  0.00    +0.024 A 
ATOM     30  C   UNL     1      -2.665  -2.136   3.366  0.00  0.00    +0.036 A 
ATOM     31 BR   UNL     1      -6.907  -3.406   4.813  0.00  0.00    -0.050 Br
ENDBRANCH  20  30
ENDBRANCH  19  21
ENDBRANCH   1  19
TORSDOF 5
