REMARK  Name = ZINC09431527
REMARK  11 active torsions:
REMARK  status: ('A' for Active; 'I' for Inactive)
REMARK    1  A    between atoms: C_1  and  C_2
REMARK    2  A    between atoms: C_2  and  C_4
REMARK    3  A    between atoms: C_2  and  N_14
REMARK    4  A    between atoms: C_15  and  C_17
REMARK    5  A    between atoms: C_17  and  C_18
REMARK    6  A    between atoms: C_18  and  C_19
REMARK    7  A    between atoms: C_19  and  C_20
REMARK    8  A    between atoms: N_32  and  C_33
REMARK    9  A    between atoms: C_33  and  C_34
REMARK   10  A    between atoms: C_34  and  C_35
REMARK   11  A    between atoms: C_34  and  C_36
REMARK                            x       y       z     vdW  Elec       q    Type
REMARK                         _______ _______ _______ _____ _____    ______ ____
ROOT
ATOM      1  C   UNL     1       4.287  -1.129   2.114  0.00  0.00    +0.017 C 
ENDROOT
BRANCH   1   2
ATOM      2  C   UNL     1       2.783  -1.099   2.395  0.00  0.00    +0.096 C 
BRANCH   2   4
ATOM      3  N   UNL     1       0.711  -0.489   1.189  0.00  0.00    -0.309 N 
ATOM      4  C   UNL     1       2.054  -0.600   1.174  0.00  0.00    +0.213 C 
ATOM      5  O   UNL     1       2.676  -0.297   0.177  0.00  0.00    -0.276 OA
ATOM      6  H   UNL     1       0.213  -0.731   1.986  0.00  0.00    +0.149 HD
BRANCH   3   8
ATOM      7  C   UNL     1      -0.019   1.526   0.010  0.00  0.00    +0.033 C 
ATOM      8  C   UNL     1       0.002  -0.004   0.002  0.00  0.00    +0.100 C 
BRANCH   8   9
ATOM      9  C   UNL     1      -1.412  -0.526   0.013  0.00  0.00    -0.024 A 
ATOM     10  C   UNL     1      -2.122  -0.570   1.198  0.00  0.00    +0.009 A 
ATOM     11  C   UNL     1      -3.418  -1.049   1.212  0.00  0.00    +0.050 A 
ATOM     12  C   UNL     1      -4.010  -1.486   0.036  0.00  0.00    +0.162 A 
ATOM     13  C   UNL     1      -3.297  -1.439  -1.155  0.00  0.00    +0.162 A 
ATOM     14  C   UNL     1      -1.998  -0.953  -1.163  0.00  0.00    +0.055 A 
ATOM     15  O   UNL     1      -3.862  -1.855  -2.322  0.00  0.00    -0.485 OA
ATOM     16  C   UNL     1      -5.031  -2.675  -2.214  0.00  0.00    +0.270 C 
ATOM     17  C   UNL     1      -5.974  -2.035  -1.187  0.00  0.00    +0.270 C 
ATOM     18  O   UNL     1      -5.286  -1.959   0.067  0.00  0.00    -0.485 OA
ENDBRANCH   8   9
ENDBRANCH   3   8
ENDBRANCH   2   4
ENDBRANCH   1   2
BRANCH   1  19
ATOM     19  C   UNL     1       5.026  -1.635   3.354  0.00  0.00    +0.077 C 
BRANCH  19  20
ATOM     20  C   UNL     1       6.508  -1.665   3.078  0.00  0.00    +0.139 A 
ATOM     21  N   UNL     1       7.184  -2.663   2.578  0.00  0.00    -0.132 NA
ATOM     22  N   UNL     1       8.427  -2.347   2.476  0.00  0.00    -0.110 NA
ATOM     23  C   UNL     1       8.611  -1.119   2.908  0.00  0.00    +0.239 A 
ATOM     24  N   UNL     1       7.393  -0.651   3.297  0.00  0.00    -0.264 N 
ATOM     25  C   UNL     1       7.243   0.646   3.807  0.00  0.00    +0.071 A 
ATOM     26  C   UNL     1       6.099   1.301   4.257  0.00  0.00    +0.034 A 
ATOM     27  C   UNL     1       6.189   2.569   4.714  0.00  0.00    +0.048 A 
ATOM     28  S   UNL     1       7.819   2.952   4.564  0.00  0.00    -0.090 S 
ATOM     29  C   UNL     1       8.402   1.421   3.889  0.00  0.00    +0.101 A 
ATOM     30  C   UNL     1       9.649   0.928   3.482  0.00  0.00    +0.270 A 
ATOM     31  O   UNL     1      10.642   1.630   3.565  0.00  0.00    -0.266 OA
ATOM     32  N   UNL     1       9.744  -0.332   3.004  0.00  0.00    -0.276 N 
BRANCH  32  33
ATOM     33  C   UNL     1      11.042  -0.858   2.572  0.00  0.00    +0.131 C 
BRANCH  33  34
ATOM     34  C   UNL     1      11.256  -0.536   1.092  0.00  0.00    +0.003 C 
ATOM     35  C   UNL     1      12.661  -0.974   0.673  0.00  0.00    +0.009 C 
ATOM     36  C   UNL     1      10.217  -1.283   0.253  0.00  0.00    +0.009 C 
ENDBRANCH  33  34
ENDBRANCH  32  33
ENDBRANCH  19  20
ENDBRANCH   1  19
TORSDOF 8
