REMARK  Name = ZINC60215183
REMARK  11 active torsions:
REMARK  status: ('A' for Active; 'I' for Inactive)
REMARK    1  A    between atoms: C_1  and  C_2
REMARK    2  A    between atoms: C_5  and  C_7
REMARK    3  A    between atoms: C_7  and  C_8
REMARK    4  A    between atoms: C_7  and  C_24
REMARK    5  A    between atoms: C_7  and  O_28
REMARK    6  A    between atoms: C_8  and  C_9
REMARK    7  A    between atoms: N_11  and  C_12
REMARK    8  A    between atoms: C_12  and  C_14
REMARK    9  A    between atoms: C_12  and  C_15
REMARK   10  A    between atoms: C_15  and  C_16
REMARK   11  A    between atoms: C_16  and  C_17
REMARK                            x       y       z     vdW  Elec       q    Type
REMARK                         _______ _______ _______ _____ _____    ______ ____
ROOT
ATOM      1  C   UNL     1       0.139  -5.268   3.068  0.00  0.00    +0.217 C 
ATOM      2  O   UNL     1       0.000  -4.800   4.179  0.00  0.00    -0.276 OA
ATOM      3  N   UNL     1       0.309  -6.596   2.913  0.00  0.00    -0.313 N 
ATOM      4  H   UNL     1       0.420  -6.970   2.025  0.00  0.00    +0.149 HD
ENDROOT
BRANCH   3   5
ATOM      5  C   UNL     1       0.327  -7.474   4.085  0.00  0.00    +0.070 C 
ATOM      6  C   UNL     1      -1.107  -7.851   4.462  0.00  0.00    +0.028 C 
BRANCH   5   7
ATOM      7  C   UNL     1       1.118  -8.743   3.760  0.00  0.00    +0.026 C 
BRANCH   7   8
ATOM      8  C   UNL     1       2.582  -8.379   3.505  0.00  0.00    +0.037 C 
BRANCH   8   9
ATOM      9  C   UNL     1       3.362  -9.628   3.185  0.00  0.00    -0.047 A 
ATOM     10  C   UNL     1       3.954 -10.353   4.202  0.00  0.00    +0.005 A 
ATOM     11  C   UNL     1       4.669 -11.499   3.909  0.00  0.00    +0.015 A 
ATOM     12  C   UNL     1       4.791 -11.921   2.598  0.00  0.00    +0.018 A 
ATOM     13  C   UNL     1       4.198 -11.196   1.580  0.00  0.00    +0.015 A 
ATOM     14  C   UNL     1       3.479 -10.053   1.875  0.00  0.00    +0.005 A 
ATOM     15 BR   UNL     1       5.770 -13.489   2.196  0.00  0.00    -0.050 Br
ENDBRANCH   8   9
ENDBRANCH   7   8
ENDBRANCH   5   7
ENDBRANCH   3   5
BRANCH   1  16
ATOM     16  C   UNL     1       0.121  -4.365   1.862  0.00  0.00    +0.146 C 
BRANCH  16  17
ATOM     17  C   UNL     1      -0.071  -2.915   2.314  0.00  0.00    +0.217 C 
BRANCH  17  22
ATOM     18  C   UNL     1       2.519   0.120   5.334  0.00  0.00    +0.066 C 
ATOM     19  C   UNL     1       2.325  -1.169   4.578  0.00  0.00    +0.046 A 
ATOM     20  C   UNL     1       3.249  -2.163   4.620  0.00  0.00    +0.070 A 
ATOM     21  S   UNL     1       2.474  -3.377   3.564  0.00  0.00    -0.077 S 
ATOM     22  C   UNL     1       1.084  -2.505   3.190  0.00  0.00    +0.119 A 
ATOM     23  N   UNL     1       1.248  -1.385   3.850  0.00  0.00    -0.246 NA
ENDBRANCH  17  22
BRANCH  17  24
ATOM     24  C   UNL     1      -0.130  -2.003   1.087  0.00  0.00    +0.425 C 
ATOM     25  F   UNL     1       1.041  -2.155   0.336  0.00  0.00    -0.167 F 
ATOM     26  F   UNL     1      -1.235  -2.347   0.302  0.00  0.00    -0.167 F 
ATOM     27  F   UNL     1      -0.249  -0.672   1.501  0.00  0.00    -0.167 F 
ENDBRANCH  17  24
BRANCH  17  28
ATOM     28  O   UNL     1      -1.291  -2.803   3.050  0.00  0.00    -0.374 OA
ATOM     29  H   UNL     1      -1.324  -3.356   3.843  0.00  0.00    +0.211 HD
ENDBRANCH  17  28
ENDBRANCH  16  17
ENDBRANCH   1  16
TORSDOF 9
