REMARK  Name = ZINC58889267
REMARK  11 active torsions:
REMARK  status: ('A' for Active; 'I' for Inactive)
REMARK    1  A    between atoms: C_1  and  C_2
REMARK    2  A    between atoms: C_5  and  C_8
REMARK    3  A    between atoms: C_8  and  O_9
REMARK    4  A    between atoms: O_9  and  C_10
REMARK    5  A    between atoms: C_13  and  C_17
REMARK    6  A    between atoms: N_18  and  N_19
REMARK    7  A    between atoms: C_20  and  C_22
REMARK    8  A    between atoms: C_22  and  C_23
REMARK    9  A    between atoms: C_23  and  C_24
REMARK   10  A    between atoms: C_24  and  C_26
REMARK   11  A    between atoms: C_24  and  O_32
REMARK                            x       y       z     vdW  Elec       q    Type
REMARK                         _______ _______ _______ _____ _____    ______ ____
ROOT
ATOM      1  C   UNL     1       0.247  -6.515   0.174  0.00  0.00    +0.153 A 
ATOM      2  C   UNL     1       0.019  -7.344  -0.918  0.00  0.00    +0.084 A 
ATOM      3  C   UNL     1       0.648  -8.568  -1.000  0.00  0.00    +0.033 A 
ATOM      4  C   UNL     1       1.515  -8.975   0.018  0.00  0.00    -0.003 A 
ATOM      5  C   UNL     1       1.741  -8.139   1.114  0.00  0.00    +0.028 A 
ATOM      6  C   UNL     1       1.113  -6.913   1.185  0.00  0.00    +0.062 A 
ATOM      7 BR   UNL     1       1.424  -5.777   2.664  0.00  0.00    -0.046 Br
ATOM      8 CL   UNL     1      -1.059  -6.837  -2.181  0.00  0.00    -0.080 Cl
ENDROOT
BRANCH   4   9
ATOM      9  C   UNL     1       2.189 -10.284  -0.065  0.00  0.00    +0.138 C 
ATOM     10  N   UNL     1       2.215 -10.931  -1.190  0.00  0.00    -0.188 NA
BRANCH  10  11
ATOM     11  N   UNL     1       2.113 -10.234  -2.401  0.00  0.00    -0.207 N 
ATOM     12  C   UNL     1       2.006 -10.911  -3.562  0.00  0.00    +0.232 C 
ATOM     13  O   UNL     1       1.999 -12.124  -3.557  0.00  0.00    -0.274 OA
ATOM     14  H   UNL     1       2.119  -9.264  -2.405  0.00  0.00    +0.177 HD
BRANCH  12  15
ATOM     15  C   UNL     1       1.897 -10.162  -4.864  0.00  0.00    +0.100 C 
BRANCH  15  16
ATOM     16  C   UNL     1       1.789 -11.160  -6.019  0.00  0.00    +0.045 C 
BRANCH  16  17
ATOM     17  C   UNL     1       1.678 -10.399  -7.342  0.00  0.00    +0.145 C 
BRANCH  17  18
ATOM     18  C   UNL     1       1.695 -11.378  -8.488  0.00  0.00    -0.019 A 
ATOM     19  C   UNL     1       0.522 -11.984  -8.896  0.00  0.00    +0.006 A 
ATOM     20  C   UNL     1       0.538 -12.882  -9.947  0.00  0.00    +0.000 A 
ATOM     21  C   UNL     1       1.727 -13.173 -10.590  0.00  0.00    +0.000 A 
ATOM     22  C   UNL     1       2.900 -12.566 -10.181  0.00  0.00    +0.000 A 
ATOM     23  C   UNL     1       2.883 -11.665  -9.133  0.00  0.00    +0.006 A 
ENDBRANCH  17  18
BRANCH  17  24
ATOM     24  O   UNL     1       0.455  -9.660  -7.365  0.00  0.00    -0.387 OA
ATOM     25  H   UNL     1      -0.338 -10.208  -7.284  0.00  0.00    +0.210 HD
ENDBRANCH  17  24
ENDBRANCH  16  17
ENDBRANCH  15  16
ENDBRANCH  12  15
ENDBRANCH  10  11
ENDBRANCH   4   9
BRANCH   1  26
ATOM     26  O   UNL     1      -0.375  -5.309   0.251  0.00  0.00    -0.485 OA
BRANCH  26  27
ATOM     27  C   UNL     1       0.301  -4.193  -0.332  0.00  0.00    +0.264 C 
BRANCH  27  32
ATOM     28  C   UNL     1      -2.896   0.571   0.359  0.00  0.00    +0.044 C 
ATOM     29  C   UNL     1      -2.063  -0.671   0.179  0.00  0.00    -0.050 A 
ATOM     30  C   UNL     1      -1.135  -1.027   1.141  0.00  0.00    +0.004 A 
ATOM     31  C   UNL     1      -0.371  -2.166   0.975  0.00  0.00    +0.007 A 
ATOM     32  C   UNL     1      -0.534  -2.951  -0.151  0.00  0.00    -0.010 A 
ATOM     33  C   UNL     1      -1.462  -2.596  -1.112  0.00  0.00    +0.007 A 
ATOM     34  C   UNL     1      -2.229  -1.458  -0.945  0.00  0.00    +0.004 A 
ENDBRANCH  27  32
ENDBRANCH  26  27
ENDBRANCH   1  26
TORSDOF 10
