REMARK  Name = ZINC28119621
REMARK  9 active torsions:
REMARK  status: ('A' for Active; 'I' for Inactive)
REMARK    1  A    between atoms: C_1  and  C_2
REMARK    2  A    between atoms: C_4  and  N_29
REMARK    3  A    between atoms: C_7  and  N_8
REMARK    4  A    between atoms: C_9  and  C_11
REMARK    5  A    between atoms: C_11  and  C_13
REMARK    6  A    between atoms: C_11  and  S_14
REMARK    7  A    between atoms: S_14  and  C_15
REMARK    8  A    between atoms: N_20  and  C_21
REMARK    9  A    between atoms: C_21  and  C_22
REMARK                            x       y       z     vdW  Elec       q    Type
REMARK                         _______ _______ _______ _____ _____    ______ ____
ROOT
ATOM      1  C   UNL     1       1.283  -9.342  -2.157  0.00  0.00    +0.136 C 
ATOM      2  C   UNL     1      -0.022  -9.281  -1.360  0.00  0.00    +0.029 C 
ENDROOT
BRANCH   1   4
ATOM      3  N   UNL     1       1.874 -11.741  -2.035  0.00  0.00    -0.284 N 
ATOM      4  C   UNL     1       1.430 -10.707  -2.777  0.00  0.00    +0.230 C 
ATOM      5  O   UNL     1       1.148 -10.876  -3.945  0.00  0.00    -0.274 OA
ATOM      6  H   UNL     1       2.215 -11.570  -1.004  0.00  0.00    +0.155 HD
BRANCH   3  13
ATOM      7  C   UNL     1       3.728 -13.612  -0.959  0.00  0.00    +0.046 C 
ATOM      8  C   UNL     1       2.790 -13.975  -2.082  0.00  0.00    -0.027 A 
ATOM      9  C   UNL     1       2.811 -15.249  -2.616  0.00  0.00    +0.038 A 
ATOM     10  C   UNL     1       1.955 -15.581  -3.649  0.00  0.00    +0.127 A 
ATOM     11  C   UNL     1       1.072 -14.641  -4.149  0.00  0.00    +0.034 A 
ATOM     12  C   UNL     1       1.042 -13.367  -3.616  0.00  0.00    +0.026 A 
ATOM     13  C   UNL     1       1.901 -13.031  -2.577  0.00  0.00    +0.036 A 
BRANCH  10  14
ATOM     14  N   UNL     1       1.984 -16.945  -4.223  0.00  0.00    +0.056 N 
ATOM     15  O   UNL     1       1.231 -17.239  -5.134  0.00  0.00    -0.126 OA
ATOM     16  O   UNL     1       2.762 -17.774  -3.784  0.00  0.00    -0.126 OA
ENDBRANCH  10  14
ENDBRANCH   3  13
ENDBRANCH   1   4
BRANCH   1  17
ATOM     17  S   UNL     1       1.253  -8.084  -3.463  0.00  0.00    -0.084 S 
BRANCH  17  18
ATOM     18  C   UNL     1       1.229  -6.557  -2.584  0.00  0.00    +0.161 A 
ATOM     19  N   UNL     1       1.231  -6.342  -1.282  0.00  0.00    -0.133 NA
ATOM     20  N   UNL     1       1.210  -5.053  -0.802  0.00  0.00    -0.125 NA
ATOM     21  C   UNL     1       1.187  -4.038  -1.644  0.00  0.00    +0.183 A 
ATOM     22  S   UNL     1       1.187  -4.887  -3.216  0.00  0.00    -0.025 S 
ATOM     23  N   UNL     1       1.162  -2.674  -1.380  0.00  0.00    -0.318 N 
ATOM     24  H   UNL     1       1.145  -1.953  -2.210  0.00  0.00    +0.148 HD
BRANCH  23  25
ATOM     25  C   UNL     1       1.160  -2.196   0.005  0.00  0.00    +0.138 C 
BRANCH  25  26
ATOM     26  C   UNL     1       1.132  -0.690   0.017  0.00  0.00    -0.030 A 
ATOM     27  C   UNL     1      -0.079  -0.022   0.028  0.00  0.00    +0.008 A 
ATOM     28  C   UNL     1      -0.106   1.360   0.040  0.00  0.00    +0.038 A 
ATOM     29  C   UNL     1       1.080   2.075   0.039  0.00  0.00    +0.123 A 
ATOM     30  C   UNL     1       2.291   1.405   0.028  0.00  0.00    +0.038 A 
ATOM     31  C   UNL     1       2.316   0.023   0.017  0.00  0.00    +0.008 A 
ATOM     32  F   UNL     1       1.054   3.426   0.050  0.00  0.00    -0.205 F 
ENDBRANCH  25  26
ENDBRANCH  23  25
ENDBRANCH  17  18
ENDBRANCH   1  17
TORSDOF 7
