REMARK  Name = ZINC20082240
REMARK  10 active torsions:
REMARK  status: ('A' for Active; 'I' for Inactive)
REMARK    1  A    between atoms: C_1  and  C_2
REMARK    2  A    between atoms: C_9  and  C_14
REMARK    3  A    between atoms: C_14  and  C_16
REMARK    4  A    between atoms: C_14  and  N_28
REMARK    5  A    between atoms: N_20  and  C_21
REMARK    6  A    between atoms: C_21  and  C_22
REMARK    7  A    between atoms: N_28  and  C_29
REMARK    8  A    between atoms: N_28  and  C_35
REMARK    9  A    between atoms: C_29  and  C_30
REMARK   10  A    between atoms: C_35  and  C_36
REMARK                            x       y       z     vdW  Elec       q    Type
REMARK                         _______ _______ _______ _____ _____    ______ ____
ROOT
ATOM      1  C   UNL     1       1.413   5.304  -1.682  0.00  0.00    +0.163 C 
ENDROOT
BRANCH   1  10
ATOM      2  C   UNL     1      -5.366   4.420   1.297  0.00  0.00    +0.044 C 
ATOM      3  C   UNL     1      -4.252   3.943   0.402  0.00  0.00    -0.050 A 
ATOM      4  C   UNL     1      -4.394   2.753  -0.298  0.00  0.00    +0.005 A 
ATOM      5  C   UNL     1      -3.387   2.297  -1.123  0.00  0.00    +0.026 A 
ATOM      6  C   UNL     1      -2.217   3.037  -1.256  0.00  0.00    +0.049 A 
ATOM      7  C   UNL     1      -2.077   4.244  -0.544  0.00  0.00    -0.001 A 
ATOM      8  C   UNL     1      -3.111   4.686   0.287  0.00  0.00    +0.013 A 
ATOM      9  C   UNL     1      -0.839   5.012  -0.687  0.00  0.00    +0.021 A 
ATOM     10  C   UNL     1       0.128   4.536  -1.510  0.00  0.00    +0.042 A 
ATOM     11  C   UNL     1      -0.062   3.320  -2.201  0.00  0.00    +0.254 A 
ATOM     12  O   UNL     1       0.822   2.908  -2.932  0.00  0.00    -0.268 OA
ATOM     13  N   UNL     1      -1.194   2.605  -2.073  0.00  0.00    -0.322 N 
ATOM     14  H   UNL     1      -1.296   1.663  -2.631  0.00  0.00    +0.169 HD
ENDBRANCH   1  10
BRANCH   1  15
ATOM     15  C   UNL     1       1.626   5.605  -3.143  0.00  0.00    +0.173 A 
ATOM     16  N   UNL     1       1.959   4.749  -4.078  0.00  0.00    -0.111 NA
ATOM     17  N   UNL     1       2.043   5.390  -5.193  0.00  0.00    -0.023 NA
ATOM     18  N   UNL     1       1.773   6.633  -4.993  0.00  0.00    -0.044 NA
ATOM     19  N   UNL     1       1.505   6.804  -3.743  0.00  0.00    -0.225 N 
BRANCH  19  20
ATOM     20  C   UNL     1       1.141   8.068  -3.096  0.00  0.00    +0.179 C 
BRANCH  20  21
ATOM     21  C   UNL     1       2.408   8.777  -2.613  0.00  0.00    +0.140 C 
ATOM     22  C   UNL     1       2.028  10.052  -1.830  0.00  0.00    +0.035 C 
ATOM     23  C   UNL     1       3.113  11.060  -2.295  0.00  0.00    +0.031 C 
ATOM     24  C   UNL     1       3.323  10.610  -3.763  0.00  0.00    +0.160 C 
ATOM     25  O   UNL     1       3.198   9.180  -3.738  0.00  0.00    -0.375 OA
ENDBRANCH  20  21
ENDBRANCH  19  20
ENDBRANCH   1  15
BRANCH   1  26
ATOM     26  N   UNL     1       2.535   4.501  -1.179  0.00  0.00    -0.282 NA
BRANCH  26  27
ATOM     27  C   UNL     1       2.196   3.865   0.101  0.00  0.00    +0.128 C 
BRANCH  27  28
ATOM     28  C   UNL     1       1.650   2.484  -0.154  0.00  0.00    +0.004 A 
ATOM     29  C   UNL     1       2.183   1.478  -0.889  0.00  0.00    +0.012 A 
ATOM     30  C   UNL     1       1.497   0.281  -0.984  0.00  0.00    +0.008 A 
ATOM     31  C   UNL     1       0.309   0.152  -0.344  0.00  0.00    +0.045 A 
ATOM     32  S   UNL     1       0.133   1.749   0.435  0.00  0.00    -0.100 S 
ENDBRANCH  27  28
ENDBRANCH  26  27
BRANCH  26  33
ATOM     33  C   UNL     1       3.752   5.316  -1.056  0.00  0.00    +0.117 C 
BRANCH  33  34
ATOM     34  C   UNL     1       4.479   5.352  -2.402  0.00  0.00    +0.132 C 
ATOM     35  C   UNL     1       5.873   5.999  -2.242  0.00  0.00    +0.035 C 
ATOM     36  C   UNL     1       6.059   6.815  -3.540  0.00  0.00    +0.031 C 
ATOM     37  C   UNL     1       4.756   6.566  -4.331  0.00  0.00    +0.160 C 
ATOM     38  O   UNL     1       3.777   6.208  -3.329  0.00  0.00    -0.375 OA
ENDBRANCH  33  34
ENDBRANCH  26  33
ENDBRANCH   1  26
TORSDOF 9
