REMARK  Name = ZINC14960766
REMARK  11 active torsions:
REMARK  status: ('A' for Active; 'I' for Inactive)
REMARK    1  A    between atoms: C_1  and  C_2
REMARK    2  A    between atoms: C_2  and  O_3
REMARK    3  A    between atoms: O_3  and  C_4
REMARK    4  A    between atoms: C_7  and  C_12
REMARK    5  A    between atoms: C_9  and  C_10
REMARK    6  A    between atoms: C_10  and  O_11
REMARK    7  A    between atoms: C_12  and  N_60
REMARK    8  A    between atoms: C_13  and  N_60
REMARK    9  A    between atoms: N_22  and  C_23
REMARK   10  A    between atoms: C_25  and  C_30
REMARK   11  A    between atoms: C_27  and  C_29
REMARK                            x       y       z     vdW  Elec       q    Type
REMARK                         _______ _______ _______ _____ _____    ______ ____
ROOT
ATOM      1  C   UNL     1       0.914   4.344   7.738  0.00  0.00    -0.037 C 
ATOM      2  C   UNL     1       0.177   5.638   7.373  0.00  0.00    -0.011 C 
ATOM      3  C   UNL     1      -1.224   5.301   6.858  0.00  0.00    +0.005 C 
ATOM      4  C   UNL     1      -1.117   4.631   5.482  0.00  0.00    +0.056 C 
ATOM      5  C   UNL     1      -0.103   3.518   5.571  0.00  0.00    +0.047 A 
ATOM      6  C   UNL     1       0.796   3.386   6.579  0.00  0.00    -0.020 A 
ATOM      7  C   UNL     1       1.555   2.243   6.332  0.00  0.00    +0.137 A 
ATOM      8  N   UNL     1       1.126   1.703   5.217  0.00  0.00    -0.174 NA
ATOM      9  N   UNL     1       0.077   2.491   4.721  0.00  0.00    -0.237 N 
ENDROOT
BRANCH   9  10
ATOM     10  C   UNL     1      -0.650   2.253   3.546  0.00  0.00    +0.066 A 
ATOM     11  C   UNL     1      -1.052   0.964   3.225  0.00  0.00    +0.031 A 
ATOM     12  C   UNL     1      -1.768   0.733   2.067  0.00  0.00    -0.048 A 
ATOM     13  C   UNL     1      -2.088   1.786   1.229  0.00  0.00    +0.006 A 
ATOM     14  C   UNL     1      -1.684   3.070   1.543  0.00  0.00    -0.048 A 
ATOM     15  C   UNL     1      -0.968   3.307   2.700  0.00  0.00    +0.031 A 
ATOM     16  C   UNL     1      -2.031   4.214   0.624  0.00  0.00    +0.044 C 
ATOM     17  C   UNL     1      -2.205  -0.666   1.718  0.00  0.00    +0.044 C 
ENDBRANCH   9  10
BRANCH   1  18
ATOM     18  N   UNL     1       2.336   4.645   7.992  0.00  0.00    +0.386 N 
ATOM     19  H   UNL     1       2.842   4.666   7.099  0.00  0.00    -0.085 HD
ATOM     20  H   UNL     1       2.412   5.561   8.450  0.00  0.00    -0.085 HD
BRANCH  18  21
ATOM     21  C   UNL     1       2.930   3.615   8.864  0.00  0.00    -0.046 C 
BRANCH  21  25
ATOM     22  C   UNL     1       7.041   4.561   9.547  0.00  0.00    +0.126 A 
ATOM     23  C   UNL     1       6.064   5.048  10.404  0.00  0.00    +0.046 A 
ATOM     24  C   UNL     1       4.737   4.740  10.181  0.00  0.00    +0.005 A 
ATOM     25  C   UNL     1       4.380   3.948   9.105  0.00  0.00    -0.064 A 
ATOM     26  C   UNL     1       5.352   3.457   8.253  0.00  0.00    +0.011 A 
ATOM     27  C   UNL     1       6.681   3.766   8.469  0.00  0.00    +0.020 A 
BRANCH  22  28
ATOM     28  O   UNL     1       8.349   4.861   9.765  0.00  0.00    -0.492 OA
BRANCH  28  30
ATOM     29  C   UNL     1      10.157   5.913  10.976  0.00  0.00    +0.048 C 
ATOM     30  C   UNL     1       8.646   5.684  10.894  0.00  0.00    +0.225 C 
ENDBRANCH  28  30
ENDBRANCH  22  28
BRANCH  27  31
ATOM     31  C   UNL     1       7.740   3.235   7.537  0.00  0.00    +0.194 C 
BRANCH  31  32
ATOM     32  O   UNL     1       7.123   2.450   6.514  0.00  0.00    -0.390 OA
ATOM     33  H   UNL     1       7.747   2.075   5.877  0.00  0.00    +0.210 HD
ENDBRANCH  31  32
ENDBRANCH  27  31
ENDBRANCH  21  25
ENDBRANCH  18  21
ENDBRANCH   1  18
TORSDOF 8
