REMARK  Name = ZINC26635071
REMARK  12 active torsions:
REMARK  status: ('A' for Active; 'I' for Inactive)
REMARK    1  A    between atoms: C_1  and  C_2
REMARK    2  A    between atoms: C_2  and  C_3
REMARK    3  A    between atoms: C_3  and  C_5
REMARK    4  A    between atoms: C_3  and  N_6
REMARK    5  A    between atoms: N_6  and  S_7
REMARK    6  A    between atoms: S_7  and  C_10
REMARK    7  A    between atoms: C_13  and  C_16
REMARK    8  A    between atoms: N_18  and  N_19
REMARK    9  A    between atoms: C_20  and  C_22
REMARK   10  A    between atoms: C_22  and  C_24
REMARK   11  A    between atoms: C_22  and  O_25
REMARK   12  A    between atoms: O_25  and  C_26
REMARK                            x       y       z     vdW  Elec       q    Type
REMARK                         _______ _______ _______ _____ _____    ______ ____
ROOT
ATOM      1  C   UNL     1      -1.150   1.573   0.583  0.00  0.00    +0.260 C 
ATOM      2  O   UNL     1      -1.199   2.776   0.419  0.00  0.00    -0.269 OA
ATOM      3  N   UNL     1       0.036   0.934   0.533  0.00  0.00    -0.230 N 
ATOM      4  H   UNL     1       0.081  -0.155   0.686  0.00  0.00    +0.173 HD
ENDROOT
BRANCH   1   8
ATOM      5  C   UNL     1      -4.715  -0.620   1.308  0.00  0.00    +0.105 A 
ATOM      6  C   UNL     1      -4.775   0.750   1.122  0.00  0.00    +0.029 A 
ATOM      7  C   UNL     1      -3.620   1.468   0.887  0.00  0.00    +0.015 A 
ATOM      8  C   UNL     1      -2.391   0.809   0.835  0.00  0.00    +0.038 A 
ATOM      9  C   UNL     1      -2.339  -0.573   1.017  0.00  0.00    +0.015 A 
ATOM     10  C   UNL     1      -3.500  -1.279   1.258  0.00  0.00    +0.029 A 
BRANCH   5  11
ATOM     11  S   UNL     1      -6.194  -1.529   1.609  0.00  0.00    +0.059 S 
ATOM     12  O   UNL     1      -5.810  -2.715   2.291  0.00  0.00    -0.153 OA
ATOM     13  O   UNL     1      -7.133  -0.610   2.151  0.00  0.00    -0.153 OA
BRANCH  11  14
ATOM     14  N   UNL     1      -6.788  -2.000   0.137  0.00  0.00    -0.187 NA
ATOM     15  H   UNL     1      -7.665  -1.483  -0.280  0.00  0.00    +0.148 HD
BRANCH  14  16
ATOM     16  C   UNL     1      -6.028  -2.938  -0.693  0.00  0.00    +0.073 C 
ATOM     17  C   UNL     1      -6.530  -4.362  -0.444  0.00  0.00    +0.025 C 
BRANCH  16  19
ATOM     18  C   UNL     1      -5.602  -1.208  -2.444  0.00  0.00    +0.005 C 
ATOM     19  C   UNL     1      -6.217  -2.582  -2.169  0.00  0.00    +0.017 C 
ENDBRANCH  16  19
ENDBRANCH  14  16
ENDBRANCH  11  14
ENDBRANCH   5  11
ENDBRANCH   1   8
BRANCH   3  20
ATOM     20  N   UNL     1       1.211   1.656   0.288  0.00  0.00    -0.231 N 
ATOM     21  C   UNL     1       2.396   1.016   0.234  0.00  0.00    +0.270 C 
ATOM     22  O   UNL     1       2.445  -0.185   0.397  0.00  0.00    -0.270 OA
ATOM     23  H   UNL     1       1.167   2.745   0.141  0.00  0.00    +0.173 HD
BRANCH  21  24
ATOM     24  C   UNL     1       3.660   1.793  -0.030  0.00  0.00    +0.257 C 
ATOM     25  C   UNL     1       3.921   2.752   1.133  0.00  0.00    +0.062 C 
BRANCH  24  26
ATOM     26  O   UNL     1       4.758   0.887  -0.156  0.00  0.00    -0.480 OA
BRANCH  26  27
ATOM     27  C   UNL     1       5.829   1.312  -0.878  0.00  0.00    +0.123 A 
ATOM     28  C   UNL     1       5.868   2.611  -1.364  0.00  0.00    +0.046 A 
ATOM     29  C   UNL     1       6.958   3.042  -2.094  0.00  0.00    +0.005 A 
ATOM     30  C   UNL     1       8.007   2.178  -2.348  0.00  0.00    +0.015 A 
ATOM     31  C   UNL     1       7.968   0.880  -1.870  0.00  0.00    +0.021 A 
ATOM     32  C   UNL     1       6.881   0.446  -1.135  0.00  0.00    +0.061 A 
ATOM     33 BR   UNL     1       9.404  -0.299  -2.221  0.00  0.00    -0.050 Br
ENDBRANCH  26  27
ENDBRANCH  24  26
ENDBRANCH  21  24
ENDBRANCH   3  20
TORSDOF 9
