REMARK  Name = ZINC03885406
REMARK  5 active torsions:
REMARK  status: ('A' for Active; 'I' for Inactive)
REMARK    1  A    between atoms: C_5  and  N_7
REMARK    2  A    between atoms: N_7  and  S_8
REMARK    3  A    between atoms: S_8  and  C_11
REMARK    4  A    between atoms: C_13  and  N_23
REMARK    5  A    between atoms: C_16  and  N_17
REMARK                            x       y       z     vdW  Elec       q    Type
REMARK                         _______ _______ _______ _____ _____    ______ ____
ROOT
ATOM      1  C   UNL     1       0.234  -4.641  -0.027  0.00  0.00    +0.132 A 
ATOM      2  C   UNL     1      -0.087  -5.438   1.054  0.00  0.00    +0.053 A 
ATOM      3  C   UNL     1       0.242  -6.788   1.041  0.00  0.00    +0.027 A 
ATOM      4  C   UNL     1       0.894  -7.330  -0.059  0.00  0.00    +0.024 A 
ATOM      5  C   UNL     1       1.213  -6.527  -1.136  0.00  0.00    +0.025 A 
ATOM      6  C   UNL     1       0.879  -5.185  -1.123  0.00  0.00    +0.041 A 
ENDROOT
BRANCH   6   7
ATOM      7  N   UNL     1       1.198  -4.376  -2.217  0.00  0.00    -0.392 NA
ATOM      8  C   UNL     1       0.522  -4.888  -3.416  0.00  0.00    +0.085 C 
ATOM      9  C   UNL     1       0.802  -3.960  -4.600  0.00  0.00    +0.017 C 
ATOM     10  C   UNL     1       2.312  -3.901  -4.849  0.00  0.00    +0.003 C 
ATOM     11  C   UNL     1       3.013  -3.436  -3.568  0.00  0.00    +0.017 C 
ATOM     12  C   UNL     1       2.651  -4.384  -2.423  0.00  0.00    +0.085 C 
ATOM     13  H   UNL     1       0.889  -3.432  -2.038  0.00  0.00    +0.126 HD
ENDBRANCH   6   7
BRANCH   1  14
ATOM     14  S   UNL     1      -0.183  -2.929  -0.013  0.00  0.00    +0.093 S 
ATOM     15  O   UNL     1      -0.802  -2.672   1.241  0.00  0.00    -0.148 OA
ATOM     16  O   UNL     1      -0.828  -2.658  -1.250  0.00  0.00    -0.148 OA
BRANCH  14  17
ATOM     17  N   UNL     1       1.237  -2.078  -0.022  0.00  0.00    -0.096 NA
BRANCH  17  22
ATOM     18  C   UNL     1      -0.017   1.377   0.010  0.00  0.00    +0.002 A 
ATOM     19  C   UNL     1       1.170   2.087   0.002  0.00  0.00    +0.002 A 
ATOM     20  C   UNL     1       2.380   1.417  -0.013  0.00  0.00    +0.022 A 
ATOM     21  C   UNL     1       2.406   0.035  -0.022  0.00  0.00    +0.065 A 
ATOM     22  C   UNL     1       1.215  -0.681  -0.014  0.00  0.00    +0.093 A 
ATOM     23  C   UNL     1       0.002  -0.004   0.002  0.00  0.00    +0.028 A 
ATOM     24 CL   UNL     1       3.925  -0.805  -0.042  0.00  0.00    -0.082 Cl
ENDBRANCH  17  22
ENDBRANCH  14  17
ENDBRANCH   1  14
BRANCH   3  25
ATOM     25  N   UNL     1      -0.081  -7.597   2.132  0.00  0.00    -0.358 N 
ATOM     26  H   UNL     1      -0.536  -7.217   2.900  0.00  0.00    +0.142 HD
ATOM     27  H   UNL     1       0.149  -8.539   2.123  0.00  0.00    +0.142 HD
ENDBRANCH   3  25
TORSDOF 5
