REMARK  Name = ZINC65314459
REMARK  7 active torsions:
REMARK  status: ('A' for Active; 'I' for Inactive)
REMARK    1  A    between atoms: C_1  and  O_2
REMARK    2  A    between atoms: O_2  and  C_3
REMARK    3  A    between atoms: N_12  and  C_13
REMARK    4  A    between atoms: C_13  and  C_15
REMARK    5  A    between atoms: C_15  and  C_16
REMARK    6  A    between atoms: C_16  and  C_17
REMARK    7  A    between atoms: N_19  and  C_20
REMARK                            x       y       z     vdW  Elec       q    Type
REMARK                         _______ _______ _______ _____ _____    ______ ____
ROOT
ATOM      1  C   UNL     1      -1.980   3.687  -0.163  0.00  0.00    +0.240 C 
ATOM      2  O   UNL     1      -3.154   3.993  -0.259  0.00  0.00    -0.274 OA
ENDROOT
BRANCH   1  12
ATOM      3  C   UNL     1      -1.194  -0.631  -0.095  0.00  0.00    +0.203 A 
ATOM      4  C   UNL     1      -1.245  -1.986  -0.093  0.00  0.00    +0.066 A 
ATOM      5  C   UNL     1      -2.477  -2.652  -0.193  0.00  0.00    +0.009 A 
ATOM      6  C   UNL     1      -3.627  -1.937  -0.292  0.00  0.00    +0.049 A 
ATOM      7  C   UNL     1      -3.569  -0.522  -0.294  0.00  0.00    +0.163 A 
ATOM      8  N   UNL     1      -2.346   0.110  -0.190  0.00  0.00    -0.233 N 
ATOM      9  C   UNL     1      -2.564   1.457  -0.209  0.00  0.00    +0.225 A 
ATOM     10  N   UNL     1      -3.892   1.654  -0.317  0.00  0.00    -0.246 N 
ATOM     11  N   UNL     1      -4.506   0.396  -0.376  0.00  0.00    -0.153 NA
ATOM     12  N   UNL     1      -1.629   2.409  -0.133  0.00  0.00    -0.145 NA
ATOM     13  H   UNL     1      -4.341   2.513  -0.354  0.00  0.00    +0.192 HD
BRANCH   3  15
ATOM     14  C   UNL     1       1.170  -0.828  -0.015  0.00  0.00    +0.279 C 
ATOM     15  O   UNL     1       0.002  -0.004   0.002  0.00  0.00    -0.480 OA
ENDBRANCH   3  15
ENDBRANCH   1  12
BRANCH   1  16
ATOM     16  C   UNL     1      -0.926   4.760  -0.078  0.00  0.00    +0.107 C 
BRANCH  16  17
ATOM     17  C   UNL     1      -1.593   6.136  -0.134  0.00  0.00    +0.105 C 
BRANCH  17  18
ATOM     18  C   UNL     1      -0.539   7.210  -0.049  0.00  0.00    +0.214 C 
ATOM     19  O   UNL     1       0.631   6.904   0.047  0.00  0.00    -0.276 OA
ATOM     20  N   UNL     1      -0.896   8.509  -0.079  0.00  0.00    -0.312 N 
ATOM     21  H   UNL     1      -1.831   8.753  -0.155  0.00  0.00    +0.149 HD
BRANCH  20  22
ATOM     22  C   UNL     1       0.129   9.552   0.004  0.00  0.00    +0.073 C 
ATOM     23  C   UNL     1       0.458   9.829   1.472  0.00  0.00    +0.022 C 
ATOM     24  C   UNL     1       1.529  10.918   1.559  0.00  0.00    +0.002 C 
ATOM     25  C   UNL     1       1.007  12.199   0.903  0.00  0.00    +0.000 C 
ATOM     26  C   UNL     1       0.678  11.922  -0.565  0.00  0.00    +0.002 C 
ATOM     27  C   UNL     1      -0.392  10.832  -0.652  0.00  0.00    +0.022 C 
ENDBRANCH  20  22
ENDBRANCH  17  18
ENDBRANCH  16  17
ENDBRANCH   1  16
TORSDOF 6
