REMARK  Name = ZINC37575899
REMARK  3 active torsions:
REMARK  status: ('A' for Active; 'I' for Inactive)
REMARK    1  A    between atoms: C_1  and  C_2
REMARK    2  A    between atoms: N_8  and  S_9
REMARK    3  A    between atoms: S_9  and  C_12
REMARK                            x       y       z     vdW  Elec       q    Type
REMARK                         _______ _______ _______ _____ _____    ______ ____
ROOT
ATOM      1  S   UNL     1       0.075  -4.876   1.468  0.00  0.00    +0.102 S 
ATOM      2  O   UNL     1       1.319  -4.577   2.085  0.00  0.00    -0.146 OA
ATOM      3  O   UNL     1      -1.171  -4.611   2.098  0.00  0.00    -0.146 OA
ENDROOT
BRANCH   1  11
ATOM      4  C   UNL     1      -0.018   1.503   0.010  0.00  0.00    +0.045 C 
ATOM      5  C   UNL     1       0.002  -0.004   0.002  0.00  0.00    -0.034 A 
ATOM      6  C   UNL     1       0.006  -0.696  -1.222  0.00  0.00    +0.008 A 
ATOM      7  C   UNL     1       0.024  -2.054  -1.226  0.00  0.00    +0.048 A 
ATOM      8  C   UNL     1       0.039  -2.750   0.006  0.00  0.00    +0.153 A 
ATOM      9  N   UNL     1       0.035  -2.044   1.185  0.00  0.00    -0.345 N 
ATOM     10  C   UNL     1       0.022  -0.681   1.169  0.00  0.00    +0.087 A 
ATOM     11  N   UNL     1       0.057  -4.067   0.023  0.00  0.00    -0.111 NA
ATOM     12  H   UNL     1       0.045  -2.517   2.031  0.00  0.00    +0.167 HD
ENDBRANCH   1  11
BRANCH   1  13
ATOM     13  C   UNL     1       0.096  -6.599   1.100  0.00  0.00    +0.126 A 
ATOM     14  C   UNL     1       1.190  -7.367   1.450  0.00  0.00    +0.031 A 
ATOM     15  C   UNL     1       1.207  -8.719   1.162  0.00  0.00    +0.017 A 
ATOM     16  C   UNL     1       0.129  -9.304   0.523  0.00  0.00    +0.019 A 
ATOM     17  C   UNL     1      -0.967  -8.536   0.172  0.00  0.00    +0.032 A 
ATOM     18  C   UNL     1      -0.985  -7.184   0.465  0.00  0.00    +0.046 A 
ATOM     19 BR   UNL     1      -2.486  -6.134  -0.007  0.00  0.00    -0.048 Br
ATOM     20 BR   UNL     1       0.152 -11.153   0.128  0.00  0.00    -0.050 Br
ENDBRANCH   1  13
TORSDOF 2
