REMARK  Name = ZINC07204025
REMARK  7 active torsions:
REMARK  status: ('A' for Active; 'I' for Inactive)
REMARK    1  A    between atoms: C_1  and  C_2
REMARK    2  A    between atoms: C_5  and  N_9
REMARK    3  A    between atoms: C_6  and  C_8
REMARK    4  A    between atoms: C_10  and  C_12
REMARK    5  A    between atoms: C_12  and  C_14
REMARK    6  A    between atoms: C_12  and  S_15
REMARK    7  A    between atoms: S_15  and  C_16
REMARK                            x       y       z     vdW  Elec       q    Type
REMARK                         _______ _______ _______ _____ _____    ______ ____
ROOT
ATOM      1  C   UNL     1       3.136   4.901  -0.757  0.00  0.00    +0.192 A 
ATOM      2  N   UNL     1       4.180   4.176  -0.370  0.00  0.00    -0.207 NA
ATOM      3  C   UNL     1       5.410   4.661  -0.364  0.00  0.00    +0.129 A 
ATOM      4  C   UNL     1       5.630   6.002  -0.785  0.00  0.00    +0.051 A 
ATOM      5  C   UNL     1       6.892   6.742  -0.860  0.00  0.00    -0.025 A 
ATOM      6  C   UNL     1       6.830   8.015  -1.297  0.00  0.00    -0.004 A 
ATOM      7  S   UNL     1       5.113   8.306  -1.631  0.00  0.00    -0.073 S 
ATOM      8  C   UNL     1       4.480   6.711  -1.182  0.00  0.00    +0.115 A 
ATOM      9  N   UNL     1       3.284   6.155  -1.164  0.00  0.00    -0.214 NA
ATOM     10  C   UNL     1       7.968   8.976  -1.462  0.00  0.00    +0.043 C 
ATOM     11  C   UNL     1       9.184   8.421  -0.707  0.00  0.00    +0.005 C 
ATOM     12  C   UNL     1       9.360   6.945  -1.077  0.00  0.00    +0.005 C 
ATOM     13  C   UNL     1       8.228   6.118  -0.466  0.00  0.00    +0.037 C 
ATOM     14  N   UNL     1       6.470   3.873   0.046  0.00  0.00    -0.343 N 
ATOM     15  H   UNL     1       6.466   2.921  -0.139  0.00  0.00    +0.144 HD
ATOM     16  H   UNL     1       7.217   4.273   0.517  0.00  0.00    +0.144 HD
ENDROOT
BRANCH   1  17
ATOM     17  S   UNL     1       1.528   4.182  -0.736  0.00  0.00    -0.073 S 
BRANCH  17  18
ATOM     18  C   UNL     1       1.931   2.527  -0.124  0.00  0.00    +0.137 C 
ATOM     19  C   UNL     1       2.465   2.628   1.306  0.00  0.00    +0.029 C 
BRANCH  18  21
ATOM     20  N   UNL     1       0.800   0.327  -0.120  0.00  0.00    -0.284 N 
ATOM     21  C   UNL     1       0.692   1.670  -0.138  0.00  0.00    +0.230 C 
ATOM     22  O   UNL     1      -0.404   2.190  -0.171  0.00  0.00    -0.274 OA
ATOM     23  H   UNL     1       1.674  -0.090  -0.180  0.00  0.00    +0.155 HD
BRANCH  20  28
ATOM     24  C   UNL     1      -3.853  -2.890   0.310  0.00  0.00    +0.044 C 
ATOM     25  C   UNL     1      -2.616  -2.035   0.196  0.00  0.00    -0.050 A 
ATOM     26  C   UNL     1      -2.628  -0.738   0.674  0.00  0.00    +0.005 A 
ATOM     27  C   UNL     1      -1.497   0.048   0.571  0.00  0.00    +0.024 A 
ATOM     28  C   UNL     1      -0.347  -0.466  -0.014  0.00  0.00    +0.036 A 
ATOM     29  C   UNL     1      -0.341  -1.768  -0.498  0.00  0.00    -0.029 A 
ATOM     30  C   UNL     1      -1.473  -2.550  -0.387  0.00  0.00    +0.008 A 
ATOM     31  C   UNL     1       0.903  -2.328  -1.139  0.00  0.00    +0.045 C 
ENDBRANCH  20  28
ENDBRANCH  18  21
ENDBRANCH  17  18
ENDBRANCH   1  17
TORSDOF 4
