REMARK  Name = ZINC06460123
REMARK  11 active torsions:
REMARK  status: ('A' for Active; 'I' for Inactive)
REMARK    1  A    between atoms: C_3  and  O_32
REMARK    2  A    between atoms: C_6  and  C_7
REMARK    3  A    between atoms: C_9  and  C_23
REMARK    4  A    between atoms: C_11  and  O_12
REMARK    5  A    between atoms: N_15  and  C_16
REMARK    6  A    between atoms: C_16  and  C_17
REMARK    7  A    between atoms: C_17  and  C_18
REMARK    8  A    between atoms: C_18  and  C_19
REMARK    9  A    between atoms: C_19  and  C_20
REMARK   10  A    between atoms: C_20  and  C_21
REMARK   11  A    between atoms: C_23  and  C_25
REMARK                            x       y       z     vdW  Elec       q    Type
REMARK                         _______ _______ _______ _____ _____    ______ ____
ROOT
ATOM      1  C   UNL     1      -1.333   2.113   0.020  0.00  0.00    +0.144 C 
ATOM      2  C   UNL     1      -1.663   2.580   1.446  0.00  0.00    +0.071 C 
ATOM      3  C   UNL     1      -1.742   4.089   1.337  0.00  0.00    +0.188 C 
ATOM      4  C   UNL     1      -1.466   4.423  -0.089  0.00  0.00    +0.282 C 
ATOM      5  O   UNL     1      -1.448   5.550  -0.539  0.00  0.00    -0.267 OA
ATOM      6  N   UNL     1      -1.241   3.316  -0.808  0.00  0.00    -0.284 N 
ENDROOT
BRANCH   1  12
ATOM      7  C   UNL     1       1.170   2.088   0.002  0.00  0.00    +0.009 A 
ATOM      8  C   UNL     1       2.377   1.417  -0.013  0.00  0.00    +0.046 A 
ATOM      9  C   UNL     1       2.399   0.030  -0.021  0.00  0.00    +0.117 A 
ATOM     10  C   UNL     1       1.207  -0.680  -0.013  0.00  0.00    +0.046 A 
ATOM     11  C   UNL     1       0.002  -0.004   0.002  0.00  0.00    +0.009 A 
ATOM     12  C   UNL     1      -0.017   1.378   0.010  0.00  0.00    -0.022 A 
BRANCH   9  13
ATOM     13  O   UNL     1       3.586  -0.632  -0.035  0.00  0.00    -0.507 OA
ATOM     14  H   UNL     1       3.921  -0.819  -0.923  0.00  0.00    +0.292 HD
ENDBRANCH   9  13
ENDBRANCH   1  12
BRANCH   3  16
ATOM     15  H   UNL     1      -2.125   4.364   3.081  0.00  0.00    +0.292 HD
ATOM     16  O   UNL     1      -1.981   4.867   2.229  0.00  0.00    -0.502 OA
ENDBRANCH   3  16
BRANCH   2  17
ATOM     17  C   UNL     1      -1.929   2.138   2.862  0.00  0.00    +0.195 C 
ATOM     18  O   UNL     1      -3.062   1.891   3.217  0.00  0.00    -0.287 OA
BRANCH  17  19
ATOM     19  C   UNL     1      -0.815   2.004   3.813  0.00  0.00    +0.022 A 
ATOM     20  C   UNL     1       0.494   2.282   3.405  0.00  0.00    +0.013 A 
ATOM     21  C   UNL     1       1.533   2.161   4.303  0.00  0.00    +0.021 A 
ATOM     22  C   UNL     1       1.284   1.754   5.604  0.00  0.00    +0.041 A 
ATOM     23  C   UNL     1      -0.009   1.471   6.013  0.00  0.00    +0.021 A 
ATOM     24  C   UNL     1      -1.058   1.593   5.128  0.00  0.00    +0.013 A 
ATOM     25 CL   UNL     1       2.599   1.597   6.726  0.00  0.00    -0.084 Cl
ENDBRANCH  17  19
ENDBRANCH   2  17
BRANCH   6  26
ATOM     26  C   UNL     1      -0.940   3.310  -2.241  0.00  0.00    +0.109 C 
BRANCH  26  27
ATOM     27  C   UNL     1      -2.244   3.213  -3.036  0.00  0.00    +0.019 C 
BRANCH  27  28
ATOM     28  C   UNL     1      -1.930   3.207  -4.533  0.00  0.00    +0.002 C 
BRANCH  28  29
ATOM     29  C   UNL     1      -3.234   3.110  -5.328  0.00  0.00    +0.011 C 
BRANCH  29  30
ATOM     30  C   UNL     1      -2.919   3.104  -6.825  0.00  0.00    +0.125 C 
BRANCH  30  31
ATOM     31  C   UNL     1      -4.204   3.008  -7.607  0.00  0.00    +0.356 C 
ATOM     32  O   UNL     1      -5.262   2.950  -7.027  0.00  0.00    -0.246 OA
ATOM     33  O   UNL     1      -4.172   2.986  -8.949  0.00  0.00    -0.246 OA
ENDBRANCH  30  31
ENDBRANCH  29  30
ENDBRANCH  28  29
ENDBRANCH  27  28
ENDBRANCH  26  27
ENDBRANCH   6  26
TORSDOF 11
