REMARK  Name = ZINC14544980
REMARK  4 active torsions:
REMARK  status: ('A' for Active; 'I' for Inactive)
REMARK    1  A    between atoms: C_4  and  C_7
REMARK    2  A    between atoms: C_7  and  O_8
REMARK    3  A    between atoms: O_8  and  C_9
REMARK    4  A    between atoms: C_22  and  C_25
REMARK                            x       y       z     vdW  Elec       q    Type
REMARK                         _______ _______ _______ _____ _____    ______ ____
ROOT
ATOM      1  C   UNL     1      -1.201  -0.638   0.010  0.00  0.00    +0.121 A 
ATOM      2  C   UNL     1      -2.376   0.100   0.025  0.00  0.00    +0.047 A 
ATOM      3  C   UNL     1      -3.596  -0.542   0.039  0.00  0.00    +0.027 A 
ATOM      4  C   UNL     1      -3.661  -1.930   0.033  0.00  0.00    +0.032 A 
ATOM      5  C   UNL     1      -2.474  -2.670   0.008  0.00  0.00    -0.016 A 
ATOM      6  C   UNL     1      -1.257  -2.023  -0.003  0.00  0.00    +0.051 A 
ATOM      7  C   UNL     1      -2.589  -4.144  -0.023  0.00  0.00    +0.049 C 
ATOM      8  C   UNL     1      -1.516  -5.027   0.503  0.00  0.00    -0.023 C 
ATOM      9  C   UNL     1      -2.073  -6.136   0.974  0.00  0.00    -0.030 C 
ATOM     10  C   UNL     1      -3.594  -6.062   0.826  0.00  0.00    +0.033 C 
ATOM     11  C   UNL     1      -3.831  -4.546   0.828  0.00  0.00    +0.029 C 
ATOM     12  C   UNL     1      -5.033  -4.033   0.055  0.00  0.00    +0.107 C 
ATOM     13  N   UNL     1      -4.915  -2.558   0.067  0.00  0.00    -0.336 N 
ATOM     14  H   UNL     1      -5.718  -2.016   0.099  0.00  0.00    +0.147 HD
ENDROOT
BRANCH  12  15
ATOM     15  C   UNL     1      -4.999  -4.546  -1.362  0.00  0.00    -0.002 A 
ATOM     16  C   UNL     1      -4.435  -3.939  -2.418  0.00  0.00    +0.089 A 
ATOM     17  N   UNL     1      -4.603  -4.703  -3.540  0.00  0.00    -0.360 N 
ATOM     18  H   UNL     1      -4.281  -4.472  -4.425  0.00  0.00    +0.165 HD
ATOM     19  C   UNL     1      -5.296  -5.851  -3.226  0.00  0.00    +0.047 A 
ATOM     20  C   UNL     1      -5.570  -5.805  -1.846  0.00  0.00    +0.005 A 
ATOM     21  C   UNL     1      -6.276  -6.846  -1.242  0.00  0.00    +0.010 A 
ATOM     22  C   UNL     1      -6.688  -7.912  -1.992  0.00  0.00    +0.001 A 
ATOM     23  C   UNL     1      -6.415  -7.964  -3.352  0.00  0.00    +0.002 A 
ATOM     24  C   UNL     1      -5.725  -6.945  -3.970  0.00  0.00    +0.026 A 
ENDBRANCH  12  15
BRANCH   1  25
ATOM     25  O   UNL     1       0.002  -0.004   0.002  0.00  0.00    -0.487 OA
BRANCH  25  26
ATOM     26  C   UNL     1      -0.017   1.425   0.010  0.00  0.00    +0.264 C 
BRANCH  26  30
ATOM     27  C   UNL     1       3.990   2.904  -0.020  0.00  0.00    +0.000 A 
ATOM     28  C   UNL     1       3.330   2.671  -1.213  0.00  0.00    +0.000 A 
ATOM     29  C   UNL     1       2.034   2.192  -1.203  0.00  0.00    +0.007 A 
ATOM     30  C   UNL     1       1.397   1.946  -0.001  0.00  0.00    -0.010 A 
ATOM     31  C   UNL     1       2.054   2.185   1.191  0.00  0.00    +0.007 A 
ATOM     32  C   UNL     1       3.353   2.659   1.181  0.00  0.00    +0.000 A 
ENDBRANCH  26  30
ENDBRANCH  25  26
ENDBRANCH   1  25
TORSDOF 4
