REMARK  Name = ZINC38685162
REMARK  14 active torsions:
REMARK  status: ('A' for Active; 'I' for Inactive)
REMARK    1  A    between atoms: C_1  and  C_2
REMARK    2  A    between atoms: C_2  and  C_3
REMARK    3  A    between atoms: C_3  and  C_4
REMARK    4  A    between atoms: C_4  and  O_5
REMARK    5  A    between atoms: O_5  and  C_6
REMARK    6  A    between atoms: C_10  and  C_12
REMARK    7  A    between atoms: C_17  and  O_26
REMARK    8  A    between atoms: C_21  and  N_25
REMARK    9  A    between atoms: C_22  and  C_23
REMARK   10  A    between atoms: O_26  and  C_27
REMARK   11  A    between atoms: C_27  and  C_29
REMARK   12  A    between atoms: C_32  and  O_35
REMARK   13  A    between atoms: O_35  and  C_36
REMARK   14  A    between atoms: C_36  and  C_37
REMARK                            x       y       z     vdW  Elec       q    Type
REMARK                         _______ _______ _______ _____ _____    ______ ____
ROOT
ATOM      1  C   UNL     1       3.055  -6.285   4.947  0.00  0.00    +0.098 C 
ATOM      2  C   UNL     1       4.224  -7.119   4.495  0.00  0.00    +0.008 A 
ATOM      3  C   UNL     1       5.347  -6.496   3.981  0.00  0.00    +0.012 A 
ATOM      4  C   UNL     1       6.429  -7.245   3.562  0.00  0.00    +0.047 A 
ATOM      5  C   UNL     1       6.392  -8.630   3.658  0.00  0.00    +0.135 A 
ATOM      6  C   UNL     1       5.269  -9.257   4.172  0.00  0.00    +0.093 A 
ATOM      7  C   UNL     1       4.182  -8.501   4.592  0.00  0.00    +0.138 A 
ATOM      8  O   UNL     1       3.091  -9.130   5.094  0.00  0.00    -0.441 OA
ATOM      9  C   UNL     1       2.212  -8.449   5.848  0.00  0.00    +0.199 C 
ATOM     10  C   UNL     1       2.146  -7.100   5.822  0.00  0.00    +0.098 C 
ENDROOT
BRANCH   1  15
ATOM     11  C   UNL     1       1.445  -4.010   2.394  0.00  0.00    +0.121 A 
ATOM     12  C   UNL     1       0.880  -4.931   1.524  0.00  0.00    +0.045 A 
ATOM     13  C   UNL     1       1.022  -6.284   1.764  0.00  0.00    +0.004 A 
ATOM     14  C   UNL     1       1.726  -6.721   2.871  0.00  0.00    +0.005 A 
ATOM     15  C   UNL     1       2.289  -5.805   3.741  0.00  0.00    -0.031 A 
ATOM     16  C   UNL     1       2.155  -4.451   3.502  0.00  0.00    +0.050 A 
BRANCH  11  17
ATOM     17  O   UNL     1       1.307  -2.679   2.160  0.00  0.00    -0.492 OA
BRANCH  17  18
ATOM     18  C   UNL     1       0.563  -2.298   1.001  0.00  0.00    +0.229 C 
BRANCH  18  19
ATOM     19  C   UNL     1       0.516  -0.771   0.904  0.00  0.00    +0.041 C 
BRANCH  19  21
ATOM     20  C   UNL     1      -0.327   1.163  -0.434  0.00  0.00    +0.004 C 
ATOM     21  C   UNL     1      -0.280  -0.363  -0.337  0.00  0.00    -0.000 C 
ENDBRANCH  19  21
ENDBRANCH  18  19
ENDBRANCH  17  18
ENDBRANCH  11  17
ENDBRANCH   1  15
BRANCH   9  22
ATOM     22  N   UNL     1       1.357  -9.144   6.667  0.00  0.00    -0.328 N 
ATOM     23  H   UNL     1       1.393 -10.113   6.695  0.00  0.00    +0.145 HD
ATOM     24  H   UNL     1       0.717  -8.666   7.218  0.00  0.00    +0.145 HD
ENDBRANCH   9  22
BRANCH  10  25
ATOM     25  C   UNL     1       1.185  -6.433   6.650  0.00  0.00    +0.101 C 
ATOM     26  N   UNL     1       0.424  -5.905   7.306  0.00  0.00    -0.191 NA
ENDBRANCH  10  25
BRANCH   5  27
ATOM     27  O   UNL     1       7.456  -9.369   3.246  0.00  0.00    -0.422 OA
BRANCH  27  28
ATOM     28  C   UNL     1       8.591  -9.301   3.970  0.00  0.00    +0.344 C 
ATOM     29  O   UNL     1       8.610  -8.679   5.013  0.00  0.00    -0.245 OA
BRANCH  28  30
ATOM     30  C   UNL     1       9.809  -9.983   3.495  0.00  0.00    +0.060 A 
ATOM     31  C   UNL     1       9.791 -10.695   2.292  0.00  0.00    +0.018 A 
ATOM     32  C   UNL     1      10.931 -11.329   1.852  0.00  0.00    +0.046 A 
ATOM     33  C   UNL     1      12.099 -11.263   2.603  0.00  0.00    +0.121 A 
ATOM     34  C   UNL     1      12.121 -10.557   3.800  0.00  0.00    +0.046 A 
ATOM     35  C   UNL     1      10.988  -9.915   4.244  0.00  0.00    +0.018 A 
BRANCH  33  36
ATOM     36  O   UNL     1      13.220 -11.890   2.165  0.00  0.00    -0.488 OA
BRANCH  36  37
ATOM     37  C   UNL     1      14.386 -11.781   2.985  0.00  0.00    +0.256 C 
BRANCH  37  38
ATOM     38  C   UNL     1      15.523 -12.535   2.345  0.00  0.00    +0.006 C 
ATOM     39  C   UNL     1      16.713 -11.992   2.279  0.00  0.00    +0.007 C 
ENDBRANCH  37  38
ENDBRANCH  36  37
ENDBRANCH  33  36
ENDBRANCH  28  30
ENDBRANCH  27  28
ENDBRANCH   5  27
TORSDOF 13
