REMARK  Name = ZINC09329124
REMARK  8 active torsions:
REMARK  status: ('A' for Active; 'I' for Inactive)
REMARK    1  A    between atoms: C_1  and  C_2
REMARK    2  A    between atoms: C_6  and  C_28
REMARK    3  A    between atoms: C_7  and  N_8
REMARK    4  A    between atoms: C_9  and  C_11
REMARK    5  A    between atoms: C_11  and  O_12
REMARK    6  A    between atoms: O_12  and  C_13
REMARK    7  A    between atoms: C_13  and  C_15
REMARK    8  A    between atoms: N_20  and  C_22
REMARK                            x       y       z     vdW  Elec       q    Type
REMARK                         _______ _______ _______ _____ _____    ______ ____
ROOT
ATOM      1  O   UNL     1       3.539   7.181   0.697  0.00  0.00    -0.455 OA
ENDROOT
BRANCH   1   2
ATOM      2  C   UNL     1       4.603   7.958   0.955  0.00  0.00    +0.313 C 
ATOM      3  O   UNL     1       5.670   7.455   1.218  0.00  0.00    -0.250 OA
BRANCH   2   4
ATOM      4  C   UNL     1       4.468   9.459   0.916  0.00  0.00    +0.124 C 
ATOM      5  C   UNL     1       3.449   9.950   1.971  0.00  0.00    +0.112 C 
ATOM      6  C   UNL     1       4.038  11.247   2.480  0.00  0.00    +0.221 C 
ATOM      7  O   UNL     1       3.429  12.088   3.106  0.00  0.00    -0.275 OA
ATOM      8  N   UNL     1       5.335  11.331   2.137  0.00  0.00    -0.271 N 
ATOM      9  C   UNL     1       5.768  10.143   1.392  0.00  0.00    +0.128 C 
BRANCH   8  10
ATOM     10  C   UNL     1       6.166  12.413   2.450  0.00  0.00    +0.036 A 
ATOM     11  C   UNL     1       5.695  13.441   3.257  0.00  0.00    +0.023 A 
ATOM     12  C   UNL     1       6.519  14.505   3.568  0.00  0.00    +0.002 A 
ATOM     13  C   UNL     1       7.807  14.553   3.069  0.00  0.00    +0.000 A 
ATOM     14  C   UNL     1       8.278  13.533   2.262  0.00  0.00    +0.002 A 
ATOM     15  C   UNL     1       7.461  12.463   1.951  0.00  0.00    +0.023 A 
ENDBRANCH   8  10
ENDBRANCH   2   4
ENDBRANCH   1   2
BRANCH   1  16
ATOM     16  C   UNL     1       3.743   5.745   0.752  0.00  0.00    +0.328 C 
BRANCH  16  18
ATOM     17  N   UNL     1       2.397   3.695   0.430  0.00  0.00    -0.282 N 
ATOM     18  C   UNL     1       2.448   5.041   0.438  0.00  0.00    +0.255 C 
ATOM     19  O   UNL     1       1.451   5.687   0.191  0.00  0.00    -0.272 OA
ATOM     20  H   UNL     1       3.210   3.178   0.547  0.00  0.00    +0.155 HD
BRANCH  17  27
ATOM     21  C   UNL     1       0.885   4.282  -1.908  0.00  0.00    +0.046 C 
ATOM     22  C   UNL     1       0.402   3.299  -0.873  0.00  0.00    -0.028 A 
ATOM     23  C   UNL     1      -0.806   2.652  -1.044  0.00  0.00    +0.020 A 
ATOM     24  C   UNL     1      -1.253   1.754  -0.092  0.00  0.00    +0.018 A 
ATOM     25  C   UNL     1      -0.485   1.491   1.029  0.00  0.00    +0.020 A 
ATOM     26  C   UNL     1       0.724   2.135   1.206  0.00  0.00    -0.028 A 
ATOM     27  C   UNL     1       1.172   3.041   0.254  0.00  0.00    +0.039 A 
ATOM     28  C   UNL     1       1.557   1.852   2.429  0.00  0.00    +0.046 C 
ATOM     29 BR   UNL     1      -2.912   0.876  -0.326  0.00  0.00    -0.050 Br
ENDBRANCH  17  27
ENDBRANCH  16  18
ENDBRANCH   1  16
TORSDOF 6
