REMARK  Name = ZINC20183320
REMARK  11 active torsions:
REMARK  status: ('A' for Active; 'I' for Inactive)
REMARK    1  A    between atoms: C_1  and  C_2
REMARK    2  A    between atoms: C_2  and  C_3
REMARK    3  A    between atoms: C_2  and  C_4
REMARK    4  A    between atoms: C_7  and  N_10
REMARK    5  A    between atoms: N_10  and  C_11
REMARK    6  A    between atoms: C_11  and  N_13
REMARK    7  A    between atoms: N_13  and  N_14
REMARK    8  A    between atoms: C_15  and  C_16
REMARK    9  A    between atoms: N_18  and  C_34
REMARK   10  A    between atoms: C_22  and  S_25
REMARK   11  A    between atoms: S_25  and  N_28
REMARK                            x       y       z     vdW  Elec       q    Type
REMARK                         _______ _______ _______ _____ _____    ______ ____
ROOT
ATOM      1  C   UNL     1       2.688   0.990   0.929  0.00  0.00    +0.020 A 
ATOM      2  C   UNL     1       3.443   1.737   1.779  0.00  0.00    +0.096 A 
ATOM      3  N   UNL     1       2.668   2.696   2.360  0.00  0.00    -0.349 N 
ATOM      4  C   UNL     1       1.371   2.604   1.902  0.00  0.00    +0.050 A 
ATOM      5  C   UNL     1       1.321   1.537   0.989  0.00  0.00    +0.010 A 
ATOM      6  C   UNL     1       0.121   1.210   0.362  0.00  0.00    +0.039 A 
ATOM      7  C   UNL     1      -1.013   1.941   0.638  0.00  0.00    +0.106 A 
ATOM      8  C   UNL     1      -0.968   2.991   1.544  0.00  0.00    +0.030 A 
ATOM      9  C   UNL     1       0.212   3.326   2.171  0.00  0.00    +0.028 A 
ATOM     10  C   UNL     1       3.145   3.684   3.331  0.00  0.00    +0.149 C 
ENDROOT
BRANCH   7  11
ATOM     11  S   UNL     1      -2.532   1.536  -0.159  0.00  0.00    +0.061 S 
ATOM     12  O   UNL     1      -3.278   2.742  -0.248  0.00  0.00    -0.153 OA
ATOM     13  O   UNL     1      -2.197   0.760  -1.301  0.00  0.00    -0.153 OA
BRANCH  11  14
ATOM     14  N   UNL     1      -3.369   0.537   0.863  0.00  0.00    -0.177 NA
ATOM     15  C   UNL     1      -3.125  -0.912   0.860  0.00  0.00    +0.109 C 
ATOM     16  C   UNL     1      -2.805  -1.356   2.296  0.00  0.00    +0.017 C 
ATOM     17  C   UNL     1      -3.937  -0.912   3.225  0.00  0.00    +0.003 C 
ATOM     18  C   UNL     1      -4.045   0.614   3.206  0.00  0.00    +0.017 C 
ATOM     19  C   UNL     1      -4.375   1.082   1.785  0.00  0.00    +0.109 C 
ENDBRANCH  11  14
ENDBRANCH   7  11
BRANCH   1  21
ATOM     20  N   UNL     1       4.405  -0.258  -0.195  0.00  0.00    -0.188 NA
ATOM     21  C   UNL     1       3.147  -0.143   0.110  0.00  0.00    +0.140 C 
BRANCH  20  22
ATOM     22  N   UNL     1       5.294   0.784   0.099  0.00  0.00    -0.218 N 
ATOM     23  H   UNL     1       4.914   1.736   0.498  0.00  0.00    +0.176 HD
BRANCH  22  24
ATOM     24  C   UNL     1       6.616   0.621  -0.109  0.00  0.00    +0.154 C 
ATOM     25  S   UNL     1       7.715   1.845   0.367  0.00  0.00    -0.017 S 
BRANCH  24  26
ATOM     26  N   UNL     1       7.072  -0.505  -0.692  0.00  0.00    -0.296 N 
ATOM     27  H   UNL     1       6.362  -1.254  -1.073  0.00  0.00    +0.154 HD
BRANCH  26  31
ATOM     28  C   UNL     1      11.172  -1.149  -1.052  0.00  0.00    -0.045 A 
ATOM     29  C   UNL     1      10.658  -0.607   0.112  0.00  0.00    +0.006 A 
ATOM     30  C   UNL     1       9.300  -0.392   0.235  0.00  0.00    +0.023 A 
ATOM     31  C   UNL     1       8.449  -0.722  -0.813  0.00  0.00    +0.033 A 
ATOM     32  C   UNL     1       8.967  -1.272  -1.978  0.00  0.00    +0.023 A 
ATOM     33  C   UNL     1      10.328  -1.478  -2.096  0.00  0.00    +0.006 A 
BRANCH  28  35
ATOM     34  C   UNL     1      12.919  -2.871  -1.417  0.00  0.00    +0.012 C 
ATOM     35  C   UNL     1      12.655  -1.382  -1.182  0.00  0.00    +0.013 C 
ATOM     36  C   UNL     1      13.196  -0.575  -2.364  0.00  0.00    +0.012 C 
ENDBRANCH  28  35
ENDBRANCH  26  31
ENDBRANCH  24  26
ENDBRANCH  22  24
ENDBRANCH  20  22
ENDBRANCH   1  21
TORSDOF 8
