REMARK  Name = ZINC50101601
REMARK  4 active torsions:
REMARK  status: ('A' for Active; 'I' for Inactive)
REMARK    1  A    between atoms: C_1  and  C_2
REMARK    2  A    between atoms: C_2  and  N_3
REMARK    3  A    between atoms: N_3  and  C_4
REMARK    4  A    between atoms: C_13  and  C_15
REMARK                            x       y       z     vdW  Elec       q    Type
REMARK                         _______ _______ _______ _____ _____    ______ ____
ROOT
ATOM      1  C   UNL     1      -1.242  -1.975   0.044  0.00  0.00    -0.038 C 
ATOM      2  C   UNL     1      -2.631  -2.608   0.121  0.00  0.00    -0.011 C 
ATOM      3  C   UNL     1      -2.486  -4.122  -0.072  0.00  0.00    +0.005 C 
ATOM      4  C   UNL     1      -2.094  -4.391  -1.524  0.00  0.00    +0.056 C 
ATOM      5  C   UNL     1      -0.911  -3.546  -1.913  0.00  0.00    +0.047 A 
ATOM      6  C   UNL     1      -0.527  -2.436  -1.196  0.00  0.00    -0.022 A 
ATOM      7  C   UNL     1       0.575  -1.711  -1.639  0.00  0.00    +0.117 A 
ATOM      8  N   UNL     1       1.216  -2.105  -2.724  0.00  0.00    -0.235 NA
ATOM      9  C   UNL     1       0.818  -3.180  -3.390  0.00  0.00    +0.160 A 
ATOM     10  N   UNL     1      -0.218  -3.888  -2.992  0.00  0.00    -0.232 NA
ENDROOT
BRANCH   9  11
ATOM     11  C   UNL     1       1.560  -3.598  -4.604  0.00  0.00    +0.022 A 
ATOM     12  C   UNL     1       1.154  -4.721  -5.321  0.00  0.00    +0.031 A 
ATOM     13  C   UNL     1       1.849  -5.106  -6.451  0.00  0.00    +0.043 A 
ATOM     14  C   UNL     1       2.948  -4.377  -6.872  0.00  0.00    +0.040 A 
ATOM     15  C   UNL     1       3.356  -3.260  -6.164  0.00  0.00    +0.043 A 
ATOM     16  C   UNL     1       2.664  -2.864  -5.035  0.00  0.00    +0.031 A 
ATOM     17 CL   UNL     1       4.735  -2.351  -6.698  0.00  0.00    -0.083 Cl
ATOM     18 CL   UNL     1       1.344  -6.506  -7.344  0.00  0.00    -0.083 Cl
ENDBRANCH   9  11
BRANCH   1  19
ATOM     19  N   UNL     1      -1.376  -0.512   0.012  0.00  0.00    +0.383 N 
ATOM     20  H   UNL     1      -1.981  -0.246  -0.750  0.00  0.00    -0.085 HD
ATOM     21  H   UNL     1      -0.467  -0.094  -0.117  0.00  0.00    -0.085 HD
BRANCH  19  23
ATOM     22  C   UNL     1      -1.973   1.483   1.300  0.00  0.00    -0.017 C 
ATOM     23  C   UNL     1      -1.953  -0.046   1.280  0.00  0.00    -0.085 C 
ENDBRANCH  19  23
ENDBRANCH   1  19
TORSDOF 3
