REMARK  Name = ZINC00202416
REMARK  5 active torsions:
REMARK  status: ('A' for Active; 'I' for Inactive)
REMARK    1  A    between atoms: C_1  and  C_2
REMARK    2  A    between atoms: C_2  and  C_3
REMARK    3  A    between atoms: C_2  and  C_4
REMARK    4  A    between atoms: C_7  and  C_10
REMARK    5  A    between atoms: N_14  and  C_18
REMARK                            x       y       z     vdW  Elec       q    Type
REMARK                         _______ _______ _______ _____ _____    ______ ____
ROOT
ATOM      1  C   UNL     1      -1.105   2.277   0.020  0.00  0.00    +0.036 C 
ATOM      2  C   UNL     1      -0.043   1.477   0.278  0.00  0.00    +0.099 C 
ATOM      3  C   UNL     1      -0.065   0.051   0.646  0.00  0.00    +0.273 C 
ATOM      4  O   UNL     1      -1.048  -0.653   0.785  0.00  0.00    -0.268 OA
ATOM      5  N   UNL     1       1.223  -0.318   0.797  0.00  0.00    -0.189 N 
ATOM      6  C   UNL     1       2.027   0.731   0.562  0.00  0.00    +0.318 C 
ATOM      7  O   UNL     1       3.241   0.694   0.624  0.00  0.00    -0.251 OA
ATOM      8  N   UNL     1       1.313   1.826   0.248  0.00  0.00    -0.264 N 
ATOM      9  H   UNL     1       1.673   2.702   0.037  0.00  0.00    +0.157 HD
ENDROOT
BRANCH   5  10
ATOM     10  C   UNL     1       1.658  -1.603   1.149  0.00  0.00    +0.047 A 
ATOM     11  C   UNL     1       0.731  -2.613   1.375  0.00  0.00    +0.024 A 
ATOM     12  C   UNL     1       1.162  -3.880   1.717  0.00  0.00    +0.003 A 
ATOM     13  C   UNL     1       2.514  -4.142   1.843  0.00  0.00    +0.020 A 
ATOM     14  C   UNL     1       3.439  -3.137   1.623  0.00  0.00    +0.043 A 
ATOM     15  C   UNL     1       3.014  -1.868   1.276  0.00  0.00    +0.044 A 
ATOM     16 CL   UNL     1       5.136  -3.470   1.784  0.00  0.00    -0.083 Cl
ENDBRANCH   5  10
BRANCH   1  20
ATOM     17  C   UNL     1      -4.992   0.609  -0.290  0.00  0.00    -0.045 A 
ATOM     18  C   UNL     1      -4.817   1.838   0.321  0.00  0.00    +0.004 A 
ATOM     19  C   UNL     1      -3.557   2.388   0.426  0.00  0.00    +0.008 A 
ATOM     20  C   UNL     1      -2.453   1.699  -0.087  0.00  0.00    -0.023 A 
ATOM     21  C   UNL     1      -2.638   0.459  -0.709  0.00  0.00    +0.008 A 
ATOM     22  C   UNL     1      -3.904  -0.080  -0.800  0.00  0.00    +0.004 A 
BRANCH  17  24
ATOM     23  C   UNL     1      -6.722  -0.192  -1.875  0.00  0.00    +0.012 C 
ATOM     24  C   UNL     1      -6.373   0.015  -0.400  0.00  0.00    +0.013 C 
ATOM     25  C   UNL     1      -6.409  -1.330   0.327  0.00  0.00    +0.012 C 
ENDBRANCH  17  24
ENDBRANCH   1  20
TORSDOF 3
