REMARK  Name = ZINC09361365
REMARK  13 active torsions:
REMARK  status: ('A' for Active; 'I' for Inactive)
REMARK    1  A    between atoms: C_1  and  C_2
REMARK    2  A    between atoms: C_2  and  O_3
REMARK    3  A    between atoms: O_3  and  C_4
REMARK    4  A    between atoms: C_7  and  C_12
REMARK    5  A    between atoms: C_9  and  O_10
REMARK    6  A    between atoms: O_10  and  C_11
REMARK    7  A    between atoms: C_19  and  N_35
REMARK    8  A    between atoms: C_20  and  C_33
REMARK    9  A    between atoms: C_21  and  C_23
REMARK   10  A    between atoms: C_27  and  O_31
REMARK   11  A    between atoms: C_28  and  O_29
REMARK   12  A    between atoms: O_29  and  C_30
REMARK   13  A    between atoms: O_31  and  C_32
REMARK                            x       y       z     vdW  Elec       q    Type
REMARK                         _______ _______ _______ _____ _____    ______ ____
ROOT
ATOM      1  C   UNL     1       0.395  -6.486  -2.233  0.00  0.00    +0.074 A 
ATOM      2  C   UNL     1       1.127  -7.242  -1.380  0.00  0.00    +0.054 A 
ATOM      3  C   UNL     1       0.968  -8.593  -1.747  0.00  0.00    +0.245 A 
ATOM      4  N   UNL     1       0.173  -8.648  -2.777  0.00  0.00    -0.135 NA
ATOM      5  N   UNL     1      -0.214  -7.340  -3.110  0.00  0.00    -0.273 N 
ATOM      6  H   UNL     1      -0.806  -7.087  -3.836  0.00  0.00    +0.189 HD
ATOM      7  O   UNL     1       1.587  -9.600  -1.073  0.00  0.00    -0.421 OA
ATOM      8  C   UNL     1       2.571  -9.261  -0.216  0.00  0.00    +0.201 C 
ATOM      9  C   UNL     1       2.810  -8.005   0.215  0.00  0.00    +0.098 C 
ATOM     10  C   UNL     1       1.987  -6.818  -0.218  0.00  0.00    +0.105 C 
ENDROOT
BRANCH   1  14
ATOM     11  C   UNL     1       0.041  -2.248  -2.175  0.00  0.00    +0.162 A 
ATOM     12  C   UNL     1      -0.139  -2.975  -1.008  0.00  0.00    +0.050 A 
ATOM     13  C   UNL     1      -0.025  -4.350  -1.023  0.00  0.00    +0.014 A 
ATOM     14  C   UNL     1       0.272  -5.012  -2.215  0.00  0.00    +0.004 A 
ATOM     15  C   UNL     1       0.453  -4.281  -3.390  0.00  0.00    +0.059 A 
ATOM     16  C   UNL     1       0.333  -2.903  -3.369  0.00  0.00    +0.162 A 
BRANCH  16  17
ATOM     17  O   UNL     1       0.503  -2.188  -4.513  0.00  0.00    -0.491 OA
ATOM     18  C   UNL     1       0.800  -2.926  -5.701  0.00  0.00    +0.277 C 
ENDBRANCH  16  17
BRANCH  11  19
ATOM     19  O   UNL     1      -0.072  -0.893  -2.155  0.00  0.00    -0.489 OA
BRANCH  19  21
ATOM     20  C   UNL     1      -0.460   1.232  -1.071  0.00  0.00    +0.048 C 
ATOM     21  C   UNL     1      -0.372  -0.286  -0.897  0.00  0.00    +0.226 C 
ENDBRANCH  19  21
ENDBRANCH  11  19
ENDBRANCH   1  14
BRANCH  10  22
ATOM     22  C   UNL     1       1.114  -6.362   0.922  0.00  0.00    +0.011 A 
ATOM     23  C   UNL     1       1.442  -5.220   1.630  0.00  0.00    +0.008 A 
ATOM     24  C   UNL     1       0.643  -4.799   2.677  0.00  0.00    +0.004 A 
ATOM     25  C   UNL     1      -0.487  -5.518   3.020  0.00  0.00    +0.049 A 
ATOM     26  C   UNL     1      -0.822  -6.662   2.315  0.00  0.00    +0.162 A 
ATOM     27  C   UNL     1      -0.020  -7.083   1.258  0.00  0.00    +0.166 A 
BRANCH  27  28
ATOM     28  O   UNL     1      -0.347  -8.203   0.559  0.00  0.00    -0.491 OA
ATOM     29  C   UNL     1       0.008  -9.458   1.142  0.00  0.00    +0.277 C 
ENDBRANCH  27  28
BRANCH  26  30
ATOM     30  O   UNL     1      -1.933  -7.370   2.652  0.00  0.00    -0.491 OA
ATOM     31  C   UNL     1      -2.711  -6.876   3.744  0.00  0.00    +0.277 C 
ENDBRANCH  26  30
ENDBRANCH  10  22
BRANCH   8  32
ATOM     32  N   UNL     1       3.384 -10.263   0.251  0.00  0.00    -0.328 N 
ATOM     33  H   UNL     1       3.241 -11.178  -0.037  0.00  0.00    +0.145 HD
ATOM     34  H   UNL     1       4.102 -10.056   0.870  0.00  0.00    +0.145 HD
ENDBRANCH   8  32
BRANCH   9  35
ATOM     35  C   UNL     1       3.895  -7.790   1.125  0.00  0.00    +0.101 C 
ATOM     36  N   UNL     1       4.755  -7.619   1.847  0.00  0.00    -0.191 NA
ENDBRANCH   9  35
TORSDOF 9
