REMARK  Name = ZINC09897156
REMARK  8 active torsions:
REMARK  status: ('A' for Active; 'I' for Inactive)
REMARK    1  A    between atoms: C_1  and  C_2
REMARK    2  A    between atoms: C_5  and  C_8
REMARK    3  A    between atoms: C_8  and  C_10
REMARK    4  A    between atoms: C_8  and  N_15
REMARK    5  A    between atoms: C_16  and  C_18
REMARK    6  A    between atoms: C_18  and  C_19
REMARK    7  A    between atoms: C_19  and  C_21
REMARK    8  A    between atoms: C_19  and  N_27
REMARK                            x       y       z     vdW  Elec       q    Type
REMARK                         _______ _______ _______ _____ _____    ______ ____
ROOT
ATOM      1  N   UNL     1      -2.522   0.847   3.846  0.00  0.00    -0.304 N 
ATOM      2  C   UNL     1      -2.493   1.327   2.587  0.00  0.00    +0.216 C 
ATOM      3  O   UNL     1      -2.446   2.524   2.395  0.00  0.00    -0.276 OA
ATOM      4  H   UNL     1      -2.560  -0.110   3.999  0.00  0.00    +0.150 HD
ENDROOT
BRANCH   1   5
ATOM      5  C   UNL     1      -2.497   1.771   4.983  0.00  0.00    +0.140 C 
BRANCH   5  10
ATOM      6  C   UNL     1      -0.337  -0.931   9.612  0.00  0.00    +0.044 C 
ATOM      7  C   UNL     1      -0.901  -0.226   8.405  0.00  0.00    -0.050 A 
ATOM      8  C   UNL     1      -0.555   1.087   8.148  0.00  0.00    +0.004 A 
ATOM      9  C   UNL     1      -1.072   1.734   7.040  0.00  0.00    +0.006 A 
ATOM     10  C   UNL     1      -1.934   1.066   6.190  0.00  0.00    -0.022 A 
ATOM     11  C   UNL     1      -2.284  -0.245   6.451  0.00  0.00    +0.006 A 
ATOM     12  C   UNL     1      -1.763  -0.893   7.555  0.00  0.00    +0.004 A 
ENDBRANCH   5  10
BRANCH   5  13
ATOM     13  C   UNL     1      -3.899   2.237   5.282  0.00  0.00    +0.014 A 
ATOM     14  C   UNL     1      -4.329   3.472   5.640  0.00  0.00    +0.013 A 
ATOM     15  C   UNL     1      -5.679   3.672   5.863  0.00  0.00    +0.008 A 
ATOM     16  C   UNL     1      -6.530   2.626   5.729  0.00  0.00    +0.045 A 
ATOM     17  S   UNL     1      -5.421   1.306   5.265  0.00  0.00    -0.099 S 
ENDBRANCH   5  13
ENDBRANCH   1   5
BRANCH   2  18
ATOM     18  C   UNL     1      -2.519   0.377   1.417  0.00  0.00    +0.123 C 
BRANCH  18  19
ATOM     19  C   UNL     1      -2.477   1.174   0.112  0.00  0.00    +0.113 C 
BRANCH  19  20
ATOM     20  N   UNL     1      -1.196   1.879   0.011  0.00  0.00    -0.292 N 
ATOM     21  C   UNL     1      -1.105   3.010  -0.717  0.00  0.00    +0.298 C 
ATOM     22  O   UNL     1      -2.060   3.395  -1.364  0.00  0.00    -0.253 OA
ATOM     23  N   UNL     1       0.043   3.716  -0.724  0.00  0.00    -0.313 N 
ATOM     24  H   UNL     1      -0.414   1.532   0.468  0.00  0.00    +0.151 HD
ATOM     25  H   UNL     1       0.108   4.531  -1.245  0.00  0.00    +0.146 HD
ATOM     26  H   UNL     1       0.805   3.408  -0.208  0.00  0.00    +0.146 HD
ENDBRANCH  19  20
BRANCH  19  27
ATOM     27  C   UNL     1      -2.626   0.234  -1.056  0.00  0.00    -0.027 A 
ATOM     28  C   UNL     1      -1.568  -0.571  -1.435  0.00  0.00    +0.005 A 
ATOM     29  C   UNL     1      -1.706  -1.437  -2.503  0.00  0.00    +0.000 A 
ATOM     30  C   UNL     1      -2.900  -1.492  -3.198  0.00  0.00    +0.000 A 
ATOM     31  C   UNL     1      -3.956  -0.683  -2.823  0.00  0.00    +0.000 A 
ATOM     32  C   UNL     1      -3.819   0.179  -1.751  0.00  0.00    +0.005 A 
ENDBRANCH  19  27
ENDBRANCH  18  19
ENDBRANCH   2  18
TORSDOF 7
