REMARK  Name = ZINC04898588
REMARK  6 active torsions:
REMARK  status: ('A' for Active; 'I' for Inactive)
REMARK    1  A    between atoms: C_3  and  O_30
REMARK    2  A    between atoms: C_6  and  C_7
REMARK    3  A    between atoms: C_9  and  C_21
REMARK    4  A    between atoms: C_11  and  C_16
REMARK    5  A    between atoms: C_13  and  O_15
REMARK    6  A    between atoms: C_21  and  C_23
REMARK                            x       y       z     vdW  Elec       q    Type
REMARK                         _______ _______ _______ _____ _____    ______ ____
ROOT
ATOM      1  C   UNL     1      -1.123  -0.659  -0.137  0.00  0.00    +0.120 C 
ATOM      2  C   UNL     1      -1.485  -1.081  -1.569  0.00  0.00    +0.149 C 
ATOM      3  C   UNL     1      -0.500  -2.163  -2.017  0.00  0.00    +0.284 C 
ATOM      4  N   UNL     1      -0.388  -3.207  -1.005  0.00  0.00    -0.306 N 
ATOM      5  C   UNL     1      -0.715  -3.044   0.232  0.00  0.00    +0.256 C 
ATOM      6  N   UNL     1      -1.215  -1.857   0.712  0.00  0.00    -0.293 N 
ATOM      7  O   UNL     1       0.784  -1.573  -2.229  0.00  0.00    -0.194 OA
ATOM      8  H   UNL     1      -1.620  -1.810   1.592  0.00  0.00    +0.151 HD
ATOM      9  H   UNL     1      -0.050  -4.074  -1.278  0.00  0.00    +0.167 HD
ENDROOT
BRANCH   1  15
ATOM     10  C   UNL     1       0.490   1.253  -0.076  0.00  0.00    +0.009 A 
ATOM     11  C   UNL     1       1.777   1.756  -0.045  0.00  0.00    +0.046 A 
ATOM     12  C   UNL     1       2.859   0.888  -0.040  0.00  0.00    +0.117 A 
ATOM     13  C   UNL     1       2.647  -0.482  -0.067  0.00  0.00    +0.046 A 
ATOM     14  C   UNL     1       1.359  -0.980  -0.098  0.00  0.00    +0.009 A 
ATOM     15  C   UNL     1       0.281  -0.114  -0.103  0.00  0.00    -0.026 A 
BRANCH  12  16
ATOM     16  O   UNL     1       4.126   1.380  -0.010  0.00  0.00    -0.507 OA
ATOM     17  H   UNL     1       4.477   1.508   0.882  0.00  0.00    +0.292 HD
ENDBRANCH  12  16
ENDBRANCH   1  15
BRANCH   3  18
ATOM     18  C   UNL     1      -0.992  -2.781  -3.328  0.00  0.00    +0.441 C 
ATOM     19  F   UNL     1      -1.202  -1.770  -4.271  0.00  0.00    -0.166 F 
ATOM     20  F   UNL     1      -0.032  -3.677  -3.810  0.00  0.00    -0.166 F 
ATOM     21  F   UNL     1      -2.192  -3.463  -3.100  0.00  0.00    -0.166 F 
ENDBRANCH   3  18
BRANCH   5  22
ATOM     22  O   UNL     1      -0.559  -4.078   1.088  0.00  0.00    -0.483 OA
ATOM     23  H   UNL     1      -0.203  -4.878   0.678  0.00  0.00    +0.295 HD
ENDBRANCH   5  22
BRANCH   2  24
ATOM     24  C   UNL     1      -2.889  -1.629  -1.596  0.00  0.00    +0.173 C 
ATOM     25  O   UNL     1      -3.178  -2.592  -0.917  0.00  0.00    -0.292 OA
BRANCH  24  26
ATOM     26  C   UNL     1      -3.908  -0.998  -2.447  0.00  0.00    +0.018 A 
ATOM     27  C   UNL     1      -3.557   0.054  -3.300  0.00  0.00    +0.014 A 
ATOM     28  C   UNL     1      -4.517   0.642  -4.095  0.00  0.00    +0.039 A 
ATOM     29  C   UNL     1      -5.829   0.194  -4.050  0.00  0.00    +0.123 A 
ATOM     30  C   UNL     1      -6.183  -0.849  -3.206  0.00  0.00    +0.039 A 
ATOM     31  C   UNL     1      -5.232  -1.449  -2.411  0.00  0.00    +0.014 A 
ATOM     32  F   UNL     1      -6.765   0.775  -4.831  0.00  0.00    -0.205 F 
ENDBRANCH  24  26
ENDBRANCH   2  24
TORSDOF 6
