REMARK  Name = ZINC43735846
REMARK  13 active torsions:
REMARK  status: ('A' for Active; 'I' for Inactive)
REMARK    1  A    between atoms: C_1  and  C_2
REMARK    2  A    between atoms: C_3  and  C_35
REMARK    3  A    between atoms: C_9  and  C_34
REMARK    4  A    between atoms: C_23  and  C_33
REMARK    5  A    between atoms: C_26  and  O_29
REMARK    6  A    between atoms: O_29  and  C_30
REMARK    7  A    between atoms: C_30  and  C_32
REMARK    8  A    between atoms: C_35  and  C_36
REMARK    9  A    between atoms: C_36  and  C_37
REMARK   10  A    between atoms: C_37  and  C_39
REMARK   11  A    between atoms: C_37  and  C_40
REMARK   12  A    between atoms: C_40  and  N_41
REMARK   13  A    between atoms: C_42  and  C_44
REMARK                            x       y       z     vdW  Elec       q    Type
REMARK                         _______ _______ _______ _____ _____    ______ ____
ROOT
ATOM      1  C   UNL     1      -0.018   1.503   0.010  0.00  0.00    +0.043 C 
ATOM      2  C   UNL     1       0.002  -0.004   0.002  0.00  0.00    -0.028 C 
ATOM      3  C   UNL     1       0.008  -0.774  -1.063  0.00  0.00    +0.098 C 
ATOM      4  O   UNL     1       0.041  -2.095  -0.779  0.00  0.00    -0.493 OA
ATOM      5  C   UNL     1      -0.338  -2.288   0.597  0.00  0.00    +0.181 C 
ATOM      6  C   UNL     1       0.026  -0.906   1.222  0.00  0.00    +0.065 C 
ATOM      7  C   UNL     1       1.503  -1.080   1.676  0.00  0.00    -0.019 C 
ATOM      8  C   UNL     1       2.366  -0.980   0.416  0.00  0.00    +0.008 C 
ATOM      9  C   UNL     1       3.776  -1.502   0.688  0.00  0.00    +0.005 C 
ATOM     10  C   UNL     1       3.686  -2.983   1.069  0.00  0.00    -0.001 C 
ATOM     11  C   UNL     1       2.886  -3.104   2.365  0.00  0.00    -0.004 C 
ATOM     12  C   UNL     1       1.500  -2.520   2.217  0.00  0.00    +0.003 C 
ATOM     13  C   UNL     1       0.610  -3.324   1.233  0.00  0.00    +0.049 C 
ATOM     14  C   UNL     1       2.803  -4.575   2.780  0.00  0.00    +0.004 C 
ATOM     15  C   UNL     1       4.214  -5.126   2.996  0.00  0.00    +0.004 C 
ATOM     16  C   UNL     1       5.012  -5.006   1.696  0.00  0.00    -0.001 C 
ATOM     17  C   UNL     1       5.098  -3.539   1.270  0.00  0.00    -0.026 C 
ATOM     18  C   UNL     1       5.884  -3.418  -0.037  0.00  0.00    +0.011 C 
ATOM     19  C   UNL     1       7.295  -3.974   0.163  0.00  0.00    +0.045 C 
ATOM     20  C   UNL     1       7.210  -5.446   0.573  0.00  0.00    +0.177 C 
ATOM     21  C   UNL     1       6.422  -5.559   1.911  0.00  0.00    +0.048 C 
ATOM     22  C   UNL     1       5.808  -2.743   2.367  0.00  0.00    +0.012 C 
ATOM     23  C   UNL     1       1.905  -0.062   2.745  0.00  0.00    +0.012 C 
ENDROOT
BRANCH  20  24
ATOM     24  O   UNL     1       6.546  -6.188  -0.452  0.00  0.00    -0.462 OA
BRANCH  24  25
ATOM     25  C   UNL     1       7.314  -6.713  -1.419  0.00  0.00    +0.304 C 
ATOM     26  O   UNL     1       8.511  -6.548  -1.396  0.00  0.00    -0.251 OA
ATOM     27  C   UNL     1       6.685  -7.509  -2.533  0.00  0.00    +0.136 C 
ENDBRANCH  24  25
ENDBRANCH  20  24
BRANCH   3  28
ATOM     28  C   UNL     1      -0.019  -0.235  -2.470  0.00  0.00    +0.074 C 
BRANCH  28  29
ATOM     29  C   UNL     1       1.410  -0.137  -3.007  0.00  0.00    +0.012 C 
BRANCH  29  30
ATOM     30  C   UNL     1       1.382   0.411  -4.435  0.00  0.00    +0.003 C 
ATOM     31  C   UNL     1       0.856   1.847  -4.420  0.00  0.00    +0.009 C 
BRANCH  30  32
ATOM     32  C   UNL     1       2.798   0.392  -5.016  0.00  0.00    +0.107 C 
BRANCH  32  33
ATOM     33  N   UNL     1       2.754   0.803  -6.422  0.00  0.00    -0.315 N 
ATOM     34  C   UNL     1       3.891   0.861  -7.142  0.00  0.00    +0.210 C 
ATOM     35  O   UNL     1       4.951   0.573  -6.628  0.00  0.00    -0.276 OA
ATOM     36  C   UNL     1       3.846   1.284  -8.588  0.00  0.00    +0.109 C 
ATOM     37  H   UNL     1       1.907   1.034  -6.833  0.00  0.00    +0.149 HD
ENDBRANCH  32  33
ENDBRANCH  30  32
ENDBRANCH  29  30
ENDBRANCH  28  29
ENDBRANCH   3  28
TORSDOF 7
