REMARK  Name = ZINC44532852
REMARK  6 active torsions:
REMARK  status: ('A' for Active; 'I' for Inactive)
REMARK    1  A    between atoms: C_1  and  C_2
REMARK    2  A    between atoms: N_8  and  C_9
REMARK    3  A    between atoms: C_9  and  C_10
REMARK    4  A    between atoms: C_10  and  N_11
REMARK    5  A    between atoms: C_12  and  C_14
REMARK    6  A    between atoms: C_14  and  N_15
REMARK                            x       y       z     vdW  Elec       q    Type
REMARK                         _______ _______ _______ _____ _____    ______ ____
ROOT
ATOM      1  C   UNL     1       0.117   0.509   7.283  0.00  0.00    +0.227 C 
ENDROOT
BRANCH   1   2
ATOM      2  N   UNL     1       0.892   0.123   8.465  0.00  0.00    -0.194 N 
ATOM      3  C   UNL     1       0.805  -1.081   9.184  0.00  0.00    +0.061 A 
ATOM      4  C   UNL     1      -0.033  -2.166   8.934  0.00  0.00    +0.025 A 
ATOM      5  C   UNL     1       0.001  -3.293   9.746  0.00  0.00    +0.002 A 
ATOM      6  C   UNL     1       0.843  -3.399  10.814  0.00  0.00    +0.009 A 
ATOM      7  C   UNL     1       1.707  -2.330  11.105  0.00  0.00    -0.014 A 
ATOM      8  C   UNL     1       1.664  -1.190  10.275  0.00  0.00    +0.031 A 
ATOM      9  C   UNL     1       2.508  -0.105  10.534  0.00  0.00    +0.118 A 
ATOM     10  C   UNL     1       3.366  -0.137  11.570  0.00  0.00    +0.029 A 
ATOM     11  C   UNL     1       3.417  -1.264  12.399  0.00  0.00    +0.003 A 
ATOM     12  C   UNL     1       2.609  -2.341  12.182  0.00  0.00    +0.009 A 
ATOM     13  S   UNL     1       2.076   1.023   9.239  0.00  0.00    +0.076 S 
ATOM     14  O   UNL     1       3.188   1.124   8.361  0.00  0.00    -0.150 OA
ATOM     15  O   UNL     1       1.445   2.146   9.839  0.00  0.00    -0.150 OA
ENDBRANCH   1   2
BRANCH   1  17
ATOM     16  N   UNL     1       0.236   0.185   4.834  0.00  0.00    -0.316 N 
ATOM     17  C   UNL     1       0.777  -0.045   6.046  0.00  0.00    +0.232 C 
ATOM     18  O   UNL     1       1.795  -0.697   6.143  0.00  0.00    -0.274 OA
ATOM     19  H   UNL     1      -0.578   0.707   4.757  0.00  0.00    +0.149 HD
BRANCH  16  20
ATOM     20  C   UNL     1       0.877  -0.353   3.631  0.00  0.00    +0.086 C 
BRANCH  20  21
ATOM     21  C   UNL     1       0.067   0.050   2.397  0.00  0.00    -0.059 C 
BRANCH  21  28
ATOM     22  C   UNL     1      -0.019   1.526   0.010  0.00  0.00    -0.013 C 
ATOM     23  C   UNL     1       0.002  -0.004   0.002  0.00  0.00    -0.072 C 
ATOM     24  C   UNL     1       0.717  -0.497  -1.258  0.00  0.00    -0.016 C 
ATOM     25  C   UNL     1       0.735  -2.028  -1.262  0.00  0.00    -0.003 C 
ATOM     26  C   UNL     1       1.410  -2.524   0.020  0.00  0.00    -0.019 C 
ATOM     27  C   UNL     1       0.669  -1.956   1.232  0.00  0.00    -0.078 C 
ATOM     28  N   UNL     1       0.711  -0.490   1.192  0.00  0.00    +0.382 N 
ATOM     29  H   UNL     1       1.671  -0.182   1.159  0.00  0.00    -0.081 HD
ENDBRANCH  21  28
ENDBRANCH  20  21
ENDBRANCH  16  20
ENDBRANCH   1  17
TORSDOF 5
