REMARK  Name = ZINC45544993
REMARK  10 active torsions:
REMARK  status: ('A' for Active; 'I' for Inactive)
REMARK    1  A    between atoms: C_1  and  C_2
REMARK    2  A    between atoms: C_2  and  N_3
REMARK    3  A    between atoms: N_3  and  C_4
REMARK    4  A    between atoms: N_3  and  C_6
REMARK    5  A    between atoms: C_4  and  C_5
REMARK    6  A    between atoms: C_6  and  C_7
REMARK    7  A    between atoms: C_7  and  N_8
REMARK    8  A    between atoms: N_11  and  N_12
REMARK    9  A    between atoms: C_13  and  C_15
REMARK   10  A    between atoms: C_22  and  C_25
REMARK                            x       y       z     vdW  Elec       q    Type
REMARK                         _______ _______ _______ _____ _____    ______ ____
ROOT
ATOM      1  N   UNL     1      -0.803  -3.594   2.129  0.00  0.00    -0.300 N 
ATOM      2  C   UNL     1      -0.273  -4.048   3.282  0.00  0.00    +0.316 C 
ATOM      3  O   UNL     1       0.243  -3.270   4.062  0.00  0.00    -0.251 OA
ATOM      4  N   UNL     1      -0.316  -5.363   3.572  0.00  0.00    -0.218 N 
ATOM      5  H   UNL     1      -1.214  -4.215   1.507  0.00  0.00    +0.150 HD
ATOM      6  H   UNL     1       0.065  -5.689   4.402  0.00  0.00    +0.174 HD
ENDROOT
BRANCH   4   7
ATOM      7  N   UNL     1      -0.911  -6.259   2.675  0.00  0.00    -0.229 N 
ATOM      8  C   UNL     1      -0.954  -7.575   2.964  0.00  0.00    +0.267 C 
ATOM      9  O   UNL     1      -0.475  -7.984   4.006  0.00  0.00    -0.268 OA
ATOM     10  H   UNL     1      -1.292  -5.933   1.844  0.00  0.00    +0.173 HD
BRANCH   8  11
ATOM     11  C   UNL     1      -1.576  -8.512   2.025  0.00  0.00    +0.076 A 
ATOM     12  C   UNL     1      -1.727  -9.883   2.132  0.00  0.00    +0.024 A 
ATOM     13  C   UNL     1      -2.362 -10.527   1.081  0.00  0.00    -0.036 A 
ATOM     14  C   UNL     1      -2.775  -9.744   0.043  0.00  0.00    -0.006 A 
ATOM     15  S   UNL     1      -2.342  -8.183   0.449  0.00  0.00    -0.088 S 
ATOM     16  C   UNL     1      -3.479 -10.201  -1.201  0.00  0.00    +0.043 C 
ATOM     17  C   UNL     1      -3.333 -11.725  -1.310  0.00  0.00    +0.009 C 
ATOM     18  C   UNL     1      -3.690 -12.351   0.041  0.00  0.00    -0.009 C 
ATOM     19  C   UNL     1      -2.599 -12.034   1.064  0.00  0.00    +0.039 C 
ATOM     20  C   UNL     1      -3.810 -13.868  -0.118  0.00  0.00    +0.008 C 
ENDBRANCH   8  11
ENDBRANCH   4   7
BRANCH   1  21
ATOM     21  C   UNL     1      -0.756  -2.164   1.814  0.00  0.00    +0.087 C 
BRANCH  21  22
ATOM     22  C   UNL     1      -1.421  -1.919   0.458  0.00  0.00    -0.060 C 
BRANCH  22  23
ATOM     23  N   UNL     1      -1.374  -0.485   0.142  0.00  0.00    +0.380 N 
ATOM     24  H   UNL     1      -1.792   0.039   0.895  0.00  0.00    -0.082 HD
BRANCH  23  26
ATOM     25  C   UNL     1       0.082   1.451  -0.216  0.00  0.00    -0.017 C 
ATOM     26  C   UNL     1       0.024  -0.066  -0.029  0.00  0.00    -0.082 C 
ENDBRANCH  23  26
BRANCH  23  27
ATOM     27  C   UNL     1      -2.116  -0.233  -1.101  0.00  0.00    -0.082 C 
ATOM     28  C   UNL     1      -3.600  -0.533  -0.879  0.00  0.00    -0.017 C 
ENDBRANCH  23  27
ENDBRANCH  22  23
ENDBRANCH  21  22
ENDBRANCH   1  21
TORSDOF 7
