REMARK  Name = ZINC39426370
REMARK  9 active torsions:
REMARK  status: ('A' for Active; 'I' for Inactive)
REMARK    1  A    between atoms: C_1  and  C_2
REMARK    2  A    between atoms: C_2  and  C_3
REMARK    3  A    between atoms: C_3  and  C_5
REMARK    4  A    between atoms: C_3  and  S_17
REMARK    5  A    between atoms: N_7  and  C_8
REMARK    6  A    between atoms: C_11  and  C_14
REMARK    7  A    between atoms: S_17  and  C_18
REMARK    8  A    between atoms: C_19  and  C_31
REMARK    9  A    between atoms: C_22  and  C_24
REMARK                            x       y       z     vdW  Elec       q    Type
REMARK                         _______ _______ _______ _____ _____    ______ ____
ROOT
ATOM      1  C   UNL     1      -1.151  -0.424   0.126  0.00  0.00    +0.139 C 
ENDROOT
BRANCH   1   2
ATOM      2  C   UNL     1      -1.115  -1.913   0.357  0.00  0.00    +0.231 C 
ATOM      3  O   UNL     1      -1.315  -2.675  -0.565  0.00  0.00    -0.274 OA
ATOM      4  N   UNL     1      -0.860  -2.398   1.588  0.00  0.00    -0.285 N 
ATOM      5  H   UNL     1      -0.632  -1.792   2.311  0.00  0.00    +0.155 HD
BRANCH   4   6
ATOM      6  C   UNL     1      -0.925  -3.771   1.824  0.00  0.00    +0.033 A 
ATOM      7  C   UNL     1      -0.519  -4.665   0.838  0.00  0.00    +0.024 A 
ATOM      8  C   UNL     1      -0.582  -6.021   1.068  0.00  0.00    +0.015 A 
ATOM      9  C   UNL     1      -1.054  -6.499   2.293  0.00  0.00    +0.037 A 
ATOM     10  C   UNL     1      -1.461  -5.599   3.281  0.00  0.00    +0.015 A 
ATOM     11  C   UNL     1      -1.391  -4.244   3.047  0.00  0.00    +0.024 A 
BRANCH   9  12
ATOM     12  C   UNL     1      -1.123  -7.952   2.542  0.00  0.00    +0.242 C 
ATOM     13  O   UNL     1      -0.769  -8.734   1.682  0.00  0.00    -0.270 OA
ATOM     14  N   UNL     1      -1.579  -8.412   3.725  0.00  0.00    -0.325 N 
ATOM     15  H   UNL     1      -1.861  -7.788   4.412  0.00  0.00    +0.145 HD
ATOM     16  H   UNL     1      -1.625  -9.367   3.889  0.00  0.00    +0.145 HD
ENDBRANCH   9  12
ENDBRANCH   4   6
ENDBRANCH   1   2
BRANCH   1  18
ATOM     17  C   UNL     1       0.251   1.614  -0.222  0.00  0.00    +0.005 C 
ATOM     18  C   UNL     1       0.269   0.087  -0.126  0.00  0.00    +0.020 C 
ENDBRANCH   1  18
BRANCH   1  19
ATOM     19  S   UNL     1      -2.190  -0.061  -1.316  0.00  0.00    -0.092 S 
BRANCH  19  20
ATOM     20  C   UNL     1      -3.821  -0.449  -0.775  0.00  0.00    +0.116 A 
ATOM     21  C   UNL     1      -4.892  -0.390  -1.687  0.00  0.00    +0.084 A 
ATOM     22  C   UNL     1      -6.182  -0.702  -1.239  0.00  0.00    +0.023 A 
ATOM     23  C   UNL     1      -6.352  -1.057   0.085  0.00  0.00    +0.030 A 
ATOM     24  C   UNL     1      -5.244  -1.095   0.932  0.00  0.00    +0.072 A 
ATOM     25  N   UNL     1      -4.030  -0.799   0.483  0.00  0.00    -0.239 NA
BRANCH  24  26
ATOM     26  C   UNL     1      -5.424  -1.475   2.353  0.00  0.00    +0.000 A 
ATOM     27  C   UNL     1      -6.669  -1.905   2.810  0.00  0.00    +0.011 A 
ATOM     28  C   UNL     1      -6.832  -2.259   4.133  0.00  0.00    +0.020 A 
ATOM     29  C   UNL     1      -5.760  -2.187   5.008  0.00  0.00    +0.041 A 
ATOM     30  C   UNL     1      -4.521  -1.761   4.559  0.00  0.00    +0.020 A 
ATOM     31  C   UNL     1      -4.347  -1.410   3.236  0.00  0.00    +0.011 A 
ATOM     32 CL   UNL     1      -5.971  -2.633   6.672  0.00  0.00    -0.084 Cl
ENDBRANCH  24  26
BRANCH  21  33
ATOM     33  C   UNL     1      -4.667  -0.016  -3.050  0.00  0.00    +0.102 C 
ATOM     34  N   UNL     1      -4.488   0.281  -4.132  0.00  0.00    -0.191 NA
ENDBRANCH  21  33
ENDBRANCH  19  20
ENDBRANCH   1  19
TORSDOF 8
