REMARK  Name = ZINC39668838
REMARK  4 active torsions:
REMARK  status: ('A' for Active; 'I' for Inactive)
REMARK    1  A    between atoms: C_10  and  C_12
REMARK    2  A    between atoms: C_12  and  N_13
REMARK    3  A    between atoms: C_14  and  C_16
REMARK    4  A    between atoms: C_27  and  C_29
REMARK                            x       y       z     vdW  Elec       q    Type
REMARK                         _______ _______ _______ _____ _____    ______ ____
ROOT
ATOM      1  C   UNL     1       8.379  -0.796   1.489  0.00  0.00    +0.100 C 
ATOM      2  C   UNL     1       8.919  -0.671   0.047  0.00  0.00    +0.121 C 
ATOM      3  N   UNL     1       9.746   0.558   0.061  0.00  0.00    -0.296 N 
ATOM      4  C   UNL     1      10.441   0.520   1.370  0.00  0.00    +0.115 C 
ATOM      5  C   UNL     1       9.383  -0.016   2.355  0.00  0.00    -0.004 C 
ATOM      6  C   UNL     1      10.033  -0.945   3.376  0.00  0.00    -0.010 C 
ATOM      7  C   UNL     1      10.983  -0.135   4.263  0.00  0.00    -0.082 C 
ATOM      8  N   UNL     1      10.233   0.926   4.946  0.00  0.00    +0.379 N 
ATOM      9  C   UNL     1       9.689   1.868   3.960  0.00  0.00    -0.082 C 
ATOM     10  C   UNL     1       8.684   1.143   3.060  0.00  0.00    -0.010 C 
ATOM     11  C   UNL     1       9.844   1.499  -0.899  0.00  0.00    +0.248 C 
ATOM     12  O   UNL     1       9.133   1.440  -1.883  0.00  0.00    -0.270 OA
ATOM     13  H   UNL     1       9.476   0.517   5.471  0.00  0.00    -0.086 HD
ATOM     14  H   UNL     1      10.848   1.419   5.575  0.00  0.00    -0.086 HD
ENDROOT
BRANCH  11  15
ATOM     15  C   UNL     1      10.816   2.602  -0.755  0.00  0.00    +0.055 A 
ATOM     16  C   UNL     1      12.051   2.373  -0.144  0.00  0.00    +0.016 A 
ATOM     17  C   UNL     1      12.954   3.407  -0.013  0.00  0.00    +0.021 A 
ATOM     18  C   UNL     1      12.639   4.671  -0.486  0.00  0.00    +0.042 A 
ATOM     19  C   UNL     1      11.418   4.905  -1.092  0.00  0.00    +0.040 A 
ATOM     20  C   UNL     1      10.507   3.877  -1.236  0.00  0.00    +0.054 A 
ATOM     21 CL   UNL     1       8.978   4.170  -2.004  0.00  0.00    -0.083 Cl
ATOM     22 CL   UNL     1      13.783   5.966  -0.316  0.00  0.00    -0.083 Cl
ENDBRANCH  11  15
BRANCH   1  24
ATOM     23  N   UNL     1       6.116  -0.663   2.478  0.00  0.00    -0.312 N 
ATOM     24  C   UNL     1       7.008  -0.179   1.591  0.00  0.00    +0.218 C 
ATOM     25  O   UNL     1       6.707   0.753   0.875  0.00  0.00    -0.275 OA
ATOM     26  H   UNL     1       6.356  -1.409   3.050  0.00  0.00    +0.149 HD
BRANCH  23  27
ATOM     27  C   UNL     1       4.782  -0.064   2.577  0.00  0.00    +0.140 C 
BRANCH  27  37
ATOM     28  C   UNL     1      -0.027   0.714   3.618  0.00  0.00    +0.000 A 
ATOM     29  C   UNL     1       0.629   0.440   2.432  0.00  0.00    +0.000 A 
ATOM     30  C   UNL     1       1.921  -0.044   2.457  0.00  0.00    +0.006 A 
ATOM     31  C   UNL     1       2.566  -0.258   3.666  0.00  0.00    -0.014 A 
ATOM     32  C   UNL     1       1.913   0.019   4.848  0.00  0.00    -0.040 A 
ATOM     33  C   UNL     1       0.614   0.503   4.823  0.00  0.00    +0.004 A 
ATOM     34  C   UNL     1       2.584  -0.188   6.182  0.00  0.00    +0.063 C 
ATOM     35  C   UNL     1       3.804  -1.094   6.012  0.00  0.00    +0.165 C 
ATOM     36  O   UNL     1       4.590  -0.598   4.923  0.00  0.00    -0.370 OA
ATOM     37  C   UNL     1       3.974  -0.794   3.651  0.00  0.00    +0.165 C 
ENDBRANCH  27  37
ENDBRANCH  23  27
ENDBRANCH   1  24
TORSDOF 4
