REMARK  Name = ZINC06754293
REMARK  3 active torsions:
REMARK  status: ('A' for Active; 'I' for Inactive)
REMARK    1  A    between atoms: C_4  and  C_7
REMARK    2  A    between atoms: N_10  and  S_11
REMARK    3  A    between atoms: S_11  and  C_14
REMARK                            x       y       z     vdW  Elec       q    Type
REMARK                         _______ _______ _______ _____ _____    ______ ____
ROOT
ATOM      1  C   UNL     1      -0.773   7.123  -2.726  0.00  0.00    +0.125 C 
ATOM      2  C   UNL     1      -2.201   6.574  -2.717  0.00  0.00    +0.135 C 
ATOM      3  N   UNL     1      -1.343   6.494  -1.532  0.00  0.00    -0.166 NA
ENDROOT
BRANCH   1   7
ATOM      4  C   UNL     1       2.190   4.938  -4.894  0.00  0.00    +0.000 A 
ATOM      5  C   UNL     1       2.332   6.301  -4.711  0.00  0.00    +0.000 A 
ATOM      6  C   UNL     1       1.373   7.008  -4.010  0.00  0.00    +0.005 A 
ATOM      7  C   UNL     1       0.272   6.352  -3.491  0.00  0.00    -0.027 A 
ATOM      8  C   UNL     1       0.134   4.988  -3.668  0.00  0.00    +0.005 A 
ATOM      9  C   UNL     1       1.090   4.282  -4.374  0.00  0.00    +0.000 A 
ENDBRANCH   1   7
BRANCH   3  10
ATOM     10  S   UNL     1      -1.154   6.028   0.045  0.00  0.00    +0.068 S 
ATOM     11  O   UNL     1      -2.457   5.961   0.608  0.00  0.00    -0.152 OA
ATOM     12  O   UNL     1      -0.129   6.847   0.591  0.00  0.00    -0.152 OA
BRANCH  10  13
ATOM     13  C   UNL     1      -0.527   4.381   0.031  0.00  0.00    +0.144 A 
ATOM     14  C   UNL     1       0.760   3.958   0.016  0.00  0.00    +0.038 A 
ATOM     15  C   UNL     1       1.021   2.600   0.006  0.00  0.00    +0.030 A 
ATOM     16  C   UNL     1      -0.021   1.732   0.012  0.00  0.00    +0.080 A 
ATOM     17  S   UNL     1      -1.423   2.837   0.023  0.00  0.00    -0.057 S 
ATOM     18 CL   UNL     1       0.002  -0.004   0.002  0.00  0.00    -0.076 Cl
ENDBRANCH  10  13
ENDBRANCH   3  10
TORSDOF 3
