REMARK  Name = ZINC56143222
REMARK  7 active torsions:
REMARK  status: ('A' for Active; 'I' for Inactive)
REMARK    1  A    between atoms: C_1  and  C_2
REMARK    2  A    between atoms: N_5  and  C_8
REMARK    3  A    between atoms: C_11  and  N_14
REMARK    4  A    between atoms: N_14  and  C_15
REMARK    5  A    between atoms: C_15  and  C_17
REMARK    6  A    between atoms: C_15  and  C_18
REMARK    7  A    between atoms: C_20  and  C_23
REMARK                            x       y       z     vdW  Elec       q    Type
REMARK                         _______ _______ _______ _____ _____    ______ ____
ROOT
ATOM      1  C   UNL     1      -0.748  -3.881   1.414  0.00  0.00    +0.014 A 
ATOM      2  C   UNL     1      -0.182  -4.660   0.421  0.00  0.00    +0.023 A 
ATOM      3  C   UNL     1      -0.220  -6.037   0.516  0.00  0.00    +0.025 A 
ATOM      4  C   UNL     1      -0.829  -6.640   1.609  0.00  0.00    +0.028 A 
ATOM      5  C   UNL     1      -1.397  -5.854   2.604  0.00  0.00    +0.025 A 
ATOM      6  C   UNL     1      -1.350  -4.478   2.506  0.00  0.00    +0.023 A 
ENDROOT
BRANCH   1  11
ATOM      7  C   UNL     1      -0.019   1.526   0.010  0.00  0.00    +0.007 C 
ATOM      8  C   UNL     1       0.002  -0.004   0.002  0.00  0.00    -0.011 C 
ATOM      9  C   UNL     1      -1.434  -0.536   0.023  0.00  0.00    +0.020 C 
ATOM     10  C   UNL     1      -1.405  -2.064   0.095  0.00  0.00    +0.085 C 
ATOM     11  N   UNL     1      -0.707  -2.487   1.315  0.00  0.00    -0.393 NA
ATOM     12  C   UNL     1       0.691  -2.042   1.269  0.00  0.00    +0.085 C 
ATOM     13  C   UNL     1       0.743  -0.513   1.242  0.00  0.00    +0.020 C 
ATOM     14  H   UNL     1      -1.162  -2.082   2.119  0.00  0.00    +0.126 HD
ENDBRANCH   1  11
BRANCH   4  15
ATOM     15  N   UNL     1      -0.870  -8.033   1.708  0.00  0.00    -0.333 N 
ATOM     16  H   UNL     1      -0.473  -8.580   1.012  0.00  0.00    +0.147 HD
BRANCH  15  17
ATOM     17  C   UNL     1      -1.512  -8.666   2.862  0.00  0.00    +0.156 C 
ATOM     18  C   UNL     1      -0.511  -8.761   4.015  0.00  0.00    +0.038 C 
BRANCH  17  19
ATOM     19  C   UNL     1      -1.974 -10.050   2.483  0.00  0.00    +0.247 A 
ATOM     20  N   UNL     1      -3.136 -10.572   2.763  0.00  0.00    -0.194 NA
ATOM     21  C   UNL     1      -3.210 -11.816   2.276  0.00  0.00    +0.175 A 
ATOM     22  N   UNL     1      -2.090 -12.102   1.677  0.00  0.00    -0.061 NA
ATOM     23  O   UNL     1      -1.264 -10.953   1.795  0.00  0.00    -0.336 OA
BRANCH  21  24
ATOM     24  C   UNL     1      -4.397 -12.736   2.401  0.00  0.00    +0.060 C 
ATOM     25  C   UNL     1      -4.215 -14.188   1.955  0.00  0.00    +0.012 C 
ATOM     26  C   UNL     1      -5.050 -13.226   1.108  0.00  0.00    +0.012 C 
ENDBRANCH  21  24
ENDBRANCH  17  19
ENDBRANCH  15  17
ENDBRANCH   4  15
TORSDOF 5
