REMARK  Name = ZINC02273053
REMARK  9 active torsions:
REMARK  status: ('A' for Active; 'I' for Inactive)
REMARK    1  A    between atoms: C_1  and  C_2
REMARK    2  A    between atoms: C_11  and  N_27
REMARK    3  A    between atoms: C_13  and  S_15
REMARK    4  A    between atoms: S_15  and  C_16
REMARK    5  A    between atoms: C_16  and  C_17
REMARK    6  A    between atoms: C_20  and  O_23
REMARK    7  A    between atoms: O_23  and  C_24
REMARK    8  A    between atoms: C_24  and  C_25
REMARK    9  A    between atoms: C_24  and  C_26
REMARK                            x       y       z     vdW  Elec       q    Type
REMARK                         _______ _______ _______ _____ _____    ______ ____
ROOT
ATOM      1  C   UNL     1      -1.394  -0.281  -0.732  0.00  0.00    +0.008 C 
ATOM      2  C   UNL     1       0.056   0.199  -0.824  0.00  0.00    -0.009 C 
ATOM      3  C   UNL     1       0.855  -0.336   0.368  0.00  0.00    +0.008 C 
ATOM      4  C   UNL     1       2.345  -0.073   0.154  0.00  0.00    +0.037 C 
ATOM      5  C   UNL     1       2.547   1.408  -0.158  0.00  0.00    -0.025 A 
ATOM      6  C   UNL     1       1.510   2.169  -0.576  0.00  0.00    -0.004 A 
ATOM      7  S   UNL     1       2.188   3.793  -0.812  0.00  0.00    -0.073 S 
ATOM      8  C   UNL     1       3.857   3.452  -0.354  0.00  0.00    +0.115 A 
ATOM      9  C   UNL     1       3.834   2.072  -0.028  0.00  0.00    +0.051 A 
ATOM     10  C   UNL     1       5.064   1.487   0.388  0.00  0.00    +0.129 A 
ATOM     11  N   UNL     1       6.114   2.303   0.428  0.00  0.00    -0.207 NA
ATOM     12  C   UNL     1       6.064   3.588   0.109  0.00  0.00    +0.191 A 
ATOM     13  N   UNL     1       4.943   4.196  -0.287  0.00  0.00    -0.215 NA
ATOM     14  C   UNL     1       0.094   1.733  -0.791  0.00  0.00    +0.046 C 
ENDROOT
BRANCH  10  15
ATOM     15  N   UNL     1       5.162   0.150   0.729  0.00  0.00    -0.343 N 
ATOM     16  H   UNL     1       4.465  -0.470   0.464  0.00  0.00    +0.144 HD
ATOM     17  H   UNL     1       5.927  -0.167   1.234  0.00  0.00    +0.144 HD
ENDBRANCH  10  15
BRANCH  12  18
ATOM     18  S   UNL     1       7.543   4.539   0.214  0.00  0.00    -0.081 S 
BRANCH  18  19
ATOM     19  C   UNL     1       8.697   3.264   0.778  0.00  0.00    +0.112 C 
BRANCH  19  20
ATOM     20  C   UNL     1      10.069   3.865   0.942  0.00  0.00    -0.037 A 
ATOM     21  C   UNL     1      10.955   3.863  -0.119  0.00  0.00    +0.008 A 
ATOM     22  C   UNL     1      12.211   4.418   0.027  0.00  0.00    +0.046 A 
ATOM     23  C   UNL     1      12.588   4.969   1.244  0.00  0.00    +0.121 A 
ATOM     24  C   UNL     1      11.699   4.965   2.309  0.00  0.00    +0.046 A 
ATOM     25  C   UNL     1      10.442   4.412   2.156  0.00  0.00    +0.008 A 
BRANCH  23  26
ATOM     26  O   UNL     1      13.825   5.511   1.392  0.00  0.00    -0.489 OA
BRANCH  26  27
ATOM     27  C   UNL     1      14.186   5.955   2.701  0.00  0.00    +0.167 C 
ATOM     28  C   UNL     1      15.710   5.939   2.843  0.00  0.00    +0.051 C 
ATOM     29  C   UNL     1      13.669   7.378   2.918  0.00  0.00    +0.051 C 
ENDBRANCH  26  27
ENDBRANCH  23  26
ENDBRANCH  19  20
ENDBRANCH  18  19
ENDBRANCH  12  18
TORSDOF 6
