REMARK  Name = ZINC45599488
REMARK  9 active torsions:
REMARK  status: ('A' for Active; 'I' for Inactive)
REMARK    1  A    between atoms: C_1  and  C_2
REMARK    2  A    between atoms: C_5  and  N_8
REMARK    3  A    between atoms: C_9  and  C_27
REMARK    4  A    between atoms: C_12  and  S_13
REMARK    5  A    between atoms: S_13  and  C_14
REMARK    6  A    between atoms: C_14  and  C_16
REMARK    7  A    between atoms: C_14  and  C_17
REMARK    8  A    between atoms: N_23  and  C_24
REMARK    9  A    between atoms: N_23  and  C_25
REMARK                            x       y       z     vdW  Elec       q    Type
REMARK                         _______ _______ _______ _____ _____    ______ ____
ROOT
ATOM      1  N   UNL     1       0.037  -4.173  -0.059  0.00  0.00    -0.270 N 
ATOM      2  C   UNL     1      -0.879  -5.021   0.523  0.00  0.00    +0.169 A 
ATOM      3  N   UNL     1      -0.450  -6.246   0.326  0.00  0.00    -0.128 NA
ATOM      4  N   UNL     1       0.656  -6.224  -0.329  0.00  0.00    -0.122 NA
ATOM      5  C   UNL     1       0.999  -4.984  -0.597  0.00  0.00    +0.197 A 
ENDROOT
BRANCH   1  10
ATOM      6  C   UNL     1      -0.149   1.497  -0.214  0.00  0.00    +0.044 C 
ATOM      7  C   UNL     1      -0.100  -0.008  -0.172  0.00  0.00    -0.050 A 
ATOM      8  C   UNL     1      -0.262  -0.736  -1.337  0.00  0.00    +0.005 A 
ATOM      9  C   UNL     1      -0.217  -2.116  -1.302  0.00  0.00    +0.026 A 
ATOM     10  C   UNL     1      -0.009  -2.772  -0.097  0.00  0.00    +0.051 A 
ATOM     11  C   UNL     1       0.154  -2.039   1.070  0.00  0.00    +0.026 A 
ATOM     12  C   UNL     1       0.113  -0.659   1.029  0.00  0.00    +0.005 A 
ENDBRANCH   1  10
BRANCH   2  13
ATOM     13  C   UNL     1      -2.113  -4.627   1.235  0.00  0.00    +0.020 A 
ATOM     14  C   UNL     1      -2.647  -3.349   1.057  0.00  0.00    +0.013 A 
ATOM     15  C   UNL     1      -3.798  -2.986   1.724  0.00  0.00    +0.021 A 
ATOM     16  C   UNL     1      -4.425  -3.887   2.569  0.00  0.00    +0.041 A 
ATOM     17  C   UNL     1      -3.901  -5.156   2.750  0.00  0.00    +0.021 A 
ATOM     18  C   UNL     1      -2.753  -5.532   2.083  0.00  0.00    +0.013 A 
ATOM     19 CL   UNL     1      -5.873  -3.423   3.406  0.00  0.00    -0.084 Cl
ENDBRANCH   2  13
BRANCH   5  20
ATOM     20  S   UNL     1       2.432  -4.464  -1.480  0.00  0.00    -0.075 S 
BRANCH  20  21
ATOM     21  C   UNL     1       3.270  -6.014  -1.909  0.00  0.00    +0.119 C 
ATOM     22  C   UNL     1       3.737  -6.712  -0.630  0.00  0.00    +0.028 C 
BRANCH  21  23
ATOM     23  C   UNL     1       4.462  -5.716  -2.782  0.00  0.00    +0.149 A 
ATOM     24  N   UNL     1       5.281  -4.729  -2.464  0.00  0.00    -0.198 NA
ATOM     25  C   UNL     1       6.335  -4.462  -3.232  0.00  0.00    +0.217 A 
ATOM     26  N   UNL     1       6.563  -5.191  -4.320  0.00  0.00    -0.181 NA
ATOM     27  C   UNL     1       5.737  -6.182  -4.636  0.00  0.00    +0.222 A 
ATOM     28  N   UNL     1       4.688  -6.446  -3.860  0.00  0.00    -0.198 NA
ATOM     29  N   UNL     1       5.970  -6.941  -5.765  0.00  0.00    -0.306 N 
ATOM     30  C   UNL     1       7.127  -6.654  -6.615  0.00  0.00    +0.132 C 
ATOM     31  C   UNL     1       5.059  -8.034  -6.113  0.00  0.00    +0.132 C 
ATOM     32  N   UNL     1       7.189  -3.431  -2.900  0.00  0.00    -0.327 N 
ATOM     33  H   UNL     1       7.022  -2.900  -2.106  0.00  0.00    +0.145 HD
ATOM     34  H   UNL     1       7.957  -3.238  -3.460  0.00  0.00    +0.145 HD
ENDBRANCH  21  23
ENDBRANCH  20  21
ENDBRANCH   5  20
TORSDOF 5
