REMARK  Name = ZINC20877834
REMARK  9 active torsions:
REMARK  status: ('A' for Active; 'I' for Inactive)
REMARK    1  A    between atoms: C_1  and  C_2
REMARK    2  A    between atoms: C_5  and  C_8
REMARK    3  A    between atoms: C_8  and  O_9
REMARK    4  A    between atoms: O_9  and  C_10
REMARK    5  A    between atoms: C_11  and  O_31
REMARK    6  A    between atoms: C_13  and  C_17
REMARK    7  A    between atoms: C_17  and  N_18
REMARK    8  A    between atoms: N_18  and  C_19
REMARK    9  A    between atoms: O_31  and  C_32
REMARK                            x       y       z     vdW  Elec       q    Type
REMARK                         _______ _______ _______ _____ _____    ______ ____
ROOT
ATOM      1  C   UNL     1       1.174   2.088   0.002  0.00  0.00    +0.176 A 
ATOM      2  C   UNL     1       2.387   1.405  -0.013  0.00  0.00    +0.163 A 
ATOM      3  C   UNL     1       2.398   0.020  -0.020  0.00  0.00    +0.054 A 
ATOM      4  C   UNL     1       1.207  -0.682  -0.013  0.00  0.00    -0.026 A 
ATOM      5  C   UNL     1       0.002  -0.004   0.002  0.00  0.00    +0.024 A 
ATOM      6  C   UNL     1      -0.017   1.379   0.010  0.00  0.00    +0.063 A 
ATOM      7 BR   UNL     1      -1.667   2.303   0.022  0.00  0.00    -0.046 Br
ENDROOT
BRANCH   2   8
ATOM      8  O   UNL     1       3.558   2.096  -0.020  0.00  0.00    -0.491 OA
ATOM      9  C   UNL     1       4.764   1.330  -0.036  0.00  0.00    +0.277 C 
ENDBRANCH   2   8
BRANCH   1  10
ATOM     10  O   UNL     1       1.158   3.448   0.009  0.00  0.00    -0.483 OA
BRANCH  10  11
ATOM     11  C   UNL     1       1.162   4.091   1.286  0.00  0.00    +0.264 C 
BRANCH  11  16
ATOM     12  C   UNL     1       1.087   9.823   0.559  0.00  0.00    +0.044 C 
ATOM     13  C   UNL     1       1.106   8.328   0.749  0.00  0.00    -0.050 A 
ATOM     14  C   UNL     1      -0.082   7.628   0.846  0.00  0.00    +0.004 A 
ATOM     15  C   UNL     1      -0.064   6.257   1.020  0.00  0.00    +0.007 A 
ATOM     16  C   UNL     1       1.143   5.585   1.096  0.00  0.00    -0.010 A 
ATOM     17  C   UNL     1       2.330   6.286   1.003  0.00  0.00    +0.007 A 
ATOM     18  C   UNL     1       2.312   7.657   0.825  0.00  0.00    +0.004 A 
ENDBRANCH  11  16
ENDBRANCH  10  11
ENDBRANCH   1  10
BRANCH   4  19
ATOM     19  C   UNL     1       1.221  -2.188  -0.021  0.00  0.00    +0.137 C 
BRANCH  19  20
ATOM     20  N   UNL     1       1.213  -2.669  -1.405  0.00  0.00    -0.340 N 
ATOM     21  H   UNL     1       1.198  -1.950  -2.237  0.00  0.00    +0.146 HD
BRANCH  20  22
ATOM     22  C   UNL     1       1.224  -4.043  -1.668  0.00  0.00    +0.029 A 
ATOM     23  C   UNL     1       1.249  -4.951  -0.615  0.00  0.00    +0.025 A 
ATOM     24  C   UNL     1       1.255  -6.309  -0.869  0.00  0.00    +0.029 A 
ATOM     25  C   UNL     1       1.246  -6.769  -2.177  0.00  0.00    +0.067 A 
ATOM     26  C   UNL     1       1.227  -5.859  -3.236  0.00  0.00    +0.069 A 
ATOM     27  C   UNL     1       1.216  -4.497  -2.979  0.00  0.00    +0.050 A 
ATOM     28  N   UNL     1       1.223  -6.609  -4.410  0.00  0.00    -0.306 N 
ATOM     29  H   UNL     1       1.209  -6.102  -5.386  0.00  0.00    +0.170 HD
ATOM     30  C   UNL     1       1.239  -7.914  -4.081  0.00  0.00    +0.325 A 
ATOM     31  O   UNL     1       1.240  -8.837  -4.875  0.00  0.00    -0.247 OA
ATOM     32  N   UNL     1       1.253  -8.044  -2.741  0.00  0.00    -0.306 N 
ATOM     33  H   UNL     1       1.268  -8.933  -2.093  0.00  0.00    +0.170 HD
ENDBRANCH  20  22
ENDBRANCH  19  20
ENDBRANCH   4  19
TORSDOF 7
