REMARK  Name = ZINC33879689
REMARK  10 active torsions:
REMARK  status: ('A' for Active; 'I' for Inactive)
REMARK    1  A    between atoms: C_1  and  C_2
REMARK    2  A    between atoms: N_4  and  C_34
REMARK    3  A    between atoms: C_9  and  C_17
REMARK    4  A    between atoms: C_11  and  C_15
REMARK    5  A    between atoms: C_12  and  N_14
REMARK    6  A    between atoms: C_20  and  O_25
REMARK    7  A    between atoms: C_21  and  O_23
REMARK    8  A    between atoms: O_23  and  C_24
REMARK    9  A    between atoms: O_25  and  C_26
REMARK   10  A    between atoms: C_26  and  C_27
REMARK                            x       y       z     vdW  Elec       q    Type
REMARK                         _______ _______ _______ _____ _____    ______ ____
ROOT
ATOM      1  C   UNL     1      -0.636   1.422   0.335  0.00  0.00    +0.063 C 
ATOM      2  C   UNL     1      -0.588  -0.084   0.358  0.00  0.00    +0.043 C 
ATOM      3  N   UNL     1      -0.936  -0.864  -0.598  0.00  0.00    -0.185 NA
ATOM      4  N   UNL     1      -0.818  -2.224  -0.276  0.00  0.00    -0.185 N 
ATOM      5  C   UNL     1       0.154  -2.300   0.859  0.00  0.00    +0.294 C 
ATOM      6  C   UNL     1      -0.120  -0.934   1.504  0.00  0.00    +0.109 C 
ATOM      7  C   UNL     1       1.029  -0.379   2.295  0.00  0.00    +0.078 C 
ATOM      8  C   UNL     1       2.359  -0.696   1.676  0.00  0.00    +0.094 C 
ATOM      9  C   UNL     1       2.478  -1.649   0.727  0.00  0.00    +0.194 C 
ATOM     10  O   UNL     1       1.438  -2.337   0.234  0.00  0.00    -0.455 OA
ENDROOT
BRANCH   7  11
ATOM     11  C   UNL     1       0.880   1.118   2.385  0.00  0.00    -0.035 A 
ATOM     12  C   UNL     1       1.621   1.937   1.553  0.00  0.00    +0.008 A 
ATOM     13  C   UNL     1       1.488   3.310   1.633  0.00  0.00    +0.050 A 
ATOM     14  C   UNL     1       0.610   3.870   2.547  0.00  0.00    +0.162 A 
ATOM     15  C   UNL     1      -0.136   3.046   3.384  0.00  0.00    +0.162 A 
ATOM     16  C   UNL     1      -0.002   1.670   3.296  0.00  0.00    +0.053 A 
BRANCH  15  17
ATOM     17  O   UNL     1      -0.999   3.591   4.283  0.00  0.00    -0.491 OA
ATOM     18  C   UNL     1      -1.732   2.684   5.109  0.00  0.00    +0.277 C 
ENDBRANCH  15  17
BRANCH  14  19
ATOM     19  O   UNL     1       0.479   5.221   2.626  0.00  0.00    -0.484 OA
BRANCH  19  20
ATOM     20  C   UNL     1       1.277   6.004   1.736  0.00  0.00    +0.266 C 
BRANCH  20  21
ATOM     21  C   UNL     1       0.999   7.467   1.967  0.00  0.00    +0.008 A 
ATOM     22  C   UNL     1       0.088   7.854   2.933  0.00  0.00    +0.008 A 
ATOM     23  C   UNL     1      -0.167   9.195   3.145  0.00  0.00    +0.000 A 
ATOM     24  C   UNL     1       0.489  10.152   2.392  0.00  0.00    +0.001 A 
ATOM     25  C   UNL     1       1.399   9.767   1.426  0.00  0.00    +0.020 A 
ATOM     26  C   UNL     1       1.659   8.424   1.217  0.00  0.00    +0.047 A 
ATOM     27 CL   UNL     1       2.808   7.939   0.009  0.00  0.00    -0.083 Cl
ENDBRANCH  20  21
ENDBRANCH  19  20
ENDBRANCH  14  19
ENDBRANCH   7  11
BRANCH   4  28
ATOM     28  C   UNL     1      -1.475  -3.291  -0.890  0.00  0.00    +0.055 A 
ATOM     29  C   UNL     1      -1.256  -4.591  -0.450  0.00  0.00    +0.025 A 
ATOM     30  C   UNL     1      -1.907  -5.644  -1.060  0.00  0.00    +0.002 A 
ATOM     31  C   UNL     1      -2.777  -5.407  -2.109  0.00  0.00    +0.000 A 
ATOM     32  C   UNL     1      -2.998  -4.115  -2.550  0.00  0.00    +0.002 A 
ATOM     33  C   UNL     1      -2.354  -3.056  -1.940  0.00  0.00    +0.025 A 
ENDBRANCH   4  28
BRANCH   9  34
ATOM     34  N   UNL     1       3.732  -1.946   0.256  0.00  0.00    -0.329 N 
ATOM     35  H   UNL     1       4.505  -1.475   0.604  0.00  0.00    +0.145 HD
ATOM     36  H   UNL     1       3.845  -2.627  -0.426  0.00  0.00    +0.145 HD
ENDBRANCH   9  34
BRANCH   8  37
ATOM     37  C   UNL     1       3.522   0.025   2.099  0.00  0.00    +0.100 C 
ATOM     38  N   UNL     1       4.444   0.596   2.435  0.00  0.00    -0.191 NA
ENDBRANCH   8  37
TORSDOF 8
