REMARK  Name = ZINC39934003
REMARK  11 active torsions:
REMARK  status: ('A' for Active; 'I' for Inactive)
REMARK    1  A    between atoms: C_1  and  C_2
REMARK    2  A    between atoms: C_2  and  C_3
REMARK    3  A    between atoms: C_3  and  C_4
REMARK    4  A    between atoms: C_6  and  C_18
REMARK    5  A    between atoms: C_8  and  C_16
REMARK    6  A    between atoms: C_9  and  N_15
REMARK    7  A    between atoms: C_21  and  O_38
REMARK    8  A    between atoms: C_22  and  C_24
REMARK    9  A    between atoms: C_24  and  N_25
REMARK   10  A    between atoms: N_28  and  C_31
REMARK   11  A    between atoms: O_38  and  C_39
REMARK                            x       y       z     vdW  Elec       q    Type
REMARK                         _______ _______ _______ _____ _____    ______ ____
ROOT
ATOM      1  C   UNL     1      -2.718  -0.811   2.516  0.00  0.00    -0.034 A 
ATOM      2  C   UNL     1      -3.973  -0.435   2.072  0.00  0.00    +0.008 A 
ATOM      3  C   UNL     1      -4.518   0.768   2.476  0.00  0.00    +0.046 A 
ATOM      4  C   UNL     1      -3.806   1.600   3.328  0.00  0.00    +0.121 A 
ATOM      5  C   UNL     1      -2.547   1.221   3.772  0.00  0.00    -0.022 A 
ATOM      6  C   UNL     1      -2.009   0.014   3.369  0.00  0.00    +0.010 A 
ENDROOT
BRANCH   1   9
ATOM      7  C   UNL     1      -2.591  -3.109   4.421  0.00  0.00    +0.069 C 
ATOM      8  C   UNL     1      -2.023  -3.067   3.240  0.00  0.00    +0.030 C 
ATOM      9  C   UNL     1      -2.126  -2.124   2.073  0.00  0.00    +0.098 C 
ATOM     10  C   UNL     1      -0.703  -1.923   1.585  0.00  0.00    +0.097 C 
ATOM     11  C   UNL     1       0.320  -2.664   2.058  0.00  0.00    +0.195 C 
ATOM     12  O   UNL     1       0.251  -3.621   3.000  0.00  0.00    -0.448 OA
ATOM     13  C   UNL     1      -1.024  -4.225   3.236  0.00  0.00    +0.343 C 
ATOM     14  N   UNL     1      -1.149  -4.739   4.604  0.00  0.00    -0.138 NA
ATOM     15  N   UNL     1      -2.034  -4.090   5.176  0.00  0.00    -0.155 NA
BRANCH  11  16
ATOM     16  N   UNL     1       1.559  -2.416   1.523  0.00  0.00    -0.329 N 
ATOM     17  H   UNL     1       1.665  -1.735   0.840  0.00  0.00    +0.145 HD
ATOM     18  H   UNL     1       2.329  -2.921   1.828  0.00  0.00    +0.145 HD
ENDBRANCH  11  16
BRANCH  10  19
ATOM     19  C   UNL     1      -0.440  -0.920   0.597  0.00  0.00    +0.101 C 
ATOM     20  N   UNL     1      -0.231  -0.126  -0.188  0.00  0.00    -0.191 NA
ENDBRANCH  10  19
BRANCH   7  21
ATOM     21  C   UNL     1      -3.698  -2.195   4.877  0.00  0.00    +0.057 C 
BRANCH  21  23
ATOM     22  C   UNL     1      -6.176  -1.940   5.073  0.00  0.00    +0.004 C 
ATOM     23  C   UNL     1      -5.044  -2.906   4.720  0.00  0.00    +0.003 C 
ENDBRANCH  21  23
ENDBRANCH   7  21
ENDBRANCH   1   9
BRANCH   4  24
ATOM     24  O   UNL     1      -4.340   2.784   3.726  0.00  0.00    -0.495 OA
ATOM     25  C   UNL     1      -5.639   3.110   3.229  0.00  0.00    +0.277 C 
ENDBRANCH   4  24
BRANCH   5  26
ATOM     26  C   UNL     1      -1.771   2.122   4.697  0.00  0.00    -0.039 C 
BRANCH  26  27
ATOM     27  N   UNL     1      -1.236   3.259   3.938  0.00  0.00    +0.384 N 
ATOM     28  C   UNL     1      -0.272   2.772   2.943  0.00  0.00    -0.059 C 
ATOM     29  C   UNL     1       0.201   3.942   2.075  0.00  0.00    +0.086 C 
ATOM     30  N   UNL     1       0.721   4.998   2.958  0.00  0.00    -0.333 N 
ATOM     31  C   UNL     1      -0.117   5.434   4.085  0.00  0.00    +0.086 C 
ATOM     32  C   UNL     1      -0.575   4.193   4.858  0.00  0.00    -0.059 C 
ATOM     33  H   UNL     1      -1.992   3.733   3.465  0.00  0.00    -0.081 HD
BRANCH  30  34
ATOM     34  C   UNL     1       1.977   5.570   2.731  0.00  0.00    +0.030 A 
ATOM     35  C   UNL     1       2.701   5.231   1.596  0.00  0.00    +0.026 A 
ATOM     36  C   UNL     1       3.941   5.798   1.375  0.00  0.00    +0.040 A 
ATOM     37  C   UNL     1       4.461   6.705   2.283  0.00  0.00    +0.124 A 
ATOM     38  C   UNL     1       3.740   7.044   3.416  0.00  0.00    +0.040 A 
ATOM     39  C   UNL     1       2.498   6.483   3.639  0.00  0.00    +0.026 A 
ATOM     40  F   UNL     1       5.674   7.258   2.065  0.00  0.00    -0.205 F 
ENDBRANCH  30  34
ENDBRANCH  26  27
ENDBRANCH   5  26
TORSDOF 9
