REMARK  Name = ZINC04819075
REMARK  8 active torsions:
REMARK  status: ('A' for Active; 'I' for Inactive)
REMARK    1  A    between atoms: C_1  and  C_2
REMARK    2  A    between atoms: C_2  and  N_3
REMARK    3  A    between atoms: N_3  and  C_4
REMARK    4  A    between atoms: N_3  and  C_6
REMARK    5  A    between atoms: C_4  and  C_5
REMARK    6  A    between atoms: C_9  and  C_12
REMARK    7  A    between atoms: C_12  and  C_13
REMARK    8  A    between atoms: C_12  and  C_23
REMARK                            x       y       z     vdW  Elec       q    Type
REMARK                         _______ _______ _______ _____ _____    ______ ____
ROOT
ATOM      1  C   UNL     1       3.646   0.524  -0.030  0.00  0.00    +0.083 C 
ENDROOT
BRANCH   1   2
ATOM      2  C   UNL     1       2.140   0.591  -0.015  0.00  0.00    -0.011 A 
ATOM      3  C   UNL     1       1.295  -0.452  -0.013  0.00  0.00    +0.088 A 
ATOM      4  N   UNL     1       0.002  -0.004   0.002  0.00  0.00    -0.360 N 
ATOM      5  H   UNL     1      -0.784  -0.572   0.006  0.00  0.00    +0.165 HD
ATOM      6  C   UNL     1      -0.017   1.373   0.010  0.00  0.00    +0.047 A 
ATOM      7  C   UNL     1       1.322   1.806  -0.001  0.00  0.00    +0.004 A 
ATOM      8  C   UNL     1       1.612   3.171   0.004  0.00  0.00    +0.010 A 
ATOM      9  C   UNL     1       0.593   4.082   0.019  0.00  0.00    +0.001 A 
ATOM     10  C   UNL     1      -0.729   3.659   0.029  0.00  0.00    +0.002 A 
ATOM     11  C   UNL     1      -1.038   2.317   0.029  0.00  0.00    +0.026 A 
ENDBRANCH   1   2
BRANCH   1  12
ATOM     12  C   UNL     1       4.128  -0.215   1.192  0.00  0.00    -0.011 A 
ATOM     13  C   UNL     1       3.833  -1.480   1.528  0.00  0.00    +0.088 A 
ATOM     14  N   UNL     1       4.451  -1.808   2.703  0.00  0.00    -0.360 N 
ATOM     15  H   UNL     1       4.387  -2.668   3.146  0.00  0.00    +0.165 HD
ATOM     16  C   UNL     1       5.178  -0.733   3.165  0.00  0.00    +0.047 A 
ATOM     17  C   UNL     1       5.013   0.310   2.235  0.00  0.00    +0.004 A 
ATOM     18  C   UNL     1       5.648   1.536   2.443  0.00  0.00    +0.010 A 
ATOM     19  C   UNL     1       6.431   1.715   3.548  0.00  0.00    +0.001 A 
ATOM     20  C   UNL     1       6.600   0.689   4.466  0.00  0.00    +0.002 A 
ATOM     21  C   UNL     1       5.976  -0.527   4.285  0.00  0.00    +0.026 A 
ENDBRANCH   1  12
BRANCH   1  25
ATOM     22  C   UNL     1       4.947  -1.531  -3.544  0.00  0.00    +0.030 A 
ATOM     23  C   UNL     1       5.342  -0.219  -3.319  0.00  0.00    +0.023 A 
ATOM     24  C   UNL     1       4.920   0.443  -2.182  0.00  0.00    +0.006 A 
ATOM     25  C   UNL     1       4.105  -0.200  -1.269  0.00  0.00    -0.035 A 
ATOM     26  C   UNL     1       3.714  -1.509  -1.487  0.00  0.00    +0.006 A 
ATOM     27  C   UNL     1       4.128  -2.174  -2.625  0.00  0.00    +0.023 A 
BRANCH  22  28
ATOM     28  N   UNL     1       5.372  -2.203  -4.692  0.00  0.00    -0.330 N 
BRANCH  28  30
ATOM     29  C   UNL     1       3.644  -3.597  -5.718  0.00  0.00    +0.024 C 
ATOM     30  C   UNL     1       4.954  -3.587  -4.928  0.00  0.00    +0.102 C 
ENDBRANCH  28  30
BRANCH  28  31
ATOM     31  C   UNL     1       6.236  -1.524  -5.661  0.00  0.00    +0.102 C 
ATOM     32  C   UNL     1       7.702  -1.759  -5.290  0.00  0.00    +0.024 C 
ENDBRANCH  28  31
ENDBRANCH  22  28
ENDBRANCH   1  25
TORSDOF 6
