REMARK  Name = ZINC08385062
REMARK  8 active torsions:
REMARK  status: ('A' for Active; 'I' for Inactive)
REMARK    1  A    between atoms: C_1  and  C_2
REMARK    2  A    between atoms: C_2  and  C_26
REMARK    3  A    between atoms: N_3  and  N_4
REMARK    4  A    between atoms: C_7  and  O_25
REMARK    5  A    between atoms: C_8  and  C_11
REMARK    6  A    between atoms: C_11  and  C_12
REMARK    7  A    between atoms: N_14  and  C_15
REMARK    8  A    between atoms: C_20  and  C_21
REMARK                            x       y       z     vdW  Elec       q    Type
REMARK                         _______ _______ _______ _____ _____    ______ ____
ROOT
ATOM      1  N   UNL     1      -3.503   8.311  -2.410  0.00  0.00    -0.122 NA
ATOM      2  C   UNL     1      -3.232   7.473  -1.425  0.00  0.00    +0.213 C 
ATOM      3  N   UNL     1      -3.940   7.249  -0.296  0.00  0.00    -0.189 NA
ATOM      4  C   UNL     1      -3.601   6.413   0.610  0.00  0.00    +0.204 C 
ATOM      5  C   UNL     1      -2.310   5.644   0.360  0.00  0.00    +0.148 C 
ATOM      6  S   UNL     1      -1.839   6.363  -1.265  0.00  0.00    -0.071 S 
ENDROOT
BRANCH   1   9
ATOM      7  C   UNL     1      -4.215  10.084  -4.340  0.00  0.00    +0.071 C 
ATOM      8  C   UNL     1      -2.977   9.227  -4.399  0.00  0.00    +0.103 C 
ATOM      9  N   UNL     1      -2.708   8.396  -3.422  0.00  0.00    -0.148 NA
BRANCH   8  10
ATOM     10  C   UNL     1      -2.075   9.324  -5.545  0.00  0.00    +0.150 A 
ATOM     11  C   UNL     1      -0.924   8.609  -5.725  0.00  0.00    +0.051 A 
ATOM     12  C   UNL     1      -0.382   9.018  -6.956  0.00  0.00    +0.042 A 
ATOM     13  C   UNL     1      -1.213   9.951  -7.465  0.00  0.00    +0.196 A 
ATOM     14  O   UNL     1      -2.237  10.130  -6.614  0.00  0.00    -0.462 OA
ENDBRANCH   8  10
ENDBRANCH   1   9
BRANCH   4  15
ATOM     15  O   UNL     1      -4.340   6.226   1.719  0.00  0.00    -0.495 OA
ATOM     16  H   UNL     1      -5.146   6.753   1.804  0.00  0.00    +0.293 HD
ENDBRANCH   4  15
BRANCH   5  17
ATOM     17  C   UNL     1      -2.569   4.140   0.252  0.00  0.00    +0.120 C 
BRANCH  17  18
ATOM     18  C   UNL     1      -1.255   3.412   0.128  0.00  0.00    +0.219 C 
ATOM     19  O   UNL     1      -0.215   4.035   0.127  0.00  0.00    -0.275 OA
ATOM     20  N   UNL     1      -1.237   2.069   0.019  0.00  0.00    -0.285 N 
ATOM     21  H   UNL     1      -2.070   1.576  -0.046  0.00  0.00    +0.155 HD
BRANCH  20  22
ATOM     22  C   UNL     1      -0.016   1.385  -0.001  0.00  0.00    +0.045 A 
ATOM     23  C   UNL     1       1.093   1.959  -0.609  0.00  0.00    +0.024 A 
ATOM     24  C   UNL     1       2.294   1.278  -0.632  0.00  0.00    +0.002 A 
ATOM     25  C   UNL     1       2.394   0.028  -0.050  0.00  0.00    +0.001 A 
ATOM     26  C   UNL     1       1.292  -0.546   0.556  0.00  0.00    +0.014 A 
ATOM     27  C   UNL     1       0.087   0.129   0.583  0.00  0.00    +0.076 A 
BRANCH  27  28
ATOM     28  C   UNL     1      -1.114  -0.497   1.244  0.00  0.00    +0.419 C 
ATOM     29  F   UNL     1      -0.764  -1.752   1.754  0.00  0.00    -0.166 F 
ATOM     30  F   UNL     1      -1.553   0.325   2.288  0.00  0.00    -0.166 F 
ATOM     31  F   UNL     1      -2.139  -0.644   0.304  0.00  0.00    -0.166 F 
ENDBRANCH  27  28
ENDBRANCH  20  22
ENDBRANCH  17  18
ENDBRANCH   5  17
TORSDOF 7
