REMARK  Name = ZINC05006931
REMARK  6 active torsions:
REMARK  status: ('A' for Active; 'I' for Inactive)
REMARK    1  A    between atoms: C_1  and  C_2
REMARK    2  A    between atoms: C_4  and  N_12
REMARK    3  A    between atoms: N_12  and  N_13
REMARK    4  A    between atoms: C_14  and  C_15
REMARK    5  A    between atoms: C_18  and  O_22
REMARK    6  A    between atoms: C_20  and  O_21
REMARK                            x       y       z     vdW  Elec       q    Type
REMARK                         _______ _______ _______ _____ _____    ______ ____
ROOT
ATOM      1  N   UNL     1       0.027  -2.754  -2.435  0.00  0.00    -0.237 N 
ATOM      2  H   UNL     1       0.041  -3.724  -2.433  0.00  0.00    +0.174 HD
ENDROOT
BRANCH   1   6
ATOM      3  C   UNL     1      -0.018   1.503   0.010  0.00  0.00    +0.065 C 
ATOM      4  C   UNL     1       0.002  -0.004   0.002  0.00  0.00    +0.041 A 
ATOM      5  C   UNL     1       0.005  -0.672  -1.215  0.00  0.00    +0.048 A 
ATOM      6  C   UNL     1       0.024  -2.058  -1.237  0.00  0.00    +0.059 A 
ATOM      7  C   UNL     1       0.039  -2.741   0.004  0.00  0.00    +0.023 A 
ATOM      8  C   UNL     1       0.059  -4.140   0.066  0.00  0.00    +0.012 A 
ATOM      9  C   UNL     1       0.074  -4.761   1.280  0.00  0.00    +0.001 A 
ATOM     10  C   UNL     1       0.069  -4.020   2.459  0.00  0.00    +0.002 A 
ATOM     11  C   UNL     1       0.050  -2.659   2.433  0.00  0.00    +0.028 A 
ATOM     12  C   UNL     1       0.035  -1.985   1.200  0.00  0.00    +0.073 A 
ATOM     13  N   UNL     1       0.022  -0.648   1.146  0.00  0.00    -0.252 NA
ENDBRANCH   1   6
BRANCH   1  14
ATOM     14  N   UNL     1       0.011  -2.056  -3.650  0.00  0.00    -0.190 NA
ATOM     15  C   UNL     1       0.015  -2.708  -4.773  0.00  0.00    +0.141 C 
BRANCH  15  16
ATOM     16  C   UNL     1      -0.002  -1.975  -6.051  0.00  0.00    +0.036 A 
ATOM     17  C   UNL     1      -0.005  -2.673  -7.261  0.00  0.00    +0.016 A 
ATOM     18  C   UNL     1      -0.021  -1.984  -8.453  0.00  0.00    +0.046 A 
ATOM     19  C   UNL     1      -0.034  -0.594  -8.457  0.00  0.00    +0.120 A 
ATOM     20  C   UNL     1      -0.032   0.109  -7.261  0.00  0.00    +0.091 A 
ATOM     21  C   UNL     1      -0.021  -0.573  -6.057  0.00  0.00    +0.129 A 
BRANCH  21  22
ATOM     22  O   UNL     1      -0.024   0.114  -4.885  0.00  0.00    -0.506 OA
ATOM     23  H   UNL     1       0.858   0.325  -4.551  0.00  0.00    +0.292 HD
ENDBRANCH  21  22
BRANCH  19  24
ATOM     24  O   UNL     1      -0.050   0.079  -9.637  0.00  0.00    -0.507 OA
ATOM     25  H   UNL     1      -0.938   0.265  -9.973  0.00  0.00    +0.292 HD
ENDBRANCH  19  24
ENDBRANCH  15  16
ENDBRANCH   1  14
TORSDOF 5
