REMARK  Name = ZINC59060797
REMARK  10 active torsions:
REMARK  status: ('A' for Active; 'I' for Inactive)
REMARK    1  A    between atoms: C_1  and  C_2
REMARK    2  A    between atoms: C_5  and  C_33
REMARK    3  A    between atoms: N_8  and  C_10
REMARK    4  A    between atoms: C_10  and  C_11
REMARK    5  A    between atoms: C_16  and  C_17
REMARK    6  A    between atoms: C_17  and  N_18
REMARK    7  A    between atoms: C_19  and  C_21
REMARK    8  A    between atoms: C_21  and  N_22
REMARK    9  A    between atoms: C_23  and  C_25
REMARK   10  A    between atoms: C_26  and  C_27
REMARK                            x       y       z     vdW  Elec       q    Type
REMARK                         _______ _______ _______ _____ _____    ______ ____
ROOT
ATOM      1  C   UNL     1       2.126   0.235   3.241  0.00  0.00    +0.139 C 
ENDROOT
BRANCH   1   7
ATOM      2  C   UNL     1       2.517  -2.035   2.263  0.00  0.00    -0.059 A 
ATOM      3  C   UNL     1       3.339  -2.980   1.678  0.00  0.00    +0.002 A 
ATOM      4  C   UNL     1       4.670  -2.688   1.442  0.00  0.00    +0.000 A 
ATOM      5  C   UNL     1       5.178  -1.450   1.792  0.00  0.00    +0.000 A 
ATOM      6  C   UNL     1       4.356  -0.506   2.377  0.00  0.00    +0.005 A 
ATOM      7  C   UNL     1       3.024  -0.796   2.608  0.00  0.00    -0.029 A 
BRANCH   2   8
ATOM      8  C   UNL     1       1.067  -2.354   2.520  0.00  0.00    -0.043 C 
BRANCH   8  14
ATOM      9  C   UNL     1       2.236  -5.715   5.881  0.00  0.00    +0.005 C 
ATOM     10  C   UNL     1       1.497  -4.398   5.637  0.00  0.00    -0.031 C 
ATOM     11  C   UNL     1       0.020  -4.565   6.009  0.00  0.00    +0.003 C 
ATOM     12  C   UNL     1      -0.726  -3.267   5.688  0.00  0.00    -0.031 C 
ATOM     13  C   UNL     1      -0.535  -2.928   4.208  0.00  0.00    -0.075 C 
ATOM     14  N   UNL     1       0.894  -2.755   3.922  0.00  0.00    +0.383 N 
ATOM     15  C   UNL     1       1.606  -4.017   4.160  0.00  0.00    -0.075 C 
ATOM     16  C   UNL     1      -2.216  -3.448   5.983  0.00  0.00    +0.005 C 
ATOM     17  H   UNL     1       1.272  -2.039   4.524  0.00  0.00    -0.081 HD
ENDBRANCH   8  14
ENDBRANCH   2   8
ENDBRANCH   1   7
BRANCH   1  18
ATOM     18  N   UNL     1       2.001  -0.039   4.675  0.00  0.00    -0.310 N 
ATOM     19  C   UNL     1       1.155   0.690   5.429  0.00  0.00    +0.230 C 
ATOM     20  O   UNL     1       0.498   1.574   4.921  0.00  0.00    -0.274 OA
ATOM     21  H   UNL     1       2.526  -0.746   5.081  0.00  0.00    +0.149 HD
BRANCH  19  22
ATOM     22  C   UNL     1       1.026   0.407   6.904  0.00  0.00    +0.200 C 
BRANCH  22  23
ATOM     23  N   UNL     1       0.052   1.328   7.494  0.00  0.00    -0.303 N 
ATOM     24  C   UNL     1      -0.228   1.260   8.811  0.00  0.00    +0.237 C 
ATOM     25  O   UNL     1       0.329   0.434   9.509  0.00  0.00    -0.271 OA
ATOM     26  H   UNL     1      -0.392   1.987   6.937  0.00  0.00    +0.149 HD
BRANCH  24  27
ATOM     27  C   UNL     1      -1.202   2.181   9.401  0.00  0.00    +0.068 C 
ATOM     28  C   UNL     1      -1.482   2.113  10.718  0.00  0.00    +0.013 C 
BRANCH  28  29
ATOM     29  C   UNL     1      -2.461   3.038  11.311  0.00  0.00    -0.025 A 
ATOM     30  C   UNL     1      -3.107   3.986  10.511  0.00  0.00    +0.008 A 
ATOM     31  C   UNL     1      -4.022   4.849  11.074  0.00  0.00    +0.001 A 
ATOM     32  C   UNL     1      -4.303   4.780  12.427  0.00  0.00    +0.000 A 
ATOM     33  C   UNL     1      -3.667   3.845  13.226  0.00  0.00    +0.001 A 
ATOM     34  C   UNL     1      -2.754   2.971  12.677  0.00  0.00    +0.008 A 
ENDBRANCH  28  29
ENDBRANCH  24  27
ENDBRANCH  22  23
ENDBRANCH  19  22
ENDBRANCH   1  18
TORSDOF 8
