REMARK  Name = ZINC14558964
REMARK  7 active torsions:
REMARK  status: ('A' for Active; 'I' for Inactive)
REMARK    1  A    between atoms: C_3  and  C_24
REMARK    2  A    between atoms: C_5  and  N_7
REMARK    3  A    between atoms: N_7  and  C_8
REMARK    4  A    between atoms: C_8  and  N_10
REMARK    5  A    between atoms: C_11  and  C_13
REMARK    6  A    between atoms: C_14  and  C_15
REMARK    7  A    between atoms: C_18  and  N_21
REMARK                            x       y       z     vdW  Elec       q    Type
REMARK                         _______ _______ _______ _____ _____    ______ ____
ROOT
ATOM      1  C   UNL     1      -1.195   1.494  -0.361  0.00  0.00    +0.141 C 
ATOM      2  S   UNL     1      -1.265   3.086  -0.986  0.00  0.00    -0.018 S 
ENDROOT
BRANCH   1   3
ATOM      3  N   UNL     1      -2.324   0.769  -0.237  0.00  0.00    -0.264 N 
ATOM      4  C   UNL     1      -3.508   1.297  -0.606  0.00  0.00    +0.242 C 
ATOM      5  O   UNL     1      -3.558   2.429  -1.050  0.00  0.00    -0.270 OA
ATOM      6  H   UNL     1      -2.285  -0.133   0.117  0.00  0.00    +0.157 HD
BRANCH   4   7
ATOM      7  C   UNL     1      -4.734   0.510  -0.471  0.00  0.00    +0.068 C 
ATOM      8  C   UNL     1      -5.919   1.038  -0.840  0.00  0.00    +0.013 C 
BRANCH   8   9
ATOM      9  C   UNL     1      -7.152   0.246  -0.705  0.00  0.00    -0.025 A 
ATOM     10  C   UNL     1      -7.099  -1.057  -0.200  0.00  0.00    +0.010 A 
ATOM     11  C   UNL     1      -8.259  -1.791  -0.072  0.00  0.00    +0.033 A 
ATOM     12  C   UNL     1      -9.473  -1.245  -0.451  0.00  0.00    +0.126 A 
ATOM     13  C   UNL     1      -9.533   0.042  -0.957  0.00  0.00    +0.033 A 
ATOM     14  C   UNL     1      -8.383   0.791  -1.086  0.00  0.00    +0.010 A 
BRANCH  12  15
ATOM     15  N   UNL     1     -10.713  -2.041  -0.315  0.00  0.00    +0.056 N 
ATOM     16  O   UNL     1     -11.783  -1.564  -0.648  0.00  0.00    -0.126 OA
ATOM     17  O   UNL     1     -10.664  -3.174   0.130  0.00  0.00    -0.126 OA
ENDBRANCH  12  15
ENDBRANCH   8   9
ENDBRANCH   4   7
ENDBRANCH   1   3
BRANCH   1  18
ATOM     18  N   UNL     1      -0.011   0.966   0.007  0.00  0.00    -0.297 N 
ATOM     19  H   UNL     1       0.037   0.043   0.304  0.00  0.00    +0.154 HD
BRANCH  18  24
ATOM     20  C   UNL     1       2.553   3.307  -1.213  0.00  0.00    +0.003 A 
ATOM     21  C   UNL     1       3.447   3.300  -0.161  0.00  0.00    +0.013 A 
ATOM     22  C   UNL     1       3.196   2.512   0.963  0.00  0.00    +0.038 A 
ATOM     23  C   UNL     1       2.040   1.732   1.018  0.00  0.00    +0.036 A 
ATOM     24  C   UNL     1       1.149   1.746  -0.043  0.00  0.00    +0.033 A 
ATOM     25  C   UNL     1       1.411   2.531  -1.160  0.00  0.00    +0.023 A 
BRANCH  22  26
ATOM     26  C   UNL     1       4.152   2.502   2.091  0.00  0.00    +0.242 C 
ATOM     27  O   UNL     1       3.931   1.815   3.069  0.00  0.00    -0.270 OA
ATOM     28  N   UNL     1       5.268   3.256   2.035  0.00  0.00    -0.325 N 
ATOM     29  H   UNL     1       5.443   3.805   1.255  0.00  0.00    +0.145 HD
ATOM     30  H   UNL     1       5.895   3.250   2.775  0.00  0.00    +0.145 HD
ENDBRANCH  22  26
ENDBRANCH  18  24
ENDBRANCH   1  18
TORSDOF 7
