REMARK  Name = ZINC13685826
REMARK  6 active torsions:
REMARK  status: ('A' for Active; 'I' for Inactive)
REMARK    1  A    between atoms: C_1  and  C_2
REMARK    2  A    between atoms: C_2  and  C_32
REMARK    3  A    between atoms: N_7  and  C_10
REMARK    4  A    between atoms: C_13  and  S_16
REMARK    5  A    between atoms: S_16  and  N_19
REMARK    6  A    between atoms: N_22  and  C_25
REMARK                            x       y       z     vdW  Elec       q    Type
REMARK                         _______ _______ _______ _____ _____    ______ ____
ROOT
ATOM      1  C   UNL     1      -2.355   2.659   3.684  0.00  0.00    +0.059 A 
ATOM      2  C   UNL     1      -2.560   1.407   3.119  0.00  0.00    +0.027 A 
ATOM      3  C   UNL     1      -1.846   1.032   1.999  0.00  0.00    +0.030 A 
ATOM      4  C   UNL     1      -0.927   1.900   1.439  0.00  0.00    +0.106 A 
ATOM      5  C   UNL     1      -0.716   3.145   2.003  0.00  0.00    +0.030 A 
ATOM      6  C   UNL     1      -1.431   3.529   3.120  0.00  0.00    +0.027 A 
ENDROOT
BRANCH   1  13
ATOM      7  C   UNL     1      -5.562   1.999   7.229  0.00  0.00    +0.022 C 
ATOM      8  C   UNL     1      -4.917   3.129   6.424  0.00  0.00    +0.064 C 
ATOM      9  C   UNL     1      -3.824   3.822   7.280  0.00  0.00    +0.205 C 
ATOM     10  S   UNL     1      -2.600   4.178   5.954  0.00  0.00    +0.053 S 
ATOM     11  O   UNL     1      -1.292   3.795   6.355  0.00  0.00    -0.155 OA
ATOM     12  O   UNL     1      -2.850   5.445   5.360  0.00  0.00    -0.155 OA
ATOM     13  N   UNL     1      -3.077   3.043   4.819  0.00  0.00    -0.143 N 
ATOM     14  C   UNL     1      -4.278   2.571   5.188  0.00  0.00    +0.246 C 
ATOM     15  O   UNL     1      -4.832   1.710   4.538  0.00  0.00    -0.273 OA
ATOM     16  C   UNL     1      -5.983   4.151   6.025  0.00  0.00    +0.022 C 
ENDBRANCH   1  13
BRANCH   4  17
ATOM     17  S   UNL     1      -0.017   1.417   0.010  0.00  0.00    +0.061 S 
ATOM     18  O   UNL     1       0.002  -0.004   0.002  0.00  0.00    -0.153 OA
ATOM     19  O   UNL     1       1.172   2.195   0.003  0.00  0.00    -0.153 OA
BRANCH  17  20
ATOM     20  N   UNL     1      -0.897   1.885  -1.312  0.00  0.00    -0.174 NA
ATOM     21  C   UNL     1      -1.887   0.982  -1.919  0.00  0.00    +0.128 C 
ATOM     22  C   UNL     1      -3.215   1.745  -2.057  0.00  0.00    +0.122 C 
ATOM     23  N   UNL     1      -2.981   2.994  -2.793  0.00  0.00    -0.325 N 
ATOM     24  C   UNL     1      -2.076   3.886  -2.056  0.00  0.00    +0.122 C 
ATOM     25  C   UNL     1      -0.706   3.213  -1.915  0.00  0.00    +0.128 C 
BRANCH  23  26
ATOM     26  C   UNL     1      -4.189   3.637  -3.085  0.00  0.00    +0.065 A 
ATOM     27  C   UNL     1      -4.193   4.795  -3.851  0.00  0.00    +0.026 A 
ATOM     28  C   UNL     1      -5.388   5.425  -4.141  0.00  0.00    +0.002 A 
ATOM     29  C   UNL     1      -6.578   4.910  -3.663  0.00  0.00    +0.003 A 
ATOM     30  C   UNL     1      -6.579   3.759  -2.896  0.00  0.00    +0.040 A 
ATOM     31  C   UNL     1      -5.387   3.120  -2.605  0.00  0.00    +0.144 A 
ATOM     32  F   UNL     1      -5.387   1.996  -1.855  0.00  0.00    -0.204 F 
ENDBRANCH  23  26
ENDBRANCH  17  20
ENDBRANCH   4  17
TORSDOF 4
