REMARK  Name = ZINC39706827
REMARK  8 active torsions:
REMARK  status: ('A' for Active; 'I' for Inactive)
REMARK    1  A    between atoms: C_1  and  C_2
REMARK    2  A    between atoms: C_7  and  C_8
REMARK    3  A    between atoms: C_7  and  C_9
REMARK    4  A    between atoms: N_11  and  C_13
REMARK    5  A    between atoms: C_13  and  C_14
REMARK    6  A    between atoms: C_14  and  C_16
REMARK    7  A    between atoms: C_14  and  O_31
REMARK    8  A    between atoms: C_16  and  N_17
REMARK                            x       y       z     vdW  Elec       q    Type
REMARK                         _______ _______ _______ _____ _____    ______ ____
ROOT
ATOM      1  C   UNL     1       1.240  -3.494  -2.526  0.00  0.00    +0.118 C 
ENDROOT
BRANCH   1   2
ATOM      2  O   UNL     1       1.581  -4.171  -1.315  0.00  0.00    -0.392 OA
ATOM      3  H   UNL     1       2.501  -4.050  -1.042  0.00  0.00    +0.210 HD
ENDBRANCH   1   2
BRANCH   1   4
ATOM      4  C   UNL     1       1.465  -1.990  -2.350  0.00  0.00    -0.045 C 
BRANCH   4  14
ATOM      5  C   UNL     1      -3.192  -1.428  -0.641  0.00  0.00    +0.010 C 
ATOM      6  C   UNL     1      -1.706  -1.097  -0.484  0.00  0.00    -0.041 C 
ATOM      7  C   UNL     1      -1.109  -1.623   0.843  0.00  0.00    +0.005 C 
ATOM      8  C   UNL     1       0.004  -0.632   1.231  0.00  0.00    +0.003 C 
ATOM      9  C   UNL     1       0.026   0.445   0.120  0.00  0.00    -0.021 C 
ATOM     10  C   UNL     1      -1.430   0.430  -0.422  0.00  0.00    -0.030 C 
ATOM     11  C   UNL     1      -1.506   1.062  -1.814  0.00  0.00    +0.011 C 
ATOM     12  C   UNL     1      -2.387   1.125   0.548  0.00  0.00    +0.011 C 
ATOM     13  C   UNL     1       0.932  -0.083  -1.007  0.00  0.00    -0.075 C 
ATOM     14  N   UNL     1       0.615  -1.493  -1.259  0.00  0.00    +0.382 N 
ATOM     15  C   UNL     1      -0.848  -1.645  -1.639  0.00  0.00    -0.072 C 
ATOM     16  H   UNL     1       0.801  -2.029  -0.425  0.00  0.00    -0.082 HD
ENDBRANCH   4  14
ENDBRANCH   1   4
BRANCH   1  17
ATOM     17  C   UNL     1       2.121  -4.011  -3.665  0.00  0.00    +0.151 C 
BRANCH  17  18
ATOM     18  N   UNL     1       1.820  -5.423  -3.913  0.00  0.00    -0.337 N 
ATOM     19  C   UNL     1       2.448  -6.487  -3.291  0.00  0.00    +0.050 A 
ATOM     20  C   UNL     1       3.457  -6.550  -2.335  0.00  0.00    +0.026 A 
ATOM     21  C   UNL     1       3.903  -7.773  -1.882  0.00  0.00    +0.002 A 
ATOM     22  C   UNL     1       3.354  -8.948  -2.370  0.00  0.00    +0.001 A 
ATOM     23  C   UNL     1       2.353  -8.907  -3.316  0.00  0.00    +0.010 A 
ATOM     24  C   UNL     1       1.893  -7.677  -3.783  0.00  0.00    +0.008 A 
ATOM     25  C   UNL     1       0.866  -7.286  -4.765  0.00  0.00    +0.009 A 
ATOM     26  C   UNL     1       0.862  -5.883  -4.799  0.00  0.00    +0.050 A 
ATOM     27  C   UNL     1      -0.025  -5.225  -5.646  0.00  0.00    +0.027 A 
ATOM     28  C   UNL     1      -0.890  -5.949  -6.437  0.00  0.00    +0.016 A 
ATOM     29  C   UNL     1      -0.888  -7.335  -6.400  0.00  0.00    +0.014 A 
ATOM     30  C   UNL     1      -0.010  -8.006  -5.574  0.00  0.00    +0.025 A 
ATOM     31  I   UNL     1      -2.212  -8.415  -7.612  0.00  0.00    -0.044 I 
ENDBRANCH  17  18
ENDBRANCH   1  17
TORSDOF 5
