REMARK  Name = ZINC13064531
REMARK  14 active torsions:
REMARK  status: ('A' for Active; 'I' for Inactive)
REMARK    1  A    between atoms: C_1  and  C_2
REMARK    2  A    between atoms: C_2  and  C_3
REMARK    3  A    between atoms: C_3  and  C_5
REMARK    4  A    between atoms: C_3  and  N_74
REMARK    5  A    between atoms: N_9  and  C_10
REMARK    6  A    between atoms: C_10  and  C_11
REMARK    7  A    between atoms: C_11  and  C_12
REMARK    8  A    between atoms: C_18  and  C_19
REMARK    9  A    between atoms: C_18  and  N_74
REMARK   10  A    between atoms: C_23  and  O_33
REMARK   11  A    between atoms: C_24  and  O_31
REMARK   12  A    between atoms: O_31  and  C_32
REMARK   13  A    between atoms: O_33  and  C_34
REMARK   14  A    between atoms: C_35  and  N_74
REMARK                            x       y       z     vdW  Elec       q    Type
REMARK                         _______ _______ _______ _____ _____    ______ ____
ROOT
ATOM      1  N   UNL     1      -5.443   4.271  -1.343  0.00  0.00    +0.391 N 
ATOM      2  H   UNL     1      -5.239   3.341  -1.726  0.00  0.00    -0.080 HD
ENDROOT
BRANCH   1   3
ATOM      3  C   UNL     1      -4.670   5.281  -2.097  0.00  0.00    -0.067 C 
ATOM      4  C   UNL     1      -5.010   6.708  -1.623  0.00  0.00    -0.015 C 
ATOM      5  C   UNL     1      -4.986   7.555  -2.920  0.00  0.00    -0.002 C 
ATOM      6  C   UNL     1      -5.606   6.597  -3.967  0.00  0.00    -0.002 C 
ATOM      7  C   UNL     1      -5.048   5.210  -3.587  0.00  0.00    -0.015 C 
ENDBRANCH   1   3
BRANCH   1   8
ATOM      8  C   UNL     1      -6.890   4.539  -1.478  0.00  0.00    +0.003 C 
BRANCH   8   9
ATOM      9  C   UNL     1      -7.345   5.515  -0.423  0.00  0.00    +0.138 A 
ATOM     10  N   UNL     1      -7.090   5.453   0.861  0.00  0.00    -0.115 NA
ATOM     11  N   UNL     1      -7.651   6.466   1.427  0.00  0.00    -0.023 NA
ATOM     12  N   UNL     1      -8.256   7.172   0.537  0.00  0.00    -0.044 NA
ATOM     13  N   UNL     1      -8.087   6.621  -0.617  0.00  0.00    -0.231 N 
BRANCH  13  14
ATOM     14  C   UNL     1      -8.606   7.106  -1.898  0.00  0.00    +0.152 C 
BRANCH  14  15
ATOM     15  C   UNL     1      -9.990   6.503  -2.148  0.00  0.00    +0.058 C 
BRANCH  15  16
ATOM     16  C   UNL     1     -10.525   7.003  -3.466  0.00  0.00    -0.046 A 
ATOM     17  C   UNL     1     -11.281   8.159  -3.511  0.00  0.00    +0.004 A 
ATOM     18  C   UNL     1     -11.767   8.620  -4.721  0.00  0.00    +0.000 A 
ATOM     19  C   UNL     1     -11.506   7.918  -5.883  0.00  0.00    +0.000 A 
ATOM     20  C   UNL     1     -10.755   6.759  -5.837  0.00  0.00    +0.000 A 
ATOM     21  C   UNL     1     -10.264   6.301  -4.628  0.00  0.00    +0.004 A 
ENDBRANCH  15  16
ENDBRANCH  14  15
ENDBRANCH  13  14
ENDBRANCH   8   9
BRANCH   8  23
ATOM     22  C   UNL     1      -7.271   2.271  -2.453  0.00  0.00    +0.002 C 
ATOM     23  C   UNL     1      -7.648   3.220  -1.314  0.00  0.00    -0.011 C 
ENDBRANCH   8  23
ENDBRANCH   1   8
BRANCH   1  24
ATOM     24  C   UNL     1      -5.055   4.299   0.083  0.00  0.00    -0.036 C 
BRANCH  24  25
ATOM     25  C   UNL     1      -3.696   3.663   0.227  0.00  0.00    +0.001 A 
ATOM     26  C   UNL     1      -2.590   4.445   0.311  0.00  0.00    +0.017 A 
ATOM     27  C   UNL     1      -1.286   3.798   0.450  0.00  0.00    +0.002 A 
ATOM     28  C   UNL     1      -0.110   4.555   0.541  0.00  0.00    +0.059 A 
ATOM     29  C   UNL     1       1.103   3.917   0.672  0.00  0.00    +0.162 A 
ATOM     30  C   UNL     1       1.164   2.520   0.714  0.00  0.00    +0.163 A 
ATOM     31  C   UNL     1       0.010   1.764   0.625  0.00  0.00    +0.075 A 
ATOM     32  C   UNL     1      -1.222   2.392   0.487  0.00  0.00    +0.053 A 
ATOM     33  N   UNL     1      -2.386   1.655   0.402  0.00  0.00    -0.322 N 
ATOM     34  H   UNL     1      -2.341   0.686   0.432  0.00  0.00    +0.169 HD
ATOM     35  C   UNL     1      -3.579   2.260   0.274  0.00  0.00    +0.251 A 
ATOM     36  O   UNL     1      -4.586   1.577   0.197  0.00  0.00    -0.268 OA
BRANCH  30  37
ATOM     37  O   UNL     1       2.366   1.901   0.844  0.00  0.00    -0.491 OA
ATOM     38  C   UNL     1       2.360   0.473   0.880  0.00  0.00    +0.277 C 
ENDBRANCH  30  37
BRANCH  29  39
ATOM     39  O   UNL     1       2.247   4.647   0.760  0.00  0.00    -0.491 OA
ATOM     40  C   UNL     1       2.114   6.069   0.710  0.00  0.00    +0.277 C 
ENDBRANCH  29  39
ENDBRANCH  24  25
ENDBRANCH   1  24
TORSDOF 11
