REMARK  Name = ZINC39636621
REMARK  8 active torsions:
REMARK  status: ('A' for Active; 'I' for Inactive)
REMARK    1  A    between atoms: C_1  and  C_2
REMARK    2  A    between atoms: C_5  and  C_33
REMARK    3  A    between atoms: C_6  and  C_8
REMARK    4  A    between atoms: C_8  and  N_9
REMARK    5  A    between atoms: C_10  and  C_12
REMARK    6  A    between atoms: C_23  and  C_25
REMARK    7  A    between atoms: C_29  and  O_30
REMARK    8  A    between atoms: O_30  and  C_31
REMARK                            x       y       z     vdW  Elec       q    Type
REMARK                         _______ _______ _______ _____ _____    ______ ____
ROOT
ATOM      1  C   UNL     1       3.072  -4.441   4.194  0.00  0.00    +0.100 C 
ATOM      2  C   UNL     1       3.531  -5.514   3.181  0.00  0.00    +0.121 C 
ATOM      3  N   UNL     1       4.345  -6.460   3.980  0.00  0.00    -0.296 N 
ATOM      4  C   UNL     1       3.621  -6.572   5.269  0.00  0.00    +0.115 C 
ATOM      5  C   UNL     1       3.131  -5.139   5.563  0.00  0.00    -0.004 C 
ATOM      6  C   UNL     1       1.745  -5.176   6.198  0.00  0.00    -0.010 C 
ATOM      7  C   UNL     1       1.839  -5.822   7.583  0.00  0.00    -0.082 C 
ATOM      8  N   UNL     1       2.764  -5.051   8.422  0.00  0.00    +0.379 N 
ATOM      9  C   UNL     1       4.116  -5.099   7.853  0.00  0.00    -0.082 C 
ATOM     10  C   UNL     1       4.117  -4.422   6.479  0.00  0.00    -0.010 C 
ATOM     11  C   UNL     1       5.486  -7.078   3.618  0.00  0.00    +0.251 C 
ATOM     12  O   UNL     1       6.014  -6.806   2.555  0.00  0.00    -0.270 OA
ATOM     13  H   UNL     1       2.454  -4.092   8.469  0.00  0.00    -0.086 HD
ATOM     14  H   UNL     1       2.778  -5.443   9.352  0.00  0.00    -0.086 HD
ENDROOT
BRANCH  11  15
ATOM     15  C   UNL     1       6.094  -8.080   4.506  0.00  0.00    +0.087 A 
ATOM     16  C   UNL     1       5.323  -8.921   5.279  0.00  0.00    +0.063 A 
ATOM     17  S   UNL     1       6.439  -9.865   6.103  0.00  0.00    -0.081 S 
ATOM     18  C   UNL     1       7.955  -9.188   5.462  0.00  0.00    +0.120 A 
ATOM     19  C   UNL     1       7.527  -8.234   4.605  0.00  0.00    +0.158 A 
ATOM     20 CL   UNL     1       9.586  -9.647   5.840  0.00  0.00    -0.072 Cl
BRANCH  19  21
ATOM     21  O   UNL     1       8.391  -7.465   3.886  0.00  0.00    -0.492 OA
ATOM     22  C   UNL     1       8.829  -6.245   4.488  0.00  0.00    +0.277 C 
ENDBRANCH  19  21
ENDBRANCH  11  15
BRANCH   1  24
ATOM     23  N   UNL     1       1.212  -2.818   4.352  0.00  0.00    -0.311 N 
ATOM     24  C   UNL     1       1.663  -4.001   3.890  0.00  0.00    +0.218 C 
ATOM     25  O   UNL     1       0.935  -4.712   3.229  0.00  0.00    -0.275 OA
ATOM     26  H   UNL     1       1.794  -2.250   4.880  0.00  0.00    +0.149 HD
BRANCH  23  27
ATOM     27  C   UNL     1      -0.158  -2.391   4.056  0.00  0.00    +0.139 C 
BRANCH  27  33
ATOM     28  C   UNL     1      -2.079   0.377   7.757  0.00  0.00    +0.044 C 
ATOM     29  C   UNL     1      -1.330   0.280   6.454  0.00  0.00    -0.050 A 
ATOM     30  C   UNL     1      -0.873   1.428   5.832  0.00  0.00    +0.003 A 
ATOM     31  C   UNL     1      -0.186   1.340   4.636  0.00  0.00    +0.004 A 
ATOM     32  C   UNL     1       0.045   0.104   4.061  0.00  0.00    -0.046 A 
ATOM     33  C   UNL     1      -0.410  -1.044   4.683  0.00  0.00    -0.027 A 
ATOM     34  C   UNL     1      -1.094  -0.956   5.882  0.00  0.00    +0.008 A 
ATOM     35  C   UNL     1       0.794   0.008   2.757  0.00  0.00    +0.044 C 
ENDBRANCH  27  33
ENDBRANCH  23  27
ENDBRANCH   1  24
TORSDOF 5
