REMARK  Name = ZINC13521674
REMARK  9 active torsions:
REMARK  status: ('A' for Active; 'I' for Inactive)
REMARK    1  A    between atoms: C_1  and  C_2
REMARK    2  A    between atoms: C_4  and  O_31
REMARK    3  A    between atoms: C_8  and  C_21
REMARK    4  A    between atoms: C_14  and  C_19
REMARK    5  A    between atoms: C_14  and  C_20
REMARK    6  A    between atoms: C_24  and  O_29
REMARK    7  A    between atoms: C_25  and  O_27
REMARK    8  A    between atoms: O_27  and  C_28
REMARK    9  A    between atoms: O_29  and  C_30
REMARK                            x       y       z     vdW  Elec       q    Type
REMARK                         _______ _______ _______ _____ _____    ______ ____
ROOT
ATOM      1  C   UNL     1       2.066   1.225   0.360  0.00  0.00    +0.044 C 
ATOM      2  C   UNL     1       1.743  -0.247   0.333  0.00  0.00    -0.040 A 
ATOM      3  C   UNL     1       1.710  -0.920  -0.872  0.00  0.00    +0.049 A 
ATOM      4  C   UNL     1       1.415  -2.275  -0.900  0.00  0.00    +0.121 A 
ATOM      5  C   UNL     1       1.157  -2.949   0.282  0.00  0.00    +0.091 A 
ATOM      6  C   UNL     1       1.191  -2.270   1.495  0.00  0.00    +0.131 A 
ATOM      7  C   UNL     1       1.487  -0.917   1.518  0.00  0.00    +0.005 A 
ATOM      8  C   UNL     1       1.527  -0.143   2.811  0.00  0.00    +0.058 C 
ATOM      9  C   UNL     1       1.656  -1.111   3.989  0.00  0.00    +0.081 C 
ATOM     10  C   UNL     1       0.623  -2.229   3.811  0.00  0.00    +0.180 C 
ATOM     11  O   UNL     1       0.938  -2.966   2.634  0.00  0.00    -0.468 OA
ATOM     12  C   UNL     1       0.656  -3.155   5.029  0.00  0.00    +0.094 C 
ATOM     13  C   UNL     1      -0.459  -4.196   4.883  0.00  0.00    +0.033 C 
ATOM     14  N   UNL     1      -1.737  -3.508   4.694  0.00  0.00    -0.321 N 
ATOM     15  C   UNL     1      -1.802  -2.302   4.111  0.00  0.00    +0.133 C 
ATOM     16  S   UNL     1      -3.336  -1.567   3.910  0.00  0.00    -0.019 S 
ATOM     17  N   UNL     1      -0.713  -1.648   3.679  0.00  0.00    -0.289 N 
ATOM     18  C   UNL     1      -0.523  -5.058   6.145  0.00  0.00    +0.031 C 
ATOM     19  C   UNL     1      -0.173  -5.084   3.670  0.00  0.00    +0.031 C 
ATOM     20  H   UNL     1      -2.554  -3.933   4.997  0.00  0.00    +0.148 HD
ATOM     21  H   UNL     1      -0.813  -0.773   3.272  0.00  0.00    +0.151 HD
ENDROOT
BRANCH   8  22
ATOM     22  C   UNL     1       2.708   0.792   2.800  0.00  0.00    -0.036 A 
ATOM     23  C   UNL     1       2.532   2.131   3.096  0.00  0.00    +0.008 A 
ATOM     24  C   UNL     1       3.613   2.993   3.087  0.00  0.00    +0.050 A 
ATOM     25  C   UNL     1       4.877   2.515   2.780  0.00  0.00    +0.162 A 
ATOM     26  C   UNL     1       5.055   1.167   2.482  0.00  0.00    +0.162 A 
ATOM     27  C   UNL     1       3.968   0.308   2.498  0.00  0.00    +0.053 A 
BRANCH  26  28
ATOM     28  O   UNL     1       6.293   0.694   2.181  0.00  0.00    -0.491 OA
ATOM     29  C   UNL     1       6.401  -0.700   1.885  0.00  0.00    +0.277 C 
ENDBRANCH  26  28
BRANCH  25  30
ATOM     30  O   UNL     1       5.941   3.361   2.771  0.00  0.00    -0.491 OA
ATOM     31  C   UNL     1       5.684   4.731   3.086  0.00  0.00    +0.277 C 
ENDBRANCH  25  30
ENDBRANCH   8  22
BRANCH   4  32
ATOM     32  O   UNL     1       1.379  -2.940  -2.084  0.00  0.00    -0.507 OA
ATOM     33  H   UNL     1       2.228  -3.322  -2.347  0.00  0.00    +0.292 HD
ENDBRANCH   4  32
TORSDOF 4
