REMARK  Name = ZINC39533826
REMARK  7 active torsions:
REMARK  status: ('A' for Active; 'I' for Inactive)
REMARK    1  A    between atoms: C_4  and  C_7
REMARK    2  A    between atoms: C_10  and  C_13
REMARK    3  A    between atoms: C_13  and  C_15
REMARK    4  A    between atoms: C_13  and  N_24
REMARK    5  A    between atoms: C_15  and  N_16
REMARK    6  A    between atoms: N_16  and  C_17
REMARK    7  A    between atoms: C_22  and  O_23
REMARK                            x       y       z     vdW  Elec       q    Type
REMARK                         _______ _______ _______ _____ _____    ______ ____
ROOT
ATOM      1  C   UNL     1       7.381  -2.720  -0.131  0.00  0.00    +0.104 C 
ENDROOT
BRANCH   1   2
ATOM      2  N   UNL     1       7.128  -3.880  -0.996  0.00  0.00    -0.291 NA
ATOM      3  C   UNL     1       8.241  -4.838  -0.929  0.00  0.00    +0.100 C 
ATOM      4  C   UNL     1       7.904  -6.066  -1.779  0.00  0.00    +0.097 C 
ATOM      5  N   UNL     1       7.657  -5.646  -3.165  0.00  0.00    -0.303 NA
ATOM      6  C   UNL     1       6.545  -4.688  -3.232  0.00  0.00    +0.132 C 
ATOM      7  C   UNL     1       6.881  -3.461  -2.382  0.00  0.00    +0.114 C 
ATOM      8  I   UNL     1       6.237  -4.083  -5.284  0.00  0.00    -0.063 I 
ATOM      9  H   UNL     1       8.492  -5.261  -3.580  0.00  0.00    +0.123 HD
ENDBRANCH   1   2
BRANCH   1  13
ATOM     10  C   UNL     1       4.014  -0.087  -0.262  0.00  0.00    -0.018 A 
ATOM     11  C   UNL     1       5.308   0.431  -0.252  0.00  0.00    +0.009 A 
ATOM     12  C   UNL     1       6.391  -0.423  -0.210  0.00  0.00    +0.006 A 
ATOM     13  C   UNL     1       6.194  -1.792  -0.177  0.00  0.00    -0.029 A 
ATOM     14  C   UNL     1       4.913  -2.312  -0.187  0.00  0.00    +0.006 A 
ATOM     15  C   UNL     1       3.822  -1.466  -0.223  0.00  0.00    +0.009 A 
BRANCH  10  19
ATOM     16  C   UNL     1       0.666   2.531  -0.392  0.00  0.00    +0.000 A 
ATOM     17  C   UNL     1       1.948   3.051  -0.388  0.00  0.00    +0.001 A 
ATOM     18  C   UNL     1       3.038   2.206  -0.346  0.00  0.00    +0.008 A 
ATOM     19  C   UNL     1       2.846   0.827  -0.307  0.00  0.00    -0.018 A 
ATOM     20  C   UNL     1       1.553   0.308  -0.311  0.00  0.00    +0.008 A 
ATOM     21  C   UNL     1       0.470   1.163  -0.354  0.00  0.00    +0.001 A 
ENDBRANCH  10  19
ENDBRANCH   1  13
BRANCH   1  22
ATOM     22  C   UNL     1       7.602  -3.193   1.307  0.00  0.00    +0.125 C 
BRANCH  22  23
ATOM     23  N   UNL     1       7.931  -2.045   2.154  0.00  0.00    -0.339 N 
ATOM     24  H   UNL     1       7.928  -1.149   1.780  0.00  0.00    +0.146 HD
BRANCH  23  25
ATOM     25  C   UNL     1       8.249  -2.238   3.503  0.00  0.00    +0.069 A 
ATOM     26  C   UNL     1       8.259  -3.518   4.039  0.00  0.00    +0.026 A 
ATOM     27  C   UNL     1       8.573  -3.707   5.371  0.00  0.00    +0.002 A 
ATOM     28  C   UNL     1       8.879  -2.623   6.173  0.00  0.00    +0.004 A 
ATOM     29  C   UNL     1       8.871  -1.344   5.647  0.00  0.00    +0.047 A 
ATOM     30  C   UNL     1       8.562  -1.147   4.311  0.00  0.00    +0.138 A 
BRANCH  30  31
ATOM     31  O   UNL     1       8.559   0.110   3.790  0.00  0.00    -0.505 OA
ATOM     32  H   UNL     1       7.705   0.559   3.853  0.00  0.00    +0.292 HD
ENDBRANCH  30  31
ENDBRANCH  23  25
ENDBRANCH  22  23
ENDBRANCH   1  22
TORSDOF 7
