REMARK  Name = ZINC08880822
REMARK  11 active torsions:
REMARK  status: ('A' for Active; 'I' for Inactive)
REMARK    1  A    between atoms: C_1  and  C_2
REMARK    2  A    between atoms: C_2  and  O_3
REMARK    3  A    between atoms: O_3  and  C_4
REMARK    4  A    between atoms: C_4  and  C_6
REMARK    5  A    between atoms: C_10  and  N_11
REMARK    6  A    between atoms: C_12  and  C_14
REMARK    7  A    between atoms: C_17  and  S_20
REMARK    8  A    between atoms: S_20  and  N_23
REMARK    9  A    between atoms: C_25  and  C_32
REMARK   10  A    between atoms: C_28  and  C_31
REMARK   11  A    between atoms: C_36  and  N_66
REMARK                            x       y       z     vdW  Elec       q    Type
REMARK                         _______ _______ _______ _____ _____    ______ ____
ROOT
ATOM      1  N   UNL     1       1.427   2.100  -2.487  0.00  0.00    -0.275 N 
ATOM      2  C   UNL     1       2.156   2.546  -3.529  0.00  0.00    +0.249 C 
ATOM      3  O   UNL     1       3.188   3.158  -3.330  0.00  0.00    -0.270 OA
ATOM      4  H   UNL     1       0.604   1.612  -2.645  0.00  0.00    +0.156 HD
ENDROOT
BRANCH   1   9
ATOM      5  C   UNL     1       1.244   1.962   0.001  0.00  0.00    +0.091 A 
ATOM      6  C   UNL     1       1.900   2.345   1.236  0.00  0.00    -0.025 A 
ATOM      7  C   UNL     1       3.057   3.030   1.088  0.00  0.00    -0.021 A 
ATOM      8  S   UNL     1       3.272   3.178  -0.661  0.00  0.00    -0.079 S 
ATOM      9  C   UNL     1       1.852   2.338  -1.191  0.00  0.00    +0.086 A 
ATOM     10  C   UNL     1       3.933   3.543   2.188  0.00  0.00    -0.036 C 
ATOM     11  C   UNL     1       2.539   2.176   3.622  0.00  0.00    -0.074 C 
ATOM     12  C   UNL     1       1.384   2.010   2.631  0.00  0.00    +0.018 C 
ATOM     13  C   UNL     1       4.024   3.823   4.596  0.00  0.00    -0.096 C 
ATOM     14  N   UNL     1       3.148   3.510   3.446  0.00  0.00    +0.381 N 
ATOM     15  H   UNL     1       2.403   4.214   3.393  0.00  0.00    -0.082 HD
BRANCH   5  16
ATOM     16  C   UNL     1      -0.014   1.212   0.009  0.00  0.00    +0.342 C 
ATOM     17  O   UNL     1       0.002  -0.004   0.002  0.00  0.00    -0.245 OA
BRANCH  16  18
ATOM     18  O   UNL     1      -1.192   1.871   0.018  0.00  0.00    -0.461 OA
BRANCH  18  20
ATOM     19  C   UNL     1      -3.624   1.979   0.030  0.00  0.00    +0.048 C 
ATOM     20  C   UNL     1      -2.398   1.063   0.019  0.00  0.00    +0.229 C 
ENDBRANCH  18  20
ENDBRANCH  16  18
ENDBRANCH   5  16
ENDBRANCH   1   9
BRANCH   2  21
ATOM     21  C   UNL     1       1.702   2.292  -4.912  0.00  0.00    +0.037 A 
ATOM     22  C   UNL     1       0.521   1.585  -5.143  0.00  0.00    +0.015 A 
ATOM     23  C   UNL     1       0.101   1.355  -6.437  0.00  0.00    +0.029 A 
ATOM     24  C   UNL     1       0.852   1.815  -7.504  0.00  0.00    +0.106 A 
ATOM     25  C   UNL     1       2.026   2.512  -7.282  0.00  0.00    +0.029 A 
ATOM     26  C   UNL     1       2.456   2.753  -5.993  0.00  0.00    +0.015 A 
BRANCH  24  27
ATOM     27  S   UNL     1       0.311   1.512  -9.153  0.00  0.00    +0.061 S 
ATOM     28  O   UNL     1      -1.095   1.315  -9.089  0.00  0.00    -0.153 OA
ATOM     29  O   UNL     1       0.903   2.515  -9.966  0.00  0.00    -0.153 OA
BRANCH  27  30
ATOM     30  N   UNL     1       0.970   0.068  -9.627  0.00  0.00    -0.172 NA
ATOM     31  C   UNL     1       0.259  -1.200  -9.399  0.00  0.00    +0.140 C 
ATOM     32  C   UNL     1       0.223  -1.978 -10.720  0.00  0.00    +0.131 C 
ATOM     33  O   UNL     1       1.550  -2.078 -11.243  0.00  0.00    -0.371 OA
ATOM     34  C   UNL     1       2.149  -0.821 -11.565  0.00  0.00    +0.131 C 
ATOM     35  C   UNL     1       2.281   0.017 -10.293  0.00  0.00    +0.140 C 
ATOM     36  C   UNL     1       3.534  -1.055 -12.172  0.00  0.00    +0.039 C 
ATOM     37  C   UNL     1      -0.337  -3.380 -10.473  0.00  0.00    +0.039 C 
ENDBRANCH  27  30
ENDBRANCH  24  27
ENDBRANCH   2  21
TORSDOF 7
