REMARK  Name = ZINC14643121
REMARK  11 active torsions:
REMARK  status: ('A' for Active; 'I' for Inactive)
REMARK    1  A    between atoms: C_1  and  C_2
REMARK    2  A    between atoms: C_5  and  O_8
REMARK    3  A    between atoms: O_8  and  C_9
REMARK    4  A    between atoms: C_9  and  C_10
REMARK    5  A    between atoms: N_12  and  N_13
REMARK    6  A    between atoms: C_14  and  C_16
REMARK    7  A    between atoms: C_16  and  C_18
REMARK    8  A    between atoms: C_16  and  O_19
REMARK    9  A    between atoms: O_19  and  C_20
REMARK   10  A    between atoms: C_21  and  C_28
REMARK   11  A    between atoms: C_25  and  C_26
REMARK                            x       y       z     vdW  Elec       q    Type
REMARK                         _______ _______ _______ _____ _____    ______ ____
ROOT
ATOM      1  N   UNL     1       3.288  -6.141  -0.702  0.00  0.00    -0.231 N 
ATOM      2  C   UNL     1       4.401  -6.850  -0.428  0.00  0.00    +0.270 C 
ATOM      3  O   UNL     1       5.473  -6.289  -0.346  0.00  0.00    -0.270 OA
ATOM      4  H   UNL     1       2.431  -6.589  -0.768  0.00  0.00    +0.173 HD
ENDROOT
BRANCH   1   7
ATOM      5  C   UNL     1       2.257  -4.045  -1.167  0.00  0.00    +0.267 C 
ATOM      6  O   UNL     1       1.185  -4.606  -1.249  0.00  0.00    -0.271 OA
ATOM      7  N   UNL     1       3.370  -4.755  -0.892  0.00  0.00    -0.231 N 
ATOM      8  H   UNL     1       4.228  -4.306  -0.827  0.00  0.00    +0.173 HD
BRANCH   5   9
ATOM      9  C   UNL     1       2.345  -2.555  -1.371  0.00  0.00    +0.326 C 
BRANCH   9  10
ATOM     10  O   UNL     1       1.044  -2.034  -1.647  0.00  0.00    -0.483 OA
BRANCH  10  15
ATOM     11  C   UNL     1       0.641   3.516  -2.518  0.00  0.00    +0.044 C 
ATOM     12  C   UNL     1       0.749   2.031  -2.285  0.00  0.00    -0.050 A 
ATOM     13  C   UNL     1      -0.383   1.239  -2.344  0.00  0.00    +0.007 A 
ATOM     14  C   UNL     1      -0.287  -0.122  -2.130  0.00  0.00    +0.046 A 
ATOM     15  C   UNL     1       0.946  -0.695  -1.857  0.00  0.00    +0.121 A 
ATOM     16  C   UNL     1       2.081   0.101  -1.800  0.00  0.00    +0.046 A 
ATOM     17  C   UNL     1       1.979   1.462  -2.014  0.00  0.00    +0.007 A 
ENDBRANCH  10  15
ENDBRANCH   9  10
ENDBRANCH   5   9
ENDBRANCH   1   7
BRANCH   2  18
ATOM     18  C   UNL     1       4.313  -8.340  -0.224  0.00  0.00    +0.257 C 
ATOM     19  C   UNL     1       3.384  -8.640   0.955  0.00  0.00    +0.062 C 
BRANCH  18  20
ATOM     20  O   UNL     1       5.615  -8.861   0.052  0.00  0.00    -0.479 OA
BRANCH  20  21
ATOM     21  C   UNL     1       5.857 -10.146  -0.319  0.00  0.00    +0.127 A 
ATOM     22  C   UNL     1       5.731 -11.172   0.606  0.00  0.00    -0.007 A 
ATOM     23  C   UNL     1       5.972 -12.478   0.226  0.00  0.00    +0.022 A 
ATOM     24  C   UNL     1       6.350 -12.762  -1.074  0.00  0.00    +0.019 A 
ATOM     25  C   UNL     1       6.481 -11.740  -1.998  0.00  0.00    +0.022 A 
ATOM     26  C   UNL     1       6.236 -10.433  -1.622  0.00  0.00    -0.007 A 
ATOM     27  C   UNL     1       6.381  -9.320  -2.628  0.00  0.00    +0.047 C 
ATOM     28 BR   UNL     1       6.686 -14.549  -1.591  0.00  0.00    -0.050 Br
ATOM     29  C   UNL     1       5.325 -10.862   2.024  0.00  0.00    +0.047 C 
ENDBRANCH  20  21
ENDBRANCH  18  20
ENDBRANCH   2  18
TORSDOF 7
