REMARK  Name = ZINC63375810
REMARK  9 active torsions:
REMARK  status: ('A' for Active; 'I' for Inactive)
REMARK    1  A    between atoms: C_1  and  C_2
REMARK    2  A    between atoms: C_2  and  C_3
REMARK    3  A    between atoms: C_2  and  C_4
REMARK    4  A    between atoms: C_7  and  C_10
REMARK    5  A    between atoms: N_28  and  C_31
REMARK    6  A    between atoms: C_36  and  C_37
REMARK    7  A    between atoms: N_39  and  C_40
REMARK    8  A    between atoms: C_40  and  C_41
REMARK    9  A    between atoms: C_40  and  C_42
REMARK                            x       y       z     vdW  Elec       q    Type
REMARK                         _______ _______ _______ _____ _____    ______ ____
ROOT
ATOM      1  C   UNL     1      -5.419  -2.005   0.043  0.00  0.00    +0.135 C 
ATOM      2  C   UNL     1      -5.422  -3.502   0.385  0.00  0.00    +0.131 C 
ATOM      3  C   UNL     1      -4.912  -4.240  -0.845  0.00  0.00    -0.034 C 
ATOM      4  C   UNL     1      -3.861  -4.950  -0.446  0.00  0.00    -0.001 A 
ATOM      5  C   UNL     1      -2.996  -5.902  -1.160  0.00  0.00    +0.010 A 
ATOM      6  C   UNL     1      -1.985  -6.452  -0.437  0.00  0.00    +0.001 A 
ATOM      7  C   UNL     1      -1.752  -6.154   0.909  0.00  0.00    +0.002 A 
ATOM      8  C   UNL     1      -2.500  -5.294   1.645  0.00  0.00    +0.026 A 
ATOM      9  C   UNL     1      -3.595  -4.655   0.994  0.00  0.00    +0.043 A 
ATOM     10  N   UNL     1      -4.487  -3.804   1.470  0.00  0.00    -0.375 N 
ATOM     11  C   UNL     1      -5.513  -4.072  -2.222  0.00  0.00    +0.065 C 
ATOM     12  C   UNL     1      -5.533  -2.560  -2.508  0.00  0.00    +0.169 C 
ATOM     13  N   UNL     1      -6.015  -1.869  -1.292  0.00  0.00    -0.264 N 
ATOM     14  C   UNL     1      -7.081  -1.143  -1.653  0.00  0.00    +0.317 C 
ATOM     15  O   UNL     1      -7.649  -0.361  -0.918  0.00  0.00    -0.252 OA
ATOM     16  N   UNL     1      -7.447  -1.380  -2.921  0.00  0.00    -0.192 N 
ATOM     17  C   UNL     1      -6.585  -2.247  -3.549  0.00  0.00    +0.248 C 
ATOM     18  O   UNL     1      -6.646  -2.676  -4.681  0.00  0.00    -0.273 OA
ATOM     19  H   UNL     1      -4.522  -3.438   2.368  0.00  0.00    +0.160 HD
ENDROOT
BRANCH   1  23
ATOM     20  C   UNL     1      -1.413  -0.522   0.010  0.00  0.00    -0.045 A 
ATOM     21  C   UNL     1      -1.817  -1.443  -0.938  0.00  0.00    +0.004 A 
ATOM     22  C   UNL     1      -3.113  -1.923  -0.927  0.00  0.00    +0.006 A 
ATOM     23  C   UNL     1      -4.006  -1.482   0.032  0.00  0.00    -0.025 A 
ATOM     24  C   UNL     1      -3.601  -0.562   0.981  0.00  0.00    +0.006 A 
ATOM     25  C   UNL     1      -2.304  -0.085   0.973  0.00  0.00    +0.004 A 
BRANCH  20  27
ATOM     26  C   UNL     1       0.977  -1.164   0.168  0.00  0.00    +0.012 C 
ATOM     27  C   UNL     1       0.000   0.001  -0.002  0.00  0.00    +0.013 C 
ATOM     28  C   UNL     1       0.272   0.705  -1.333  0.00  0.00    +0.012 C 
ENDBRANCH  20  27
ENDBRANCH   1  23
BRANCH  16  29
ATOM     29  C   UNL     1      -8.564  -0.808  -3.534  0.00  0.00    +0.058 A 
ATOM     30  C   UNL     1      -8.447   0.397  -4.213  0.00  0.00    +0.025 A 
ATOM     31  C   UNL     1      -9.552   0.960  -4.819  0.00  0.00    +0.002 A 
ATOM     32  C   UNL     1     -10.784   0.330  -4.755  0.00  0.00    +0.001 A 
ATOM     33  C   UNL     1     -10.919  -0.867  -4.085  0.00  0.00    +0.015 A 
ATOM     34  C   UNL     1      -9.808  -1.452  -3.472  0.00  0.00    +0.059 A 
BRANCH  34  35
ATOM     35  C   UNL     1      -9.945  -2.736  -2.758  0.00  0.00    +0.246 C 
ATOM     36  O   UNL     1      -8.977  -3.239  -2.222  0.00  0.00    -0.270 OA
ATOM     37  N   UNL     1     -11.143  -3.351  -2.701  0.00  0.00    -0.309 N 
ATOM     38  H   UNL     1     -11.915  -2.950  -3.129  0.00  0.00    +0.149 HD
BRANCH  37  39
ATOM     39  C   UNL     1     -11.278  -4.626  -1.992  0.00  0.00    +0.067 C 
ATOM     40  C   UNL     1     -12.726  -4.803  -1.532  0.00  0.00    +0.027 C 
ATOM     41  C   UNL     1     -10.898  -5.774  -2.930  0.00  0.00    +0.027 C 
ENDBRANCH  37  39
ENDBRANCH  34  35
ENDBRANCH  16  29
TORSDOF 5
