REMARK  Name = ZINC62411477
REMARK  6 active torsions:
REMARK  status: ('A' for Active; 'I' for Inactive)
REMARK    1  A    between atoms: C_1  and  C_2
REMARK    2  A    between atoms: C_2  and  C_3
REMARK    3  A    between atoms: C_2  and  O_4
REMARK    4  A    between atoms: O_4  and  C_5
REMARK    5  A    between atoms: C_5  and  C_6
REMARK    6  A    between atoms: C_10  and  N_12
REMARK                            x       y       z     vdW  Elec       q    Type
REMARK                         _______ _______ _______ _____ _____    ______ ____
ROOT
ATOM      1  N   UNL     1       4.099   0.256  -5.410  0.00  0.00    -0.269 N 
ATOM      2  C   UNL     1       4.786  -0.180  -6.485  0.00  0.00    +0.307 C 
ATOM      3  O   UNL     1       4.919  -1.373  -6.678  0.00  0.00    -0.252 OA
ATOM      4  N   UNL     1       5.325   0.706  -7.346  0.00  0.00    -0.282 N 
ATOM      5  C   UNL     1       5.313   2.096  -6.991  0.00  0.00    +0.113 C 
ATOM      6  C   UNL     1       6.518   2.838  -7.487  0.00  0.00    +0.007 C 
ATOM      7  C   UNL     1       7.818   2.094  -7.227  0.00  0.00    +0.008 C 
ATOM      8  C   UNL     1       8.206   1.118  -8.320  0.00  0.00    -0.009 C 
ATOM      9  C   UNL     1       8.139   1.782  -9.698  0.00  0.00    +0.007 C 
ATOM     10  C   UNL     1       6.700   2.260  -9.901  0.00  0.00    -0.009 C 
ATOM     11  C   UNL     1       6.415   3.369  -8.888  0.00  0.00    +0.008 C 
ATOM     12  C   UNL     1       5.711   1.125  -9.766  0.00  0.00    +0.026 C 
ATOM     13  C   UNL     1       5.894   0.207  -8.585  0.00  0.00    +0.078 C 
ATOM     14  C   UNL     1       7.357  -0.144  -8.341  0.00  0.00    +0.026 C 
ATOM     15  H   UNL     1       3.886   1.198  -5.321  0.00  0.00    +0.156 HD
ENDROOT
BRANCH   1  20
ATOM     16  C   UNL     1       3.052  -1.103  -2.158  0.00  0.00    -0.020 A 
ATOM     17  C   UNL     1       2.894  -2.441  -2.472  0.00  0.00    +0.006 A 
ATOM     18  C   UNL     1       3.135  -2.885  -3.759  0.00  0.00    +0.002 A 
ATOM     19  C   UNL     1       3.535  -1.993  -4.736  0.00  0.00    +0.023 A 
ATOM     20  C   UNL     1       3.695  -0.649  -4.423  0.00  0.00    +0.035 A 
ATOM     21  C   UNL     1       3.446  -0.205  -3.131  0.00  0.00    +0.029 A 
BRANCH  16  22
ATOM     22  C   UNL     1       2.788  -0.623  -0.754  0.00  0.00    +0.195 C 
BRANCH  22  23
ATOM     23  O   UNL     1       1.414  -0.250  -0.629  0.00  0.00    -0.373 OA
BRANCH  23  25
ATOM     24  C   UNL     1       1.258   1.737   0.737  0.00  0.00    +0.037 C 
ATOM     25  C   UNL     1       1.056   0.222   0.672  0.00  0.00    +0.113 C 
ATOM     26  C   UNL     1      -0.411  -0.110   0.949  0.00  0.00    +0.037 C 
ENDBRANCH  23  25
ENDBRANCH  22  23
ENDBRANCH  16  22
ENDBRANCH   1  20
TORSDOF 4
