REMARK  Name = ZINC36122268
REMARK  17 active torsions:
REMARK  status: ('A' for Active; 'I' for Inactive)
REMARK    1  A    between atoms: C_1  and  C_2
REMARK    2  A    between atoms: C_2  and  C_3
REMARK    3  A    between atoms: C_3  and  C_5
REMARK    4  A    between atoms: C_3  and  C_6
REMARK    5  A    between atoms: C_6  and  N_7
REMARK    6  A    between atoms: N_7  and  C_8
REMARK    7  A    between atoms: C_8  and  C_9
REMARK    8  A    between atoms: C_19  and  C_21
REMARK    9  A    between atoms: C_21  and  O_22
REMARK   10  A    between atoms: O_22  and  C_23
REMARK   11  A    between atoms: C_26  and  C_29
REMARK   12  A    between atoms: C_29  and  C_30
REMARK   13  A    between atoms: C_29  and  C_31
REMARK   14  A    between atoms: N_34  and  C_35
REMARK   15  A    between atoms: C_35  and  C_36
REMARK   16  A    between atoms: C_35  and  C_37
REMARK   17  A    between atoms: C_35  and  C_38
REMARK                            x       y       z     vdW  Elec       q    Type
REMARK                         _______ _______ _______ _____ _____    ______ ____
ROOT
ATOM      1  C   UNL     1       2.841  -4.265  -2.330  0.00  0.00    +0.234 C 
ATOM      2  O   UNL     1       1.888  -4.963  -2.055  0.00  0.00    -0.274 OA
ATOM      3  N   UNL     1       4.082  -4.791  -2.336  0.00  0.00    -0.289 N 
ATOM      4  C   UNL     1       5.245  -3.952  -2.663  0.00  0.00    +0.114 C 
ATOM      5  C   UNL     1       6.138  -3.859  -1.416  0.00  0.00    +0.061 C 
ATOM      6  C   UNL     1       6.240  -5.215  -0.797  0.00  0.00    -0.004 A 
ATOM      7  C   UNL     1       5.446  -6.297  -1.018  0.00  0.00    -0.014 A 
ATOM      8  C   UNL     1       5.749  -7.453  -0.301  0.00  0.00    +0.013 A 
ATOM      9  C   UNL     1       6.793  -7.462   0.558  0.00  0.00    +0.046 A 
ATOM     10  S   UNL     1       7.417  -5.795   0.396  0.00  0.00    -0.101 S 
ATOM     11  C   UNL     1       4.293  -6.208  -2.010  0.00  0.00    +0.144 C 
ENDROOT
BRANCH   1  12
ATOM     12  C   UNL     1       2.637  -2.810  -2.667  0.00  0.00    +0.205 C 
BRANCH  12  13
ATOM     13  N   UNL     1       1.210  -2.487  -2.591  0.00  0.00    -0.277 N 
ATOM     14  C   UNL     1       0.432  -2.616  -3.684  0.00  0.00    +0.303 C 
ATOM     15  O   UNL     1       0.913  -3.001  -4.732  0.00  0.00    -0.253 OA
ATOM     16  N   UNL     1      -0.881  -2.318  -3.614  0.00  0.00    -0.294 N 
ATOM     17  H   UNL     1      -1.265  -2.011  -2.778  0.00  0.00    +0.151 HD
BRANCH  16  18
ATOM     18  C   UNL     1      -1.728  -2.458  -4.801  0.00  0.00    +0.028 C 
ATOM     19  C   UNL     1      -1.703  -3.913  -5.277  0.00  0.00    +0.031 C 
ATOM     20  C   UNL     1      -3.163  -2.060  -4.454  0.00  0.00    +0.031 C 
ATOM     21  C   UNL     1      -1.201  -1.550  -5.914  0.00  0.00    +0.031 C 
ENDBRANCH  16  18
BRANCH  13  22
ATOM     22  C   UNL     1       0.630  -2.023  -1.329  0.00  0.00    +0.113 C 
BRANCH  22  23
ATOM     23  C   UNL     1       0.718  -0.497  -1.257  0.00  0.00    +0.003 C 
ATOM     24  C   UNL     1       2.187  -0.073  -1.207  0.00  0.00    +0.009 C 
BRANCH  23  26
ATOM     25  C   UNL     1      -0.019   1.526   0.010  0.00  0.00    +0.004 C 
ATOM     26  C   UNL     1       0.002  -0.004   0.002  0.00  0.00    +0.001 C 
ENDBRANCH  23  26
ENDBRANCH  22  23
ENDBRANCH  13  22
ENDBRANCH  12  13
ENDBRANCH   1  12
BRANCH  11  27
ATOM     27  C   UNL     1       4.645  -6.985  -3.279  0.00  0.00    +0.256 C 
BRANCH  27  28
ATOM     28  O   UNL     1       5.901  -6.527  -3.785  0.00  0.00    -0.490 OA
BRANCH  28  29
ATOM     29  C   UNL     1       6.363  -7.119  -4.918  0.00  0.00    +0.121 A 
ATOM     30  C   UNL     1       5.620  -8.116  -5.533  0.00  0.00    +0.046 A 
ATOM     31  C   UNL     1       6.092  -8.716  -6.685  0.00  0.00    +0.007 A 
ATOM     32  C   UNL     1       7.303  -8.323  -7.224  0.00  0.00    -0.045 A 
ATOM     33  C   UNL     1       8.045  -7.330  -6.612  0.00  0.00    +0.007 A 
ATOM     34  C   UNL     1       7.575  -6.723  -5.464  0.00  0.00    +0.046 A 
BRANCH  32  35
ATOM     35  C   UNL     1       7.815  -8.980  -8.480  0.00  0.00    +0.013 C 
ATOM     36  C   UNL     1       7.991  -7.923  -9.572  0.00  0.00    +0.012 C 
ATOM     37  C   UNL     1       9.162  -9.646  -8.194  0.00  0.00    +0.012 C 
ENDBRANCH  32  35
ENDBRANCH  28  29
ENDBRANCH  27  28
ENDBRANCH  11  27
TORSDOF 10
