REMARK  Name = ZINC38872958
REMARK  8 active torsions:
REMARK  status: ('A' for Active; 'I' for Inactive)
REMARK    1  A    between atoms: C_4  and  S_27
REMARK    2  A    between atoms: C_5  and  N_7
REMARK    3  A    between atoms: C_8  and  C_10
REMARK    4  A    between atoms: N_13  and  C_16
REMARK    5  A    between atoms: C_16  and  C_17
REMARK    6  A    between atoms: C_19  and  C_22
REMARK    7  A    between atoms: S_27  and  C_28
REMARK    8  A    between atoms: C_28  and  C_29
REMARK                            x       y       z     vdW  Elec       q    Type
REMARK                         _______ _______ _______ _____ _____    ______ ____
ROOT
ATOM      1  N   UNL     1       1.233  -2.082  -0.021  0.00  0.00    -0.284 N 
ATOM      2  C   UNL     1       0.082  -2.774   0.088  0.00  0.00    +0.220 C 
ATOM      3  O   UNL     1      -0.980  -2.187   0.102  0.00  0.00    -0.275 OA
ATOM      4  H   UNL     1       2.076  -2.554  -0.113  0.00  0.00    +0.155 HD
ENDROOT
BRANCH   2   5
ATOM      5  C   UNL     1       0.113  -4.277   0.194  0.00  0.00    +0.072 C 
ATOM      6  C   UNL     1       0.770  -4.865  -1.059  0.00  0.00    -0.006 C 
ATOM      7  C   UNL     1       0.727  -6.392  -0.982  0.00  0.00    -0.077 C 
ATOM      8  N   UNL     1      -0.667  -6.843  -0.902  0.00  0.00    +0.386 N 
ATOM      9  C   UNL     1      -1.283  -6.342   0.333  0.00  0.00    -0.077 C 
ATOM     10  C   UNL     1      -1.317  -4.813   0.307  0.00  0.00    -0.006 C 
ATOM     11  H   UNL     1      -1.179  -6.492  -1.698  0.00  0.00    -0.081 HD
BRANCH   8  12
ATOM     12  C   UNL     1      -0.707  -8.311  -0.907  0.00  0.00    +0.022 C 
BRANCH  12  13
ATOM     13  C   UNL     1      -2.141  -8.775  -0.949  0.00  0.00    +0.211 A 
ATOM     14  N   UNL     1      -2.832  -9.011  -2.027  0.00  0.00    -0.192 NA
ATOM     15  C   UNL     1      -4.076  -9.409  -1.699  0.00  0.00    +0.209 A 
ATOM     16  N   UNL     1      -4.178  -9.426  -0.390  0.00  0.00    -0.056 NA
ATOM     17  O   UNL     1      -2.915  -9.018   0.116  0.00  0.00    -0.340 OA
BRANCH  15  18
ATOM     18  C   UNL     1      -5.147  -9.766  -2.652  0.00  0.00    +0.060 A 
ATOM     19  C   UNL     1      -6.430 -10.171  -2.397  0.00  0.00    +0.019 A 
ATOM     20  C   UNL     1      -7.259 -10.453  -3.458  0.00  0.00    +0.008 A 
ATOM     21  C   UNL     1      -6.783 -10.320  -4.724  0.00  0.00    +0.046 A 
ATOM     22  S   UNL     1      -5.107  -9.774  -4.437  0.00  0.00    -0.093 S 
ENDBRANCH  15  18
ENDBRANCH  12  13
ENDBRANCH   8  12
ENDBRANCH   2   5
BRANCH   1  27
ATOM     23  C   UNL     1       0.153   1.373   0.636  0.00  0.00    +0.002 A 
ATOM     24  C   UNL     1       1.172   2.090   0.036  0.00  0.00    +0.001 A 
ATOM     25  C   UNL     1       2.215   1.429  -0.586  0.00  0.00    +0.016 A 
ATOM     26  C   UNL     1       2.241   0.042  -0.608  0.00  0.00    +0.029 A 
ATOM     27  C   UNL     1       1.213  -0.681  -0.002  0.00  0.00    +0.047 A 
ATOM     28  C   UNL     1       0.171  -0.009   0.619  0.00  0.00    +0.024 A 
BRANCH  26  29
ATOM     29  S   UNL     1       3.568  -0.804  -1.400  0.00  0.00    -0.119 S 
BRANCH  29  30
ATOM     30  C   UNL     1       4.629   0.529  -2.023  0.00  0.00    +0.109 C 
BRANCH  30  31
ATOM     31  C   UNL     1       5.818  -0.066  -2.732  0.00  0.00    -0.037 A 
ATOM     32  C   UNL     1       6.973  -0.348  -2.027  0.00  0.00    +0.006 A 
ATOM     33  C   UNL     1       8.064  -0.893  -2.677  0.00  0.00    +0.020 A 
ATOM     34  C   UNL     1       8.001  -1.156  -4.034  0.00  0.00    +0.041 A 
ATOM     35  C   UNL     1       6.845  -0.873  -4.739  0.00  0.00    +0.020 A 
ATOM     36  C   UNL     1       5.753  -0.333  -4.087  0.00  0.00    +0.006 A 
ATOM     37 CL   UNL     1       9.372  -1.840  -4.851  0.00  0.00    -0.084 Cl
ENDBRANCH  30  31
ENDBRANCH  29  30
ENDBRANCH  26  29
ENDBRANCH   1  27
TORSDOF 8
