REMARK  Name = ZINC12501236
REMARK  10 active torsions:
REMARK  status: ('A' for Active; 'I' for Inactive)
REMARK    1  A    between atoms: C_4  and  N_28
REMARK    2  A    between atoms: C_5  and  C_7
REMARK    3  A    between atoms: N_9  and  C_10
REMARK    4  A    between atoms: C_10  and  N_12
REMARK    5  A    between atoms: N_12  and  N_13
REMARK    6  A    between atoms: C_14  and  C_16
REMARK    7  A    between atoms: C_16  and  C_17
REMARK    8  A    between atoms: C_17  and  C_18
REMARK    9  A    between atoms: C_18  and  O_19
REMARK   10  A    between atoms: O_19  and  C_20
REMARK                            x       y       z     vdW  Elec       q    Type
REMARK                         _______ _______ _______ _____ _____    ______ ____
ROOT
ATOM      1  N   UNL     1      -0.030  -5.188   0.377  0.00  0.00    -0.246 N 
ATOM      2  H   UNL     1       0.156  -6.138   0.431  0.00  0.00    +0.172 HD
ENDROOT
BRANCH   1   3
ATOM      3  N   UNL     1      -1.355  -4.731   0.378  0.00  0.00    -0.235 N 
ATOM      4  C   UNL     1      -2.371  -5.613   0.452  0.00  0.00    +0.229 C 
ATOM      5  O   UNL     1      -2.139  -6.802   0.519  0.00  0.00    -0.274 OA
ATOM      6  H   UNL     1      -1.540  -3.781   0.324  0.00  0.00    +0.173 HD
BRANCH   4   7
ATOM      7  C   UNL     1      -3.796  -5.122   0.453  0.00  0.00    +0.100 C 
BRANCH   7   8
ATOM      8  C   UNL     1      -4.747  -6.317   0.545  0.00  0.00    +0.050 C 
BRANCH   8   9
ATOM      9  C   UNL     1      -6.194  -5.819   0.546  0.00  0.00    +0.229 C 
BRANCH   9  10
ATOM     10  O   UNL     1      -7.082  -6.935   0.632  0.00  0.00    -0.490 OA
BRANCH  10  11
ATOM     11  C   UNL     1      -8.414  -6.664   0.644  0.00  0.00    +0.139 A 
ATOM     12  C   UNL     1      -8.856  -5.352   0.568  0.00  0.00    +0.048 A 
ATOM     13  C   UNL     1     -10.210  -5.078   0.580  0.00  0.00    +0.023 A 
ATOM     14  C   UNL     1     -11.126  -6.112   0.668  0.00  0.00    +0.043 A 
ATOM     15  C   UNL     1     -10.687  -7.422   0.744  0.00  0.00    +0.043 A 
ATOM     16  C   UNL     1      -9.333  -7.701   0.726  0.00  0.00    +0.084 A 
ATOM     17 CL   UNL     1      -8.783  -9.345   0.814  0.00  0.00    -0.080 Cl
ATOM     18 CL   UNL     1     -12.827  -5.766   0.683  0.00  0.00    -0.083 Cl
ENDBRANCH  10  11
ENDBRANCH   9  10
ENDBRANCH   8   9
ENDBRANCH   7   8
ENDBRANCH   4   7
ENDBRANCH   1   3
BRANCH   1  19
ATOM     19  C   UNL     1       0.987  -4.306   0.302  0.00  0.00    +0.153 C 
ATOM     20  S   UNL     1       2.605  -4.863   0.302  0.00  0.00    -0.017 S 
BRANCH  19  23
ATOM     21  C   UNL     1       1.745  -2.103   0.153  0.00  0.00    +0.252 C 
ATOM     22  O   UNL     1       2.894  -2.499   0.153  0.00  0.00    -0.270 OA
ATOM     23  N   UNL     1       0.729  -2.985   0.228  0.00  0.00    -0.263 N 
ATOM     24  H   UNL     1      -0.188  -2.669   0.228  0.00  0.00    +0.157 HD
BRANCH  21  29
ATOM     25  C   UNL     1       0.408   1.312   0.959  0.00  0.00    +0.001 A 
ATOM     26  C   UNL     1       0.932   2.059  -0.082  0.00  0.00    +0.002 A 
ATOM     27  C   UNL     1       1.719   1.456  -1.046  0.00  0.00    +0.033 A 
ATOM     28  C   UNL     1       1.987   0.104  -0.976  0.00  0.00    +0.138 A 
ATOM     29  C   UNL     1       1.462  -0.655   0.072  0.00  0.00    +0.067 A 
ATOM     30  C   UNL     1       0.668  -0.040   1.042  0.00  0.00    +0.015 A 
BRANCH  28  31
ATOM     31  N   UNL     1       2.829  -0.540  -2.009  0.00  0.00    +0.057 N 
ATOM     32  O   UNL     1       3.381   0.135  -2.846  0.00  0.00    -0.126 OA
ATOM     33  O   UNL     1       2.966  -1.741  -2.015  0.00  0.00    -0.126 OA
ENDBRANCH  28  31
ENDBRANCH  21  29
ENDBRANCH  19  23
ENDBRANCH   1  19
TORSDOF 10
