REMARK  Name = ZINC01176882
REMARK  7 active torsions:
REMARK  status: ('A' for Active; 'I' for Inactive)
REMARK    1  A    between atoms: C_1  and  C_2
REMARK    2  A    between atoms: C_2  and  C_4
REMARK    3  A    between atoms: C_7  and  N_10
REMARK    4  A    between atoms: C_11  and  C_13
REMARK    5  A    between atoms: C_13  and  C_14
REMARK    6  A    between atoms: C_14  and  N_15
REMARK    7  A    between atoms: C_19  and  C_20
REMARK                            x       y       z     vdW  Elec       q    Type
REMARK                         _______ _______ _______ _____ _____    ______ ____
ROOT
ATOM      1  N   UNL     1      -6.747   9.502   0.815  0.00  0.00    -0.255 N 
ATOM      2  C   UNL     1      -7.441   9.301   1.922  0.00  0.00    +0.258 C 
ATOM      3  O   UNL     1      -6.921   8.864   2.933  0.00  0.00    -0.269 OA
ATOM      4  C   UNL     1      -8.879   9.633   1.871  0.00  0.00    +0.077 C 
ATOM      5  C   UNL     1      -9.825   9.531   2.839  0.00  0.00    +0.028 C 
ATOM      6  S   UNL     1      -9.031  10.204   0.184  0.00  0.00    -0.061 S 
ATOM      7  C   UNL     1      -7.326   9.990  -0.301  0.00  0.00    +0.121 C 
ATOM      8  S   UNL     1      -6.601  10.322  -1.816  0.00  0.00    -0.027 S 
ENDROOT
BRANCH   5   9
ATOM      9  C   UNL     1     -11.143  10.150   2.645  0.00  0.00    -0.020 A 
ATOM     10  C   UNL     1     -11.360  11.017   1.567  0.00  0.00    +0.012 A 
ATOM     11  C   UNL     1     -12.599  11.591   1.385  0.00  0.00    +0.050 A 
ATOM     12  C   UNL     1     -13.632  11.322   2.273  0.00  0.00    +0.166 A 
ATOM     13  C   UNL     1     -13.422  10.463   3.353  0.00  0.00    +0.167 A 
ATOM     14  C   UNL     1     -12.185   9.879   3.540  0.00  0.00    +0.057 A 
ATOM     15  O   UNL     1     -14.583  10.367   4.066  0.00  0.00    -0.453 OA
ATOM     16  C   UNL     1     -15.382  11.490   3.650  0.00  0.00    +0.466 C 
ATOM     17  O   UNL     1     -14.923  11.761   2.312  0.00  0.00    -0.453 OA
ENDBRANCH   5   9
BRANCH   1  18
ATOM     18  C   UNL     1      -5.315   9.192   0.801  0.00  0.00    +0.124 C 
BRANCH  18  19
ATOM     19  C   UNL     1      -5.112   7.739   0.368  0.00  0.00    +0.115 C 
BRANCH  19  21
ATOM     20  N   UNL     1      -3.219   6.189   0.001  0.00  0.00    -0.285 N 
ATOM     21  C   UNL     1      -3.639   7.420   0.354  0.00  0.00    +0.219 C 
ATOM     22  O   UNL     1      -2.831   8.271   0.661  0.00  0.00    -0.275 OA
ATOM     23  H   UNL     1      -3.859   5.528  -0.307  0.00  0.00    +0.155 HD
BRANCH  20  27
ATOM     24  C   UNL     1       0.821   5.223   0.230  0.00  0.00    +0.017 A 
ATOM     25  C   UNL     1       0.006   4.611  -0.731  0.00  0.00    +0.013 A 
ATOM     26  C   UNL     1      -1.326   4.929  -0.799  0.00  0.00    +0.024 A 
ATOM     27  C   UNL     1      -1.866   5.865   0.078  0.00  0.00    +0.033 A 
ATOM     28  C   UNL     1      -1.059   6.480   1.031  0.00  0.00    +0.024 A 
ATOM     29  C   UNL     1       0.273   6.165   1.110  0.00  0.00    +0.013 A 
BRANCH  24  31
ATOM     30  C   UNL     1       2.833   3.864  -0.632  0.00  0.00    +0.091 C 
ATOM     31  C   UNL     1       2.247   4.882   0.311  0.00  0.00    +0.160 C 
ATOM     32  O   UNL     1       2.952   5.417   1.141  0.00  0.00    -0.292 OA
ENDBRANCH  24  31
ENDBRANCH  20  27
ENDBRANCH  19  21
ENDBRANCH  18  19
ENDBRANCH   1  18
TORSDOF 6
