REMARK  Name = ZINC47809229
REMARK  8 active torsions:
REMARK  status: ('A' for Active; 'I' for Inactive)
REMARK    1  A    between atoms: C_1  and  C_2
REMARK    2  A    between atoms: N_5  and  C_11
REMARK    3  A    between atoms: C_7  and  C_10
REMARK    4  A    between atoms: C_16  and  N_17
REMARK    5  A    between atoms: N_20  and  C_21
REMARK    6  A    between atoms: N_20  and  C_22
REMARK    7  A    between atoms: C_22  and  C_24
REMARK    8  A    between atoms: C_22  and  C_25
REMARK                            x       y       z     vdW  Elec       q    Type
REMARK                         _______ _______ _______ _____ _____    ______ ____
ROOT
ATOM      1  C   UNL     1       2.814   0.534  -2.200  0.00  0.00    +0.051 A 
ATOM      2  C   UNL     1       2.849   1.920  -2.238  0.00  0.00    +0.025 A 
ATOM      3  C   UNL     1       3.498   2.567  -3.273  0.00  0.00    +0.002 A 
ATOM      4  C   UNL     1       4.114   1.836  -4.272  0.00  0.00    +0.002 A 
ATOM      5  C   UNL     1       4.084   0.454  -4.242  0.00  0.00    +0.025 A 
ATOM      6  C   UNL     1       3.441  -0.203  -3.204  0.00  0.00    +0.056 A 
ENDROOT
BRANCH   1  10
ATOM      7  C   UNL     1       0.011   1.556   0.012  0.00  0.00    +0.039 C 
ATOM      8  C   UNL     1       0.018   0.026   0.004  0.00  0.00    +0.133 C 
ATOM      9  C   UNL     1       0.733  -0.476  -1.256  0.00  0.00    +0.136 C 
ATOM     10  N   UNL     1       2.158  -0.123  -1.153  0.00  0.00    -0.324 N 
ATOM     11  C   UNL     1       2.872  -0.482   0.082  0.00  0.00    +0.136 C 
ATOM     12  C   UNL     1       2.053   0.021   1.277  0.00  0.00    +0.133 C 
ATOM     13  O   UNL     1       0.709  -0.454   1.160  0.00  0.00    -0.371 OA
ATOM     14  C   UNL     1       2.670  -0.504   2.575  0.00  0.00    +0.039 C 
ENDBRANCH   1  10
BRANCH   6  15
ATOM     15  N   UNL     1       3.415  -1.605  -3.168  0.00  0.00    -0.268 N 
ATOM     16  C   UNL     1       3.343  -2.307  -4.316  0.00  0.00    +0.307 C 
ATOM     17  O   UNL     1       3.382  -1.730  -5.386  0.00  0.00    -0.252 OA
ATOM     18  N   UNL     1       3.228  -3.649  -4.279  0.00  0.00    -0.281 N 
ATOM     19  C   UNL     1       3.181  -4.345  -2.990  0.00  0.00    +0.134 C 
ATOM     20  H   UNL     1       3.449  -2.068  -2.317  0.00  0.00    +0.156 HD
BRANCH  18  21
ATOM     21  C   UNL     1       3.150  -4.413  -5.527  0.00  0.00    +0.111 C 
ATOM     22  C   UNL     1       4.318  -5.398  -5.596  0.00  0.00    +0.034 C 
BRANCH  21  23
ATOM     23  C   UNL     1       1.849  -5.173  -5.570  0.00  0.00    +0.010 A 
ATOM     24  C   UNL     1       1.018  -5.383  -6.620  0.00  0.00    +0.013 A 
ATOM     25  C   UNL     1      -0.135  -6.120  -6.425  0.00  0.00    +0.008 A 
ATOM     26  C   UNL     1      -0.401  -6.611  -5.189  0.00  0.00    +0.045 A 
ATOM     27  S   UNL     1       1.006  -6.035  -4.253  0.00  0.00    -0.100 S 
ENDBRANCH  21  23
ENDBRANCH  18  21
ENDBRANCH   6  15
TORSDOF 4
