REMARK  Name = ZINC10264057
REMARK  11 active torsions:
REMARK  status: ('A' for Active; 'I' for Inactive)
REMARK    1  A    between atoms: C_1  and  C_2
REMARK    2  A    between atoms: C_5  and  C_8
REMARK    3  A    between atoms: C_11  and  S_14
REMARK    4  A    between atoms: N_12  and  C_13
REMARK    5  A    between atoms: S_14  and  C_15
REMARK    6  A    between atoms: C_15  and  C_16
REMARK    7  A    between atoms: N_18  and  C_19
REMARK    8  A    between atoms: N_18  and  C_20
REMARK    9  A    between atoms: C_21  and  N_36
REMARK   10  A    between atoms: N_22  and  C_29
REMARK   11  A    between atoms: C_29  and  C_30
REMARK                            x       y       z     vdW  Elec       q    Type
REMARK                         _______ _______ _______ _____ _____    ______ ____
ROOT
ATOM      1  C   UNL     1       3.335   4.055   0.609  0.00  0.00    +0.230 C 
ATOM      2  O   UNL     1       3.207   2.848   0.611  0.00  0.00    -0.274 OA
ATOM      3  N   UNL     1       2.247   4.849   0.675  0.00  0.00    -0.267 N 
ATOM      4  C   UNL     1       2.392   6.303   0.560  0.00  0.00    +0.138 C 
ENDROOT
BRANCH   3   5
ATOM      5  C   UNL     1       0.968   4.281   0.856  0.00  0.00    +0.139 A 
ATOM      6  C   UNL     1       0.021   4.352  -0.145  0.00  0.00    +0.128 A 
ATOM      7  N   UNL     1      -1.217   3.788   0.060  0.00  0.00    -0.276 N 
ATOM      8  C   UNL     1      -1.499   3.169   1.221  0.00  0.00    +0.331 A 
ATOM      9  O   UNL     1      -2.597   2.673   1.381  0.00  0.00    -0.246 OA
ATOM     10  N   UNL     1      -0.590   3.095   2.209  0.00  0.00    -0.273 N 
ATOM     11  H   UNL     1      -0.828   2.636   3.065  0.00  0.00    +0.173 HD
ATOM     12  C   UNL     1       0.637   3.631   2.059  0.00  0.00    +0.277 A 
ATOM     13  O   UNL     1       1.455   3.554   2.960  0.00  0.00    -0.266 OA
BRANCH   6  14
ATOM     14  N   UNL     1       0.310   4.980  -1.333  0.00  0.00    -0.343 N 
ATOM     15  H   UNL     1       1.213   5.286  -1.513  0.00  0.00    +0.144 HD
ATOM     16  H   UNL     1      -0.388   5.117  -1.992  0.00  0.00    +0.144 HD
ENDBRANCH   6  14
BRANCH   7  17
ATOM     17  C   UNL     1      -2.232   3.856  -0.994  0.00  0.00    +0.163 C 
BRANCH  17  18
ATOM     18  C   UNL     1      -2.108   2.650  -1.890  0.00  0.00    -0.028 A 
ATOM     19  C   UNL     1      -1.290   2.697  -3.003  0.00  0.00    +0.005 A 
ATOM     20  C   UNL     1      -1.173   1.590  -3.822  0.00  0.00    +0.000 A 
ATOM     21  C   UNL     1      -1.882   0.439  -3.533  0.00  0.00    +0.000 A 
ATOM     22  C   UNL     1      -2.704   0.394  -2.423  0.00  0.00    +0.000 A 
ATOM     23  C   UNL     1      -2.818   1.500  -1.601  0.00  0.00    +0.005 A 
ENDBRANCH  17  18
ENDBRANCH   7  17
ENDBRANCH   3   5
BRANCH   1  24
ATOM     24  C   UNL     1       4.710   4.666   0.532  0.00  0.00    +0.173 C 
BRANCH  24  25
ATOM     25  S   UNL     1       5.952   3.350   0.455  0.00  0.00    -0.077 S 
BRANCH  25  29
ATOM     26  C   UNL     1       9.505   4.963   0.257  0.00  0.00    +0.165 A 
ATOM     27  N   UNL     1       8.716   6.011   0.307  0.00  0.00    -0.128 NA
ATOM     28  N   UNL     1       7.489   5.633   0.371  0.00  0.00    -0.122 NA
ATOM     29  C   UNL     1       7.420   4.320   0.375  0.00  0.00    +0.192 A 
ATOM     30  N   UNL     1       8.700   3.848   0.299  0.00  0.00    -0.305 N 
ATOM     31  C   UNL     1       9.126   2.447   0.269  0.00  0.00    +0.153 C 
BRANCH  26  36
ATOM     32  C   UNL     1      15.250   5.021  -0.076  0.00  0.00    +0.044 C 
ATOM     33  C   UNL     1      13.745   5.006   0.011  0.00  0.00    -0.050 A 
ATOM     34  C   UNL     1      13.048   3.857  -0.318  0.00  0.00    +0.004 A 
ATOM     35  C   UNL     1      11.671   3.837  -0.241  0.00  0.00    +0.012 A 
ATOM     36  C   UNL     1      10.981   4.978   0.172  0.00  0.00    +0.019 A 
ATOM     37  C   UNL     1      11.690   6.135   0.497  0.00  0.00    +0.012 A 
ATOM     38  C   UNL     1      13.068   6.141   0.420  0.00  0.00    +0.004 A 
ENDBRANCH  26  36
ENDBRANCH  25  29
ENDBRANCH  24  25
ENDBRANCH   1  24
TORSDOF 8
