REMARK  Name = ZINC15144238
REMARK  10 active torsions:
REMARK  status: ('A' for Active; 'I' for Inactive)
REMARK    1  A    between atoms: C_1  and  C_2
REMARK    2  A    between atoms: C_2  and  C_4
REMARK    3  A    between atoms: C_2  and  N_18
REMARK    4  A    between atoms: N_6  and  C_7
REMARK    5  A    between atoms: C_8  and  C_15
REMARK    6  A    between atoms: N_18  and  C_19
REMARK    7  A    between atoms: N_18  and  C_20
REMARK    8  A    between atoms: C_20  and  C_21
REMARK    9  A    between atoms: C_24  and  O_27
REMARK   10  A    between atoms: O_27  and  C_28
REMARK                            x       y       z     vdW  Elec       q    Type
REMARK                         _______ _______ _______ _____ _____    ______ ____
ROOT
ATOM      1  C   UNL     1       0.845  -0.555   1.147  0.00  0.00    +0.204 C 
ATOM      2  O   UNL     1       1.766  -1.311   0.922  0.00  0.00    -0.277 OA
ATOM      3  N   UNL     1       0.557  -0.202   2.416  0.00  0.00    -0.281 N 
ATOM      4  H   UNL     1      -0.179   0.403   2.595  0.00  0.00    +0.155 HD
ENDROOT
BRANCH   3   5
ATOM      5  C   UNL     1       1.314  -0.704   3.464  0.00  0.00    +0.084 A 
ATOM      6  C   UNL     1       1.161  -0.459   4.816  0.00  0.00    +0.068 A 
ATOM      7  C   UNL     1       2.098  -1.117   5.725  0.00  0.00    -0.023 A 
ATOM      8  C   UNL     1       3.008  -1.893   5.109  0.00  0.00    -0.004 A 
ATOM      9  S   UNL     1       2.619  -1.754   3.383  0.00  0.00    -0.077 S 
ATOM     10  C   UNL     1       3.947  -2.541   6.089  0.00  0.00    +0.043 C 
ATOM     11  C   UNL     1       3.774  -1.729   7.392  0.00  0.00    +0.010 C 
ATOM     12  C   UNL     1       2.343  -1.177   7.232  0.00  0.00    +0.037 C 
BRANCH   6  13
ATOM     13  C   UNL     1       0.104   0.425   5.317  0.00  0.00    +0.244 C 
ATOM     14  O   UNL     1      -0.987  -0.032   5.601  0.00  0.00    -0.270 OA
ATOM     15  N   UNL     1       0.342   1.744   5.462  0.00  0.00    -0.325 N 
ATOM     16  H   UNL     1       1.212   2.108   5.236  0.00  0.00    +0.145 HD
ATOM     17  H   UNL     1      -0.358   2.329   5.794  0.00  0.00    +0.145 HD
ENDBRANCH   6  13
ENDBRANCH   3   5
BRANCH   1  19
ATOM     18  C   UNL     1       0.608   1.329  -0.448  0.00  0.00    -0.004 C 
ATOM     19  C   UNL     1       0.023  -0.009   0.008  0.00  0.00    +0.016 C 
BRANCH  19  20
ATOM     20  N   UNL     1       0.046  -0.960  -1.111  0.00  0.00    +0.388 N 
ATOM     21  C   UNL     1      -0.573  -2.225  -0.692  0.00  0.00    -0.095 C 
ATOM     22  H   UNL     1       1.001  -1.129  -1.390  0.00  0.00    -0.081 HD
BRANCH  20  23
ATOM     23  C   UNL     1      -0.703  -0.401  -2.245  0.00  0.00    -0.042 C 
BRANCH  23  24
ATOM     24  C   UNL     1      -0.577  -1.319  -3.433  0.00  0.00    -0.064 A 
ATOM     25  C   UNL     1       0.463  -1.151  -4.328  0.00  0.00    +0.005 A 
ATOM     26  C   UNL     1       0.580  -1.991  -5.418  0.00  0.00    +0.046 A 
ATOM     27  C   UNL     1      -0.347  -3.005  -5.614  0.00  0.00    +0.120 A 
ATOM     28  C   UNL     1      -1.389  -3.172  -4.714  0.00  0.00    +0.046 A 
ATOM     29  C   UNL     1      -1.499  -2.333  -3.622  0.00  0.00    +0.005 A 
BRANCH  27  30
ATOM     30  O   UNL     1      -0.234  -3.833  -6.686  0.00  0.00    -0.495 OA
ATOM     31  C   UNL     1      -1.224  -4.854  -6.824  0.00  0.00    +0.277 C 
ENDBRANCH  27  30
ENDBRANCH  23  24
ENDBRANCH  20  23
ENDBRANCH  19  20
ENDBRANCH   1  19
TORSDOF 7
