REMARK  Name = ZINC35747666
REMARK  14 active torsions:
REMARK  status: ('A' for Active; 'I' for Inactive)
REMARK    1  A    between atoms: C_1  and  C_2
REMARK    2  A    between atoms: C_5  and  C_9
REMARK    3  A    between atoms: C_6  and  C_8
REMARK    4  A    between atoms: C_18  and  C_20
REMARK    5  A    between atoms: C_20  and  N_21
REMARK    6  A    between atoms: N_21  and  C_22
REMARK    7  A    between atoms: N_21  and  C_28
REMARK    8  A    between atoms: C_22  and  C_23
REMARK    9  A    between atoms: C_28  and  C_29
REMARK   10  A    between atoms: C_29  and  C_31
REMARK   11  A    between atoms: C_29  and  O_40
REMARK   12  A    between atoms: C_31  and  O_32
REMARK   13  A    between atoms: O_32  and  C_33
REMARK   14  A    between atoms: C_38  and  C_39
REMARK                            x       y       z     vdW  Elec       q    Type
REMARK                         _______ _______ _______ _____ _____    ______ ____
ROOT
ATOM      1  N   UNL     1      -3.433  -9.084   1.682  0.00  0.00    +0.391 N 
ATOM      2  H   UNL     1      -2.567  -9.247   2.172  0.00  0.00    -0.080 HD
ENDROOT
BRANCH   1   3
ATOM      3  C   UNL     1      -3.890  -7.712   1.937  0.00  0.00    -0.003 C 
BRANCH   3  13
ATOM      4  C   UNL     1      -3.979  -6.975   7.588  0.00  0.00    +0.004 A 
ATOM      5  C   UNL     1      -3.478  -8.041   8.258  0.00  0.00    +0.056 A 
ATOM      6  S   UNL     1      -3.024  -9.171   6.956  0.00  0.00    -0.076 S 
ATOM      7  C   UNL     1      -3.513  -8.196   5.557  0.00  0.00    +0.116 A 
ATOM      8  C   UNL     1      -4.022  -7.020   6.131  0.00  0.00    +0.080 A 
ATOM      9  C   UNL     1      -4.502  -6.036   5.209  0.00  0.00    +0.260 A 
ATOM     10  O   UNL     1      -4.958  -4.980   5.612  0.00  0.00    -0.267 OA
ATOM     11  N   UNL     1      -4.443  -6.295   3.890  0.00  0.00    -0.312 N 
ATOM     12  H   UNL     1      -4.767  -5.633   3.260  0.00  0.00    +0.170 HD
ATOM     13  C   UNL     1      -3.937  -7.466   3.423  0.00  0.00    +0.094 A 
ATOM     14  N   UNL     1      -3.482  -8.378   4.239  0.00  0.00    -0.229 NA
BRANCH   4  19
ATOM     15  C   UNL     1      -5.923  -2.366  10.440  0.00  0.00    +0.044 C 
ATOM     16  C   UNL     1      -5.414  -3.573   9.694  0.00  0.00    -0.050 A 
ATOM     17  C   UNL     1      -4.072  -3.902   9.750  0.00  0.00    +0.004 A 
ATOM     18  C   UNL     1      -3.600  -5.005   9.069  0.00  0.00    +0.009 A 
ATOM     19  C   UNL     1      -4.479  -5.789   8.323  0.00  0.00    -0.014 A 
ATOM     20  C   UNL     1      -5.831  -5.452   8.270  0.00  0.00    -0.042 A 
ATOM     21  C   UNL     1      -6.292  -4.350   8.960  0.00  0.00    +0.007 A 
ATOM     22  C   UNL     1      -6.788  -6.295   7.466  0.00  0.00    +0.044 C 
ENDBRANCH   4  19
ENDBRANCH   3  13
ENDBRANCH   1   3
BRANCH   1  23
ATOM     23  C   UNL     1      -3.223  -9.271   0.240  0.00  0.00    -0.002 C 
BRANCH  23  24
ATOM     24  C   UNL     1      -2.094  -8.385  -0.221  0.00  0.00    +0.089 A 
ATOM     25  C   UNL     1      -0.784  -8.683  -0.159  0.00  0.00    +0.042 A 
ATOM     26  C   UNL     1      -0.086  -7.577  -0.696  0.00  0.00    +0.041 A 
ATOM     27  C   UNL     1      -1.011  -6.669  -1.054  0.00  0.00    +0.195 A 
ATOM     28  O   UNL     1      -2.226  -7.166  -0.769  0.00  0.00    -0.470 OA
ENDBRANCH  23  24
ENDBRANCH   1  23
BRANCH   1  29
ATOM     29  C   UNL     1      -4.449 -10.034   2.155  0.00  0.00    -0.043 C 
BRANCH  29  30
ATOM     30  C   UNL     1      -3.922 -11.462   2.004  0.00  0.00    +0.135 C 
BRANCH  30  31
ATOM     31  O   UNL     1      -2.799 -11.649   2.868  0.00  0.00    -0.390 OA
ATOM     32  H   UNL     1      -2.996 -11.515   3.805  0.00  0.00    +0.210 HD
ENDBRANCH  30  31
BRANCH  30  33
ATOM     33  C   UNL     1      -5.024 -12.455   2.379  0.00  0.00    +0.258 C 
BRANCH  33  34
ATOM     34  O   UNL     1      -4.570 -13.787   2.127  0.00  0.00    -0.489 OA
BRANCH  34  35
ATOM     35  C   UNL     1      -5.436 -14.797   2.409  0.00  0.00    +0.124 A 
ATOM     36  C   UNL     1      -6.697 -14.511   2.911  0.00  0.00    +0.046 A 
ATOM     37  C   UNL     1      -7.575 -15.539   3.196  0.00  0.00    +0.004 A 
ATOM     38  C   UNL     1      -7.197 -16.852   2.980  0.00  0.00    +0.000 A 
ATOM     39  C   UNL     1      -5.941 -17.139   2.480  0.00  0.00    +0.007 A 
ATOM     40  C   UNL     1      -5.061 -16.114   2.188  0.00  0.00    -0.009 A 
ATOM     41  C   UNL     1      -3.694 -16.427   1.637  0.00  0.00    +0.047 C 
ENDBRANCH  34  35
ENDBRANCH  33  34
ENDBRANCH  30  33
ENDBRANCH  29  30
ENDBRANCH   1  29
TORSDOF 11
