REMARK  Name = ZINC10536098
REMARK  13 active torsions:
REMARK  status: ('A' for Active; 'I' for Inactive)
REMARK    1  A    between atoms: C_1  and  C_2
REMARK    2  A    between atoms: C_2  and  O_3
REMARK    3  A    between atoms: O_3  and  C_4
REMARK    4  A    between atoms: C_4  and  C_6
REMARK    5  A    between atoms: C_7  and  C_33
REMARK    6  A    between atoms: C_11  and  C_15
REMARK    7  A    between atoms: C_15  and  S_16
REMARK    8  A    between atoms: S_16  and  C_17
REMARK    9  A    between atoms: C_20  and  C_22
REMARK   10  A    between atoms: C_25  and  C_28
REMARK   11  A    between atoms: C_28  and  C_29
REMARK   12  A    between atoms: C_28  and  C_30
REMARK   13  A    between atoms: C_28  and  C_31
REMARK                            x       y       z     vdW  Elec       q    Type
REMARK                         _______ _______ _______ _____ _____    ______ ____
ROOT
ATOM      1  C   UNL     1      10.277  -2.710   1.513  0.00  0.00    +0.102 A 
ATOM      2  C   UNL     1       9.759  -2.684   0.253  0.00  0.00    -0.017 A 
ATOM      3  C   UNL     1       8.388  -2.465   0.068  0.00  0.00    +0.051 A 
ATOM      4  C   UNL     1       7.641  -2.399  -1.147  0.00  0.00    +0.128 A 
ATOM      5  N   UNL     1       6.337  -2.184  -1.090  0.00  0.00    -0.216 NA
ATOM      6  C   UNL     1       5.698  -2.018   0.054  0.00  0.00    +0.143 A 
ATOM      7  N   UNL     1       6.332  -2.068   1.210  0.00  0.00    -0.224 NA
ATOM      8  C   UNL     1       7.631  -2.283   1.251  0.00  0.00    +0.115 A 
ATOM      9  S   UNL     1       8.844  -2.423   2.538  0.00  0.00    -0.062 S 
ATOM     10  N   UNL     1       8.269  -2.562  -2.364  0.00  0.00    -0.343 N 
ATOM     11  C   UNL     1      10.659  -2.891  -0.938  0.00  0.00    +0.046 C 
ATOM     12  H   UNL     1       9.083  -3.087  -2.423  0.00  0.00    +0.144 HD
ATOM     13  H   UNL     1       7.897  -2.153  -3.161  0.00  0.00    +0.144 HD
ENDROOT
BRANCH   1  14
ATOM     14  C   UNL     1      11.668  -2.922   1.926  0.00  0.00    +0.346 C 
ATOM     15  O   UNL     1      12.529  -3.106   1.087  0.00  0.00    -0.244 OA
BRANCH  14  16
ATOM     16  O   UNL     1      11.992  -2.913   3.235  0.00  0.00    -0.461 OA
BRANCH  16  18
ATOM     17  C   UNL     1      13.560  -3.084   5.089  0.00  0.00    +0.048 C 
ATOM     18  C   UNL     1      13.388  -3.129   3.570  0.00  0.00    +0.229 C 
ENDBRANCH  16  18
ENDBRANCH  14  16
ENDBRANCH   1  14
BRANCH   6  19
ATOM     19  C   UNL     1       4.212  -1.771   0.039  0.00  0.00    +0.155 C 
BRANCH  19  20
ATOM     20  S   UNL     1       3.896   0.009  -0.047  0.00  0.00    -0.058 S 
BRANCH  20  21
ATOM     21  C   UNL     1       2.134   0.008  -0.051  0.00  0.00    +0.278 A 
ATOM     22  N   UNL     1       1.357  -1.050  -0.001  0.00  0.00    -0.101 NA
ATOM     23  N   UNL     1       0.126  -0.678  -0.022  0.00  0.00    -0.106 NA
ATOM     24  C   UNL     1       0.066   0.629  -0.085  0.00  0.00    +0.249 A 
ATOM     25  O   UNL     1       1.336   1.091  -0.105  0.00  0.00    -0.411 OA
BRANCH  24  26
ATOM     26  C   UNL     1      -1.163   1.448  -0.133  0.00  0.00    +0.039 A 
ATOM     27  C   UNL     1      -1.077   2.840  -0.194  0.00  0.00    +0.013 A 
ATOM     28  C   UNL     1      -2.228   3.598  -0.243  0.00  0.00    +0.005 A 
ATOM     29  C   UNL     1      -3.467   2.981  -0.222  0.00  0.00    -0.042 A 
ATOM     30  C   UNL     1      -3.560   1.602  -0.156  0.00  0.00    +0.005 A 
ATOM     31  C   UNL     1      -2.416   0.832  -0.111  0.00  0.00    +0.013 A 
BRANCH  29  32
ATOM     32  C   UNL     1      -4.721   3.816  -0.270  0.00  0.00    -0.013 C 
ATOM     33  C   UNL     1      -5.553   3.559   0.987  0.00  0.00    +0.015 C 
ATOM     34  C   UNL     1      -4.345   5.297  -0.339  0.00  0.00    +0.015 C 
ATOM     35  C   UNL     1      -5.537   3.439  -1.508  0.00  0.00    +0.015 C 
ENDBRANCH  29  32
ENDBRANCH  24  26
ENDBRANCH  20  21
ENDBRANCH  19  20
ENDBRANCH   6  19
TORSDOF 8
