REMARK  Name = ZINC64167246
REMARK  7 active torsions:
REMARK  status: ('A' for Active; 'I' for Inactive)
REMARK    1  A    between atoms: C_1  and  C_2
REMARK    2  A    between atoms: C_10  and  C_12
REMARK    3  A    between atoms: C_12  and  N_13
REMARK    4  A    between atoms: N_16  and  C_23
REMARK    5  A    between atoms: C_17  and  C_20
REMARK    6  A    between atoms: C_20  and  C_21
REMARK    7  A    between atoms: C_21  and  O_22
REMARK                            x       y       z     vdW  Elec       q    Type
REMARK                         _______ _______ _______ _____ _____    ______ ____
ROOT
ATOM      1  N   UNL     1      -1.242  -1.601   3.071  0.00  0.00    -0.303 NA
ATOM      2  C   UNL     1      -1.144  -2.936   2.464  0.00  0.00    +0.066 C 
ATOM      3  C   UNL     1      -0.982  -3.984   3.567  0.00  0.00    -0.062 C 
ATOM      4  N   UNL     1      -2.137  -3.923   4.473  0.00  0.00    +0.385 N 
ATOM      5  C   UNL     1      -2.208  -2.592   5.090  0.00  0.00    -0.052 C 
ATOM      6  C   UNL     1      -2.379  -1.532   3.999  0.00  0.00    +0.069 C 
ATOM      7  H   UNL     1      -2.983  -4.097   3.951  0.00  0.00    -0.081 HD
ENDROOT
BRANCH   4   8
ATOM      8  C   UNL     1      -1.991  -4.941   5.521  0.00  0.00    -0.068 C 
ATOM      9  C   UNL     1      -0.666  -4.729   6.257  0.00  0.00    -0.015 C 
ATOM     10  C   UNL     1      -0.514  -5.790   7.349  0.00  0.00    -0.002 C 
ATOM     11  C   UNL     1      -0.527  -7.182   6.714  0.00  0.00    -0.000 C 
ATOM     12  C   UNL     1      -1.852  -7.394   5.978  0.00  0.00    -0.002 C 
ATOM     13  C   UNL     1      -2.004  -6.333   4.886  0.00  0.00    -0.015 C 
ENDBRANCH   4   8
BRANCH   1  14
ATOM     14  C   UNL     1      -1.341  -0.560   2.039  0.00  0.00    +0.113 C 
BRANCH  14  24
ATOM     15  C   UNL     1      -2.128   2.298   0.725  0.00  0.00    +0.042 C 
ATOM     16  C   UNL     1      -0.959   1.861   1.570  0.00  0.00    -0.040 C 
ATOM     17  C   UNL     1       0.302   2.347   1.527  0.00  0.00    -0.001 A 
ATOM     18  C   UNL     1       0.940   3.388   0.712  0.00  0.00    +0.010 A 
ATOM     19  C   UNL     1       2.251   3.658   0.901  0.00  0.00    +0.001 A 
ATOM     20  C   UNL     1       3.015   2.970   1.854  0.00  0.00    +0.002 A 
ATOM     21  C   UNL     1       2.501   2.002   2.640  0.00  0.00    +0.026 A 
ATOM     22  C   UNL     1       1.131   1.636   2.527  0.00  0.00    +0.043 A 
ATOM     23  N   UNL     1       0.410   0.745   3.163  0.00  0.00    -0.376 N 
ATOM     24  C   UNL     1      -0.961   0.794   2.642  0.00  0.00    +0.120 C 
ATOM     25  H   UNL     1       0.729   0.154   3.864  0.00  0.00    +0.160 HD
ENDBRANCH  14  24
ENDBRANCH   1  14
BRANCH   5  26
ATOM     26  C   UNL     1      -3.401  -2.536   6.047  0.00  0.00    +0.014 C 
BRANCH  26  27
ATOM     27  C   UNL     1      -3.424  -1.180   6.754  0.00  0.00    +0.154 C 
BRANCH  27  28
ATOM     28  O   UNL     1      -4.467  -1.170   7.731  0.00  0.00    -0.395 OA
ATOM     29  H   UNL     1      -4.540  -0.339   8.220  0.00  0.00    +0.209 HD
ENDBRANCH  27  28
ENDBRANCH  26  27
ENDBRANCH   5  26
TORSDOF 6
