REMARK  Name = ZINC67299875
REMARK  7 active torsions:
REMARK  status: ('A' for Active; 'I' for Inactive)
REMARK    1  A    between atoms: C_1  and  C_2
REMARK    2  A    between atoms: C_2  and  C_4
REMARK    3  A    between atoms: C_2  and  N_12
REMARK    4  A    between atoms: C_13  and  C_15
REMARK    5  A    between atoms: C_17  and  O_24
REMARK    6  A    between atoms: C_20  and  N_21
REMARK    7  A    between atoms: O_24  and  C_25
REMARK                            x       y       z     vdW  Elec       q    Type
REMARK                         _______ _______ _______ _____ _____    ______ ____
ROOT
ATOM      1  N   UNL     1      -1.479   0.101   0.611  0.00  0.00    -0.305 N 
ATOM      2  C   UNL     1      -2.147  -0.458   1.639  0.00  0.00    +0.247 C 
ATOM      3  O   UNL     1      -1.659  -0.457   2.753  0.00  0.00    -0.270 OA
ATOM      4  H   UNL     1      -1.868   0.100  -0.278  0.00  0.00    +0.150 HD
ENDROOT
BRANCH   2   5
ATOM      5  C   UNL     1      -3.473  -1.071   1.414  0.00  0.00    +0.070 A 
ATOM      6  C   UNL     1      -4.496  -0.329   0.823  0.00  0.00    +0.061 A 
ATOM      7  C   UNL     1      -5.736  -0.910   0.615  0.00  0.00    +0.121 A 
ATOM      8  C   UNL     1      -5.958  -2.228   0.994  0.00  0.00    +0.048 A 
ATOM      9  C   UNL     1      -4.945  -2.964   1.579  0.00  0.00    +0.037 A 
ATOM     10  C   UNL     1      -3.704  -2.396   1.786  0.00  0.00    +0.138 A 
BRANCH  10  11
ATOM     11  N   UNL     1      -2.621  -3.190   2.408  0.00  0.00    +0.057 N 
ATOM     12  O   UNL     1      -2.854  -4.294   2.842  0.00  0.00    -0.126 OA
ATOM     13  O   UNL     1      -1.503  -2.735   2.481  0.00  0.00    -0.126 OA
ENDBRANCH  10  11
BRANCH   7  14
ATOM     14  O   UNL     1      -6.735  -0.191   0.040  0.00  0.00    -0.495 OA
ATOM     15  C   UNL     1      -7.988  -0.854  -0.145  0.00  0.00    +0.277 C 
ENDBRANCH   7  14
ENDBRANCH   2   5
BRANCH   1  17
ATOM     16  C   UNL     1      -0.345   2.152   1.309  0.00  0.00    +0.033 C 
ATOM     17  C   UNL     1      -0.165   0.709   0.834  0.00  0.00    +0.100 C 
BRANCH  17  18
ATOM     18  C   UNL     1       0.619   0.697  -0.453  0.00  0.00    -0.026 A 
ATOM     19  C   UNL     1      -0.012   0.982  -1.649  0.00  0.00    +0.007 A 
ATOM     20  C   UNL     1       0.706   0.971  -2.830  0.00  0.00    +0.022 A 
ATOM     21  C   UNL     1       2.057   0.676  -2.815  0.00  0.00    +0.059 A 
ATOM     22  C   UNL     1       2.690   0.392  -1.617  0.00  0.00    +0.060 A 
ATOM     23  C   UNL     1       1.971   0.408  -0.435  0.00  0.00    +0.027 A 
ATOM     24 CL   UNL     1       4.386   0.022  -1.597  0.00  0.00    -0.082 Cl
ATOM     25 CL   UNL     1       2.960   0.663  -4.298  0.00  0.00    -0.082 Cl
ENDBRANCH  17  18
ENDBRANCH   1  17
TORSDOF 5
