REMARK  Name = ZINC06409847
REMARK  9 active torsions:
REMARK  status: ('A' for Active; 'I' for Inactive)
REMARK    1  A    between atoms: C_1  and  C_2
REMARK    2  A    between atoms: C_7  and  C_14
REMARK    3  A    between atoms: C_14  and  C_16
REMARK    4  A    between atoms: C_14  and  N_67
REMARK    5  A    between atoms: N_20  and  C_21
REMARK    6  A    between atoms: C_27  and  C_28
REMARK    7  A    between atoms: C_27  and  N_67
REMARK    8  A    between atoms: C_33  and  C_34
REMARK    9  A    between atoms: C_33  and  N_67
REMARK                            x       y       z     vdW  Elec       q    Type
REMARK                         _______ _______ _______ _____ _____    ______ ____
ROOT
ATOM      1  C   UNL     1      -1.017   1.899   0.116  0.00  0.00    +0.040 C 
ENDROOT
BRANCH   1   8
ATOM      2  C   UNL     1      -0.845   5.004  -7.229  0.00  0.00    +0.044 C 
ATOM      3  C   UNL     1      -1.080   4.531  -5.817  0.00  0.00    -0.048 A 
ATOM      4  C   UNL     1      -2.224   4.931  -5.141  0.00  0.00    +0.004 A 
ATOM      5  C   UNL     1      -2.457   4.514  -3.861  0.00  0.00    +0.010 A 
ATOM      6  C   UNL     1      -1.534   3.674  -3.227  0.00  0.00    -0.001 A 
ATOM      7  C   UNL     1      -1.755   3.204  -1.858  0.00  0.00    +0.017 A 
ATOM      8  C   UNL     1      -0.823   2.397  -1.293  0.00  0.00    +0.011 A 
ATOM      9  C   UNL     1       0.324   2.016  -2.021  0.00  0.00    +0.251 A 
ATOM     10  O   UNL     1       1.147   1.287  -1.496  0.00  0.00    -0.268 OA
ATOM     11  N   UNL     1       0.532   2.439  -3.281  0.00  0.00    -0.322 N 
ATOM     12  H   UNL     1       1.332   2.159  -3.753  0.00  0.00    +0.169 HD
ATOM     13  C   UNL     1      -0.374   3.266  -3.910  0.00  0.00    +0.049 A 
ATOM     14  C   UNL     1      -0.158   3.704  -5.213  0.00  0.00    +0.029 A 
ENDBRANCH   1   8
BRANCH   1  15
ATOM     15  C   UNL     1      -1.113   0.395   0.109  0.00  0.00    +0.143 A 
ATOM     16  N   UNL     1      -0.145  -0.450  -0.149  0.00  0.00    -0.115 NA
ATOM     17  N   UNL     1      -0.623  -1.643  -0.055  0.00  0.00    -0.023 NA
ATOM     18  N   UNL     1      -1.870  -1.581   0.257  0.00  0.00    -0.044 NA
ATOM     19  N   UNL     1      -2.209  -0.341   0.373  0.00  0.00    -0.227 N 
BRANCH  19  20
ATOM     20  C   UNL     1      -3.537   0.169   0.721  0.00  0.00    +0.111 C 
ATOM     21  C   UNL     1      -3.938  -0.354   2.102  0.00  0.00    +0.027 C 
ATOM     22  C   UNL     1      -5.325   0.178   2.466  0.00  0.00    +0.002 C 
ATOM     23  C   UNL     1      -6.343  -0.295   1.425  0.00  0.00    +0.000 C 
ATOM     24  C   UNL     1      -5.941   0.229   0.045  0.00  0.00    +0.002 C 
ATOM     25  C   UNL     1      -4.554  -0.304  -0.319  0.00  0.00    +0.027 C 
ENDBRANCH  19  20
ENDBRANCH   1  15
BRANCH   1  26
ATOM     26  N   UNL     1       0.149   2.302   0.931  0.00  0.00    +0.397 N 
ATOM     27  H   UNL     1       1.002   1.929   0.499  0.00  0.00    -0.079 HD
BRANCH  26  28
ATOM     28  C   UNL     1       0.242   3.776   0.984  0.00  0.00    -0.001 C 
BRANCH  28  29
ATOM     29  C   UNL     1       1.140   4.240  -0.134  0.00  0.00    +0.089 A 
ATOM     30  C   UNL     1       0.732   4.710  -1.327  0.00  0.00    +0.042 A 
ATOM     31  C   UNL     1       1.897   5.025  -2.063  0.00  0.00    +0.041 A 
ATOM     32  C   UNL     1       2.947   4.729  -1.277  0.00  0.00    +0.195 A 
ATOM     33  O   UNL     1       2.483   4.258  -0.107  0.00  0.00    -0.470 OA
ENDBRANCH  28  29
ENDBRANCH  26  28
BRANCH  26  34
ATOM     34  C   UNL     1       0.024   1.754   2.298  0.00  0.00    -0.034 C 
BRANCH  34  35
ATOM     35  C   UNL     1       0.605   0.364   2.313  0.00  0.00    -0.027 A 
ATOM     36  C   UNL     1       1.899  -0.021   2.200  0.00  0.00    +0.009 A 
ATOM     37  C   UNL     1       2.204  -1.369   2.242  0.00  0.00    +0.008 A 
ATOM     38  C   UNL     1       1.198  -2.265   2.396  0.00  0.00    +0.045 A 
ATOM     39  S   UNL     1      -0.233  -1.202   2.494  0.00  0.00    -0.103 S 
ENDBRANCH  34  35
ENDBRANCH  26  34
ENDBRANCH   1  26
TORSDOF 8
