REMARK  Name = ZINC03295668
REMARK  11 active torsions:
REMARK  status: ('A' for Active; 'I' for Inactive)
REMARK    1  A    between atoms: C_1  and  C_2
REMARK    2  A    between atoms: C_2  and  C_3
REMARK    3  A    between atoms: C_3  and  C_5
REMARK    4  A    between atoms: C_3  and  C_6
REMARK    5  A    between atoms: C_9  and  N_12
REMARK    6  A    between atoms: C_13  and  C_15
REMARK    7  A    between atoms: C_15  and  S_16
REMARK    8  A    between atoms: S_16  and  C_17
REMARK    9  A    between atoms: C_20  and  C_23
REMARK   10  A    between atoms: N_21  and  N_22
REMARK   11  A    between atoms: C_23  and  C_24
REMARK                            x       y       z     vdW  Elec       q    Type
REMARK                         _______ _______ _______ _____ _____    ______ ____
ROOT
ATOM      1  C   UNL     1      -1.392   2.782  -2.913  0.00  0.00    +0.209 A 
ATOM      2  N   UNL     1      -2.088   1.671  -2.850  0.00  0.00    -0.121 NA
ATOM      3  N   UNL     1      -1.687   0.959  -1.858  0.00  0.00    -0.132 NA
ATOM      4  C   UNL     1      -0.726   1.573  -1.227  0.00  0.00    +0.155 A 
ATOM      5  N   UNL     1      -0.500   2.754  -1.879  0.00  0.00    -0.228 N 
ENDROOT
BRANCH   5   6
ATOM      6  N   UNL     1       0.424   3.708  -1.561  0.00  0.00    -0.295 N 
ATOM      7  H   UNL     1       1.299   3.535  -2.032  0.00  0.00    +0.163 HD
ATOM      8  H   UNL     1       0.077   4.632  -1.772  0.00  0.00    +0.163 HD
ENDBRANCH   5   6
BRANCH   1   9
ATOM      9  S   UNL     1      -1.573   4.066  -4.106  0.00  0.00    -0.075 S 
BRANCH   9  10
ATOM     10  C   UNL     1      -2.917   3.379  -5.106  0.00  0.00    +0.173 C 
BRANCH  10  12
ATOM     11  N   UNL     1      -4.229   4.031  -7.098  0.00  0.00    -0.285 N 
ATOM     12  C   UNL     1      -3.252   4.335  -6.221  0.00  0.00    +0.227 C 
ATOM     13  O   UNL     1      -2.643   5.378  -6.330  0.00  0.00    -0.275 OA
ATOM     14  H   UNL     1      -4.670   3.168  -7.053  0.00  0.00    +0.155 HD
BRANCH  11  18
ATOM     15  C   UNL     1      -5.353   6.795 -10.005  0.00  0.00    -0.044 A 
ATOM     16  C   UNL     1      -4.030   6.706  -9.613  0.00  0.00    +0.006 A 
ATOM     17  C   UNL     1      -3.654   5.790  -8.650  0.00  0.00    +0.023 A 
ATOM     18  C   UNL     1      -4.607   4.959  -8.075  0.00  0.00    +0.033 A 
ATOM     19  C   UNL     1      -5.934   5.047  -8.475  0.00  0.00    +0.023 A 
ATOM     20  C   UNL     1      -6.304   5.969  -9.434  0.00  0.00    +0.006 A 
BRANCH  15  21
ATOM     21  C   UNL     1      -5.760   7.795 -11.057  0.00  0.00    +0.016 C 
ATOM     22  C   UNL     1      -6.375   7.059 -12.249  0.00  0.00    +0.012 C 
BRANCH  21  24
ATOM     23  C   UNL     1      -7.108   9.852 -11.495  0.00  0.00    +0.004 C 
ATOM     24  C   UNL     1      -6.788   8.763 -10.469  0.00  0.00    +0.004 C 
ENDBRANCH  21  24
ENDBRANCH  15  21
ENDBRANCH  11  18
ENDBRANCH  10  12
ENDBRANCH   9  10
ENDBRANCH   1   9
BRANCH   4  25
ATOM     25  C   UNL     1       0.006   1.072  -0.009  0.00  0.00    +0.113 C 
BRANCH  25  26
ATOM     26  C   UNL     1      -0.701   1.547   1.233  0.00  0.00    -0.032 A 
ATOM     27  C   UNL     1      -0.290   2.683   1.862  0.00  0.00    +0.004 A 
ATOM     28  C   UNL     1      -0.936   3.142   3.008  0.00  0.00    +0.001 A 
ATOM     29  C   UNL     1      -1.988   2.461   3.540  0.00  0.00    +0.008 A 
ATOM     30  C   UNL     1      -2.437   1.282   2.922  0.00  0.00    -0.018 A 
ATOM     31  C   UNL     1      -1.784   0.819   1.752  0.00  0.00    -0.014 A 
ATOM     32  C   UNL     1      -2.233  -0.362   1.135  0.00  0.00    +0.009 A 
ATOM     33  C   UNL     1      -3.285  -1.042   1.666  0.00  0.00    +0.001 A 
ATOM     34  C   UNL     1      -3.927  -0.586   2.817  0.00  0.00    +0.001 A 
ATOM     35  C   UNL     1      -3.520   0.552   3.442  0.00  0.00    +0.008 A 
ENDBRANCH  25  26
ENDBRANCH   4  25
TORSDOF 9
