REMARK  Name = ZINC40386529
REMARK  6 active torsions:
REMARK  status: ('A' for Active; 'I' for Inactive)
REMARK    1  A    between atoms: C_1  and  C_2
REMARK    2  A    between atoms: C_2  and  C_3
REMARK    3  A    between atoms: C_18  and  C_20
REMARK    4  A    between atoms: C_20  and  N_21
REMARK    5  A    between atoms: N_24  and  C_27
REMARK    6  A    between atoms: C_27  and  C_28
REMARK                            x       y       z     vdW  Elec       q    Type
REMARK                         _______ _______ _______ _____ _____    ______ ____
ROOT
ATOM      1  C   UNL     1       0.731  -0.503   1.223  0.00  0.00    +0.215 C 
ATOM      2  O   UNL     1       1.189   0.287   2.021  0.00  0.00    -0.276 OA
ATOM      3  N   UNL     1       0.874  -1.828   1.428  0.00  0.00    -0.300 N 
ATOM      4  C   UNL     1       1.585  -2.258   2.632  0.00  0.00    +0.109 C 
ATOM      5  C   UNL     1       0.554  -2.599   3.688  0.00  0.00    +0.038 C 
ATOM      6  C   UNL     1       0.099  -4.053   3.538  0.00  0.00    +0.109 C 
ATOM      7  N   UNL     1      -0.092  -4.443   2.133  0.00  0.00    -0.300 N 
ATOM      8  C   UNL     1      -0.748  -3.596   1.153  0.00  0.00    +0.127 C 
ATOM      9  C   UNL     1       0.319  -2.711   0.462  0.00  0.00    +0.126 C 
ATOM     10  C   UNL     1       0.373  -5.666   1.729  0.00  0.00    +0.198 A 
ATOM     11  N   UNL     1       0.213  -6.046   0.432  0.00  0.00    -0.295 N 
ATOM     12  H   UNL     1      -0.227  -5.454  -0.198  0.00  0.00    +0.172 HD
ATOM     13  C   UNL     1       0.669  -7.250   0.026  0.00  0.00    +0.253 A 
ATOM     14  O   UNL     1       0.535  -7.607  -1.133  0.00  0.00    -0.268 OA
ATOM     15  C   UNL     1       1.303  -8.085   0.964  0.00  0.00    +0.091 A 
ATOM     16  C   UNL     1       1.434  -7.650   2.250  0.00  0.00    +0.034 A 
ATOM     17  N   UNL     1       0.972  -6.452   2.601  0.00  0.00    -0.223 NA
ENDROOT
BRANCH   1  19
ATOM     18  C   UNL     1      -0.019   1.526   0.010  0.00  0.00    +0.013 C 
ATOM     19  C   UNL     1       0.002  -0.004   0.002  0.00  0.00    +0.092 C 
ENDBRANCH   1  19
BRANCH  16  20
ATOM     20  C   UNL     1       2.109  -8.525   3.275  0.00  0.00    -0.022 C 
BRANCH  20  21
ATOM     21  N   UNL     1       3.350  -7.882   3.728  0.00  0.00    +0.385 N 
ATOM     22  C   UNL     1       4.294  -7.795   2.606  0.00  0.00    -0.063 C 
ATOM     23  C   UNL     1       5.579  -7.108   3.072  0.00  0.00    +0.066 C 
ATOM     24  N   UNL     1       6.171  -7.879   4.174  0.00  0.00    -0.302 NA
ATOM     25  C   UNL     1       5.228  -7.995   5.295  0.00  0.00    +0.066 C 
ATOM     26  C   UNL     1       3.946  -8.675   4.811  0.00  0.00    -0.063 C 
ATOM     27  H   UNL     1       3.143  -6.954   4.065  0.00  0.00    -0.081 HD
BRANCH  24  28
ATOM     28  C   UNL     1       7.439  -7.282   4.613  0.00  0.00    +0.119 C 
BRANCH  28  29
ATOM     29  C   UNL     1       8.135  -8.221   5.564  0.00  0.00    -0.033 A 
ATOM     30  C   UNL     1       7.887  -8.139   6.921  0.00  0.00    +0.006 A 
ATOM     31  C   UNL     1       8.525  -9.000   7.794  0.00  0.00    +0.020 A 
ATOM     32  C   UNL     1       9.412  -9.945   7.309  0.00  0.00    +0.041 A 
ATOM     33  C   UNL     1       9.659 -10.027   5.950  0.00  0.00    +0.020 A 
ATOM     34  C   UNL     1       9.017  -9.169   5.078  0.00  0.00    +0.006 A 
ATOM     35 CL   UNL     1      10.213 -11.027   8.404  0.00  0.00    -0.084 Cl
ENDBRANCH  28  29
ENDBRANCH  24  28
ENDBRANCH  20  21
ENDBRANCH  16  20
TORSDOF 5
