REMARK  Name = ZINC12761713
REMARK  3 active torsions:
REMARK  status: ('A' for Active; 'I' for Inactive)
REMARK    1  A    between atoms: C_3  and  C_6
REMARK    2  A    between atoms: N_15  and  S_16
REMARK    3  A    between atoms: S_16  and  C_19
REMARK                            x       y       z     vdW  Elec       q    Type
REMARK                         _______ _______ _______ _____ _____    ______ ____
ROOT
ATOM      1  S   UNL     1       5.137   1.565   2.298  0.00  0.00    +0.062 S 
ATOM      2  O   UNL     1       6.308   0.824   2.614  0.00  0.00    -0.153 OA
ATOM      3  O   UNL     1       5.133   2.983   2.213  0.00  0.00    -0.153 OA
ENDROOT
BRANCH   1   4
ATOM      4  C   UNL     1       3.926   1.130   3.502  0.00  0.00    +0.108 A 
ATOM      5  C   UNL     1       2.883   1.998   3.775  0.00  0.00    +0.030 A 
ATOM      6  C   UNL     1       1.929   1.666   4.717  0.00  0.00    +0.030 A 
ATOM      7  C   UNL     1       2.017   0.458   5.392  0.00  0.00    +0.067 A 
ATOM      8  C   UNL     1       3.068  -0.418   5.116  0.00  0.00    +0.069 A 
ATOM      9  C   UNL     1       4.019  -0.078   4.165  0.00  0.00    +0.056 A 
ATOM     10  N   UNL     1       2.891  -1.531   5.935  0.00  0.00    -0.306 N 
ATOM     11  H   UNL     1       3.469  -2.310   5.967  0.00  0.00    +0.170 HD
ATOM     12  C   UNL     1       1.783  -1.340   6.675  0.00  0.00    +0.325 A 
ATOM     13  O   UNL     1       1.345  -2.125   7.495  0.00  0.00    -0.247 OA
ATOM     14  N   UNL     1       1.233  -0.150   6.370  0.00  0.00    -0.306 N 
ATOM     15  H   UNL     1       0.428   0.221   6.764  0.00  0.00    +0.170 HD
ENDBRANCH   1   4
BRANCH   1  24
ATOM     16  C   UNL     1       3.761   1.845  -0.024  0.00  0.00    +0.147 C 
ATOM     17  C   UNL     1       4.325   1.774  -1.442  0.00  0.00    -0.014 A 
ATOM     18  C   UNL     1       3.944   2.647  -2.460  0.00  0.00    +0.013 A 
ATOM     19  C   UNL     1       4.483   2.522  -3.695  0.00  0.00    +0.046 A 
ATOM     20  S   UNL     1       5.583   1.132  -3.477  0.00  0.00    -0.101 S 
ATOM     21  C   UNL     1       5.246   0.825  -1.764  0.00  0.00    -0.004 A 
ATOM     22  C   UNL     1       5.833  -0.223  -0.875  0.00  0.00    +0.060 C 
ATOM     23  C   UNL     1       4.956  -0.351   0.381  0.00  0.00    +0.116 C 
ATOM     24  N   UNL     1       4.600   1.001   0.837  0.00  0.00    -0.164 NA
BRANCH  16  27
ATOM     25  C   UNL     1      -0.016   1.351   0.009  0.00  0.00    +0.008 A 
ATOM     26  C   UNL     1       1.183   2.038   0.002  0.00  0.00    +0.013 A 
ATOM     27  C   UNL     1       2.343   1.336  -0.013  0.00  0.00    +0.013 A 
ATOM     28  S   UNL     1       1.754  -0.349  -0.017  0.00  0.00    -0.100 S 
ATOM     29  C   UNL     1       0.002  -0.004   0.002  0.00  0.00    +0.045 A 
ENDBRANCH  16  27
ENDBRANCH   1  24
TORSDOF 3
