REMARK  Name = ZINC67543461
REMARK  7 active torsions:
REMARK  status: ('A' for Active; 'I' for Inactive)
REMARK    1  A    between atoms: C_1  and  C_2
REMARK    2  A    between atoms: C_2  and  C_3
REMARK    3  A    between atoms: C_7  and  C_29
REMARK    4  A    between atoms: C_8  and  N_9
REMARK    5  A    between atoms: N_12  and  C_13
REMARK    6  A    between atoms: C_13  and  C_14
REMARK    7  A    between atoms: C_14  and  C_20
REMARK                            x       y       z     vdW  Elec       q    Type
REMARK                         _______ _______ _______ _____ _____    ______ ____
ROOT
ATOM      1  C   UNL     1      -4.149  -0.780   4.671  0.00  0.00    +0.117 C 
ENDROOT
BRANCH   1   5
ATOM      2  N   UNL     1      -1.361  -0.602   2.281  0.00  0.00    -0.269 N 
ATOM      3  C   UNL     1      -2.058  -0.783   3.420  0.00  0.00    +0.304 C 
ATOM      4  O   UNL     1      -1.486  -1.129   4.435  0.00  0.00    -0.253 OA
ATOM      5  N   UNL     1      -3.391  -0.582   3.433  0.00  0.00    -0.298 N 
ATOM      6  H   UNL     1      -1.809  -0.277   1.485  0.00  0.00    +0.156 HD
ATOM      7  H   UNL     1      -3.848  -0.306   2.623  0.00  0.00    +0.150 HD
BRANCH   2  13
ATOM      8  C   UNL     1       0.891   0.025   1.673  0.00  0.00    -0.026 A 
ATOM      9  C   UNL     1       2.244  -0.250   1.647  0.00  0.00    +0.005 A 
ATOM     10  C   UNL     1       2.721  -1.429   2.189  0.00  0.00    +0.001 A 
ATOM     11  C   UNL     1       1.846  -2.336   2.758  0.00  0.00    +0.005 A 
ATOM     12  C   UNL     1       0.492  -2.067   2.787  0.00  0.00    -0.029 A 
ATOM     13  C   UNL     1       0.010  -0.880   2.249  0.00  0.00    +0.041 A 
ATOM     14  C   UNL     1      -0.461  -3.056   3.406  0.00  0.00    +0.045 C 
BRANCH   8  16
ATOM     15  C   UNL     1       0.241   2.363   2.185  0.00  0.00    +0.009 C 
ATOM     16  C   UNL     1       0.372   1.311   1.082  0.00  0.00    +0.033 C 
ENDBRANCH   8  16
ENDBRANCH   2  13
ENDBRANCH   1   5
BRANCH   1  17
ATOM     17  C   UNL     1      -5.601  -0.345   4.455  0.00  0.00    +0.016 C 
ATOM     18  C   UNL     1      -6.400  -0.570   5.742  0.00  0.00    +0.041 C 
ATOM     19  C   UNL     1      -5.823   0.312   6.852  0.00  0.00    +0.160 C 
ATOM     20  O   UNL     1      -5.863   1.680   6.441  0.00  0.00    -0.380 OA
ATOM     21  C   UNL     1      -5.095   1.959   5.269  0.00  0.00    +0.160 C 
ATOM     22  C   UNL     1      -5.642   1.143   4.095  0.00  0.00    +0.041 C 
BRANCH  17  23
ATOM     23  C   UNL     1      -6.207  -1.152   3.336  0.00  0.00    -0.036 A 
ATOM     24  C   UNL     1      -6.578  -0.528   2.159  0.00  0.00    +0.008 A 
ATOM     25  C   UNL     1      -7.134  -1.264   1.129  0.00  0.00    +0.050 A 
ATOM     26  C   UNL     1      -7.321  -2.629   1.274  0.00  0.00    +0.166 A 
ATOM     27  C   UNL     1      -6.947  -3.257   2.460  0.00  0.00    +0.167 A 
ATOM     28  C   UNL     1      -6.385  -2.514   3.486  0.00  0.00    +0.053 A 
ATOM     29  O   UNL     1      -7.231  -4.588   2.356  0.00  0.00    -0.453 OA
ATOM     30  C   UNL     1      -8.154  -4.701   1.258  0.00  0.00    +0.466 C 
ATOM     31  O   UNL     1      -7.839  -3.567   0.428  0.00  0.00    -0.453 OA
ENDBRANCH  17  23
ENDBRANCH   1  17
TORSDOF 5
