REMARK  Name = ZINC00950987
REMARK  3 active torsions:
REMARK  status: ('A' for Active; 'I' for Inactive)
REMARK    1  A    between atoms: C_1  and  C_2
REMARK    2  A    between atoms: C_2  and  C_24
REMARK    3  A    between atoms: C_6  and  C_14
REMARK                            x       y       z     vdW  Elec       q    Type
REMARK                         _______ _______ _______ _____ _____    ______ ____
ROOT
ATOM      1  C   UNL     1      -0.019   1.526   0.010  0.00  0.00    +0.011 C 
ATOM      2  C   UNL     1       0.002  -0.004   0.002  0.00  0.00    -0.023 C 
ATOM      3  C   UNL     1       0.742  -0.503  -1.241  0.00  0.00    +0.058 C 
ATOM      4  C   UNL     1       2.169  -0.010  -1.215  0.00  0.00    +0.020 C 
ATOM      5  C   UNL     1       2.813   0.189  -0.045  0.00  0.00    +0.041 C 
ATOM      6  C   UNL     1       4.242   0.684   0.012  0.00  0.00    +0.175 C 
ATOM      7  N   UNL     1       4.860   0.579  -1.304  0.00  0.00    -0.221 N 
ATOM      8  C   UNL     1       4.156   0.365  -2.443  0.00  0.00    +0.218 A 
ATOM      9  N   UNL     1       5.000   0.331  -3.437  0.00  0.00    -0.201 NA
ATOM     10  C   UNL     1       6.242   0.512  -2.976  0.00  0.00    +0.247 A 
ATOM     11  N   UNL     1       6.200   0.666  -1.676  0.00  0.00    -0.156 NA
ATOM     12  N   UNL     1       2.779   0.218  -2.426  0.00  0.00    -0.287 N 
ATOM     13  C   UNL     1       2.171  -0.055   1.182  0.00  0.00    +0.164 C 
ATOM     14  O   UNL     1       2.786   0.112   2.218  0.00  0.00    -0.292 OA
ATOM     15  C   UNL     1       0.742  -0.517   1.242  0.00  0.00    +0.086 C 
ATOM     16  C   UNL     1      -1.431  -0.539  -0.001  0.00  0.00    +0.011 C 
ATOM     17  H   UNL     1       2.260   0.274  -3.244  0.00  0.00    +0.155 HD
ENDROOT
BRANCH   6  18
ATOM     18  C   UNL     1       4.255   2.124   0.455  0.00  0.00    -0.017 A 
ATOM     19  C   UNL     1       3.593   3.082  -0.291  0.00  0.00    +0.006 A 
ATOM     20  C   UNL     1       3.605   4.404   0.114  0.00  0.00    +0.001 A 
ATOM     21  C   UNL     1       4.279   4.768   1.265  0.00  0.00    +0.015 A 
ATOM     22  C   UNL     1       4.940   3.810   2.012  0.00  0.00    +0.018 A 
ATOM     23  C   UNL     1       4.924   2.486   1.609  0.00  0.00    +0.021 A 
ATOM     24 BR   UNL     1       5.862   4.308   3.586  0.00  0.00    -0.050 Br
ENDBRANCH   6  18
TORSDOF 1
