REMARK  Name = ZINC29255558
REMARK  6 active torsions:
REMARK  status: ('A' for Active; 'I' for Inactive)
REMARK    1  A    between atoms: C_1  and  C_2
REMARK    2  A    between atoms: C_2  and  C_4
REMARK    3  A    between atoms: C_2  and  N_14
REMARK    4  A    between atoms: C_15  and  C_17
REMARK    5  A    between atoms: C_17  and  C_18
REMARK    6  A    between atoms: C_18  and  N_19
REMARK                            x       y       z     vdW  Elec       q    Type
REMARK                         _______ _______ _______ _____ _____    ______ ____
ROOT
ATOM      1  N   UNL     1      -1.640  -1.854   0.008  0.00  0.00    -0.306 N 
ATOM      2  C   UNL     1      -1.412  -0.526   0.013  0.00  0.00    +0.215 C 
ATOM      3  O   UNL     1      -2.344   0.250   0.026  0.00  0.00    -0.276 OA
ATOM      4  H   UNL     1      -0.794  -2.557  -0.004  0.00  0.00    +0.149 HD
ENDROOT
BRANCH   1   6
ATOM      5  C   UNL     1      -3.523  -2.427   1.460  0.00  0.00    +0.036 C 
ATOM      6  C   UNL     1      -3.014  -2.361   0.018  0.00  0.00    +0.138 C 
BRANCH   6   7
ATOM      7  C   UNL     1      -3.046  -3.740  -0.589  0.00  0.00    +0.154 A 
ATOM      8  N   UNL     1      -2.209  -4.714  -0.347  0.00  0.00    -0.132 NA
ATOM      9  N   UNL     1      -2.540  -5.752  -1.034  0.00  0.00    -0.134 NA
ATOM     10  C   UNL     1      -3.598  -5.483  -1.746  0.00  0.00    +0.134 A 
ATOM     11  N   UNL     1      -3.941  -4.199  -1.492  0.00  0.00    -0.313 N 
ATOM     12  C   UNL     1      -5.054  -3.460  -2.090  0.00  0.00    +0.125 C 
ATOM     13  C   UNL     1      -6.165  -4.441  -2.476  0.00  0.00    +0.022 C 
ATOM     14  C   UNL     1      -5.935  -4.945  -3.900  0.00  0.00    +0.002 C 
ATOM     15  C   UNL     1      -4.607  -5.690  -3.995  0.00  0.00    +0.008 C 
ATOM     16  C   UNL     1      -4.329  -6.416  -2.676  0.00  0.00    +0.076 C 
ENDBRANCH   6   7
ENDBRANCH   1   6
BRANCH   2  17
ATOM     17  C   UNL     1       0.002  -0.004   0.002  0.00  0.00    +0.117 C 
BRANCH  17  18
ATOM     18  C   UNL     1      -0.019   1.526   0.010  0.00  0.00    +0.135 C 
BRANCH  18  19
ATOM     19  N   UNL     1       1.356   2.033   0.000  0.00  0.00    -0.298 N 
ATOM     20  C   UNL     1       1.989   2.262   1.179  0.00  0.00    +0.203 A 
ATOM     21  N   UNL     1       3.216   2.710   1.212  0.00  0.00    -0.230 NA
ATOM     22  C   UNL     1       3.880   2.965   0.088  0.00  0.00    +0.116 A 
ATOM     23  C   UNL     1       3.308   2.764  -1.177  0.00  0.00    +0.076 A 
ATOM     24  C   UNL     1       1.963   2.267  -1.178  0.00  0.00    +0.262 A 
ATOM     25  O   UNL     1       1.380   2.060  -2.228  0.00  0.00    -0.267 OA
ATOM     26  C   UNL     1       4.157   3.087  -2.323  0.00  0.00    -0.023 A 
ATOM     27  C   UNL     1       5.399   3.544  -2.055  0.00  0.00    -0.004 A 
ATOM     28  S   UNL     1       5.507   3.569  -0.286  0.00  0.00    -0.073 S 
ATOM     29  C   UNL     1       6.452   3.942  -3.043  0.00  0.00    +0.043 C 
ATOM     30  C   UNL     1       6.049   3.404  -4.424  0.00  0.00    +0.005 C 
ATOM     31  C   UNL     1       4.580   3.756  -4.678  0.00  0.00    +0.005 C 
ATOM     32  C   UNL     1       3.680   2.925  -3.764  0.00  0.00    +0.037 C 
ENDBRANCH  18  19
ENDBRANCH  17  18
ENDBRANCH   2  17
TORSDOF 5
