REMARK  Name = ZINC17406079
REMARK  10 active torsions:
REMARK  status: ('A' for Active; 'I' for Inactive)
REMARK    1  A    between atoms: C_1  and  C_2
REMARK    2  A    between atoms: C_5  and  S_8
REMARK    3  A    between atoms: S_8  and  N_11
REMARK    4  A    between atoms: N_11  and  C_12
REMARK    5  A    between atoms: N_11  and  C_13
REMARK    6  A    between atoms: C_13  and  C_14
REMARK    7  A    between atoms: N_16  and  N_17
REMARK    8  A    between atoms: C_18  and  C_20
REMARK    9  A    between atoms: C_20  and  N_21
REMARK   10  A    between atoms: C_29  and  C_30
REMARK                            x       y       z     vdW  Elec       q    Type
REMARK                         _______ _______ _______ _____ _____    ______ ____
ROOT
ATOM      1  N   UNL     1      -5.583   0.838  -1.201  0.00  0.00    -0.233 N 
ATOM      2  C   UNL     1      -6.652   0.119  -1.597  0.00  0.00    +0.249 C 
ATOM      3  O   UNL     1      -6.516  -0.772  -2.410  0.00  0.00    -0.272 OA
ATOM      4  H   UNL     1      -5.691   1.550  -0.551  0.00  0.00    +0.173 HD
ENDROOT
BRANCH   1   7
ATOM      5  C   UNL     1      -3.246   1.275  -1.331  0.00  0.00    +0.245 C 
ATOM      6  O   UNL     1      -3.382   2.166  -0.519  0.00  0.00    -0.273 OA
ATOM      7  N   UNL     1      -4.315   0.556  -1.728  0.00  0.00    -0.233 N 
ATOM      8  H   UNL     1      -4.207  -0.156  -2.377  0.00  0.00    +0.173 HD
BRANCH   5   9
ATOM      9  C   UNL     1      -1.883   0.973  -1.897  0.00  0.00    +0.206 C 
BRANCH   9  10
ATOM     10  N   UNL     1      -0.897   1.885  -1.312  0.00  0.00    -0.171 NA
ATOM     11  C   UNL     1      -0.691   3.213  -1.897  0.00  0.00    +0.132 C 
BRANCH  10  12
ATOM     12  S   UNL     1      -0.017   1.417   0.010  0.00  0.00    +0.061 S 
ATOM     13  O   UNL     1       0.002  -0.004   0.002  0.00  0.00    -0.153 OA
ATOM     14  O   UNL     1       1.172   2.195   0.003  0.00  0.00    -0.153 OA
BRANCH  12  19
ATOM     15  C   UNL     1      -3.131   3.072   4.906  0.00  0.00    +0.044 C 
ATOM     16  C   UNL     1      -2.353   2.659   3.683  0.00  0.00    -0.050 A 
ATOM     17  C   UNL     1      -2.559   1.412   3.121  0.00  0.00    +0.005 A 
ATOM     18  C   UNL     1      -1.846   1.033   2.000  0.00  0.00    +0.029 A 
ATOM     19  C   UNL     1      -0.927   1.900   1.439  0.00  0.00    +0.105 A 
ATOM     20  C   UNL     1      -0.717   3.145   2.004  0.00  0.00    +0.029 A 
ATOM     21  C   UNL     1      -1.434   3.526   3.123  0.00  0.00    +0.005 A 
ENDBRANCH  12  19
ENDBRANCH  10  12
ENDBRANCH   9  10
ENDBRANCH   5   9
ENDBRANCH   1   7
BRANCH   2  22
ATOM     22  C   UNL     1      -8.015   0.421  -1.031  0.00  0.00    +0.221 C 
BRANCH  22  23
ATOM     23  N   UNL     1      -9.000  -0.492  -1.616  0.00  0.00    -0.311 N 
ATOM     24  C   UNL     1      -9.736  -0.275  -2.764  0.00  0.00    +0.069 A 
ATOM     25  C   UNL     1      -9.810   0.763  -3.683  0.00  0.00    +0.028 A 
ATOM     26  C   UNL     1     -10.674   0.667  -4.753  0.00  0.00    +0.002 A 
ATOM     27  C   UNL     1     -11.469  -0.459  -4.917  0.00  0.00    +0.002 A 
ATOM     28  C   UNL     1     -11.403  -1.494  -4.027  0.00  0.00    +0.030 A 
ATOM     29  C   UNL     1     -10.538  -1.416  -2.932  0.00  0.00    +0.090 A 
ATOM     30  N   UNL     1     -10.263  -2.249  -1.895  0.00  0.00    -0.224 NA
ATOM     31  C   UNL     1      -9.364  -1.707  -1.126  0.00  0.00    +0.216 A 
BRANCH  31  32
ATOM     32  C   UNL     1      -8.807  -2.335   0.125  0.00  0.00    +0.451 C 
ATOM     33  F   UNL     1      -9.133  -3.696   0.149  0.00  0.00    -0.163 F 
ATOM     34  F   UNL     1      -7.416  -2.189   0.141  0.00  0.00    -0.163 F 
ATOM     35  F   UNL     1      -9.355  -1.705   1.247  0.00  0.00    -0.163 F 
ENDBRANCH  31  32
ENDBRANCH  22  23
ENDBRANCH   2  22
TORSDOF 8
