REMARK  Name = ZINC37203351
REMARK  4 active torsions:
REMARK  status: ('A' for Active; 'I' for Inactive)
REMARK    1  A    between atoms: C_1  and  C_2
REMARK    2  A    between atoms: C_3  and  C_11
REMARK    3  A    between atoms: C_11  and  N_12
REMARK    4  A    between atoms: N_12  and  C_13
REMARK                            x       y       z     vdW  Elec       q    Type
REMARK                         _______ _______ _______ _____ _____    ______ ____
ROOT
ATOM      1  C   UNL     1      -0.018   1.503   0.010  0.00  0.00    +0.065 C 
ATOM      2  C   UNL     1       0.002  -0.004   0.002  0.00  0.00    +0.036 A 
ATOM      3  C   UNL     1       0.008  -0.786  -1.100  0.00  0.00    +0.061 A 
ATOM      4  N   UNL     1       0.028  -2.086  -0.672  0.00  0.00    -0.303 N 
ATOM      5  C   UNL     1       0.042  -3.277  -1.339  0.00  0.00    +0.093 A 
ATOM      6  C   UNL     1       0.062  -4.444  -0.661  0.00  0.00    +0.018 A 
ATOM      7  C   UNL     1       0.069  -4.447   0.743  0.00  0.00    +0.005 A 
ATOM      8  C   UNL     1       0.055  -3.267   1.420  0.00  0.00    +0.045 A 
ATOM      9  C   UNL     1       0.034  -2.057   0.698  0.00  0.00    +0.116 A 
ATOM     10  N   UNL     1       0.024  -0.789   1.082  0.00  0.00    -0.343 N 
ATOM     11  H   UNL     1       0.028  -0.479   2.002  0.00  0.00    +0.167 HD
ENDROOT
BRANCH   3  12
ATOM     12  C   UNL     1      -0.006  -0.315  -2.531  0.00  0.00    +0.157 C 
BRANCH  12  13
ATOM     13  N   UNL     1      -1.392  -0.182  -2.988  0.00  0.00    -0.337 N 
ATOM     14  H   UNL     1      -2.123  -0.389  -2.385  0.00  0.00    +0.146 HD
BRANCH  13  15
ATOM     15  C   UNL     1      -1.660   0.244  -4.291  0.00  0.00    +0.042 A 
ATOM     16  C   UNL     1      -0.614   0.536  -5.157  0.00  0.00    +0.024 A 
ATOM     17  C   UNL     1      -0.882   0.956  -6.445  0.00  0.00    +0.002 A 
ATOM     18  C   UNL     1      -2.191   1.086  -6.873  0.00  0.00    +0.001 A 
ATOM     19  C   UNL     1      -3.235   0.797  -6.014  0.00  0.00    +0.017 A 
ATOM     20  C   UNL     1      -2.974   0.371  -4.726  0.00  0.00    +0.039 A 
ATOM     21 BR   UNL     1      -4.402  -0.032  -3.554  0.00  0.00    -0.048 Br
ENDBRANCH  13  15
ENDBRANCH  12  13
ENDBRANCH   3  12
TORSDOF 3
