REMARK  Name = ZINC45344093
REMARK  7 active torsions:
REMARK  status: ('A' for Active; 'I' for Inactive)
REMARK    1  A    between atoms: C_1  and  C_2
REMARK    2  A    between atoms: C_5  and  C_25
REMARK    3  A    between atoms: C_6  and  S_8
REMARK    4  A    between atoms: S_8  and  C_11
REMARK    5  A    between atoms: C_11  and  C_16
REMARK    6  A    between atoms: C_16  and  N_18
REMARK    7  A    between atoms: N_20  and  C_24
REMARK                            x       y       z     vdW  Elec       q    Type
REMARK                         _______ _______ _______ _____ _____    ______ ____
ROOT
ATOM      1  C   UNL     1      -2.864  -3.552   1.992  0.00  0.00    +0.170 C 
ATOM      2  C   UNL     1      -3.189  -4.402   0.739  0.00  0.00    +0.039 C 
ATOM      3  C   UNL     1      -4.584  -4.985   1.074  0.00  0.00    +0.003 C 
ATOM      4  C   UNL     1      -4.512  -5.294   2.584  0.00  0.00    +0.003 C 
ATOM      5  C   UNL     1      -3.418  -4.383   3.167  0.00  0.00    +0.039 C 
ENDROOT
BRANCH   1   6
ATOM      6  S   UNL     1      -1.071  -3.330   2.162  0.00  0.00    +0.011 S 
ATOM      7  O   UNL     1      -0.400  -4.558   1.909  0.00  0.00    -0.168 OA
ATOM      8  O   UNL     1      -0.779  -2.571   3.327  0.00  0.00    -0.168 OA
BRANCH   6  14
ATOM      9  C   UNL     1      -0.168  -2.522  -2.923  0.00  0.00    +0.044 C 
ATOM     10  C   UNL     1      -0.214  -1.970  -1.521  0.00  0.00    -0.049 A 
ATOM     11  C   UNL     1       0.101  -0.645  -1.289  0.00  0.00    +0.004 A 
ATOM     12  C   UNL     1       0.059  -0.139  -0.003  0.00  0.00    +0.005 A 
ATOM     13  C   UNL     1      -0.299  -0.960   1.051  0.00  0.00    -0.026 A 
ATOM     14  C   UNL     1      -0.615  -2.285   0.819  0.00  0.00    +0.092 A 
ATOM     15  C   UNL     1      -0.577  -2.789  -0.468  0.00  0.00    +0.030 A 
ATOM     16  C   UNL     1      -0.344  -0.409   2.453  0.00  0.00    +0.046 C 
ENDBRANCH   6  14
ENDBRANCH   1   6
BRANCH   1  17
ATOM     17  C   UNL     1      -3.554  -2.214   1.920  0.00  0.00    +0.266 C 
ATOM     18  O   UNL     1      -4.634  -2.058   2.459  0.00  0.00    -0.271 OA
BRANCH  17  19
ATOM     19  N   UNL     1      -2.985  -1.208   1.270  0.00  0.00    -0.155 NA
ATOM     20  C   UNL     1      -3.665  -0.554   0.325  0.00  0.00    +0.165 A 
ATOM     21  N   UNL     1      -4.895  -0.840  -0.181  0.00  0.00    -0.331 N 
ATOM     22  C   UNL     1      -5.409  -0.034  -1.149  0.00  0.00    +0.094 A 
ATOM     23  C   UNL     1      -4.661   1.001  -1.546  0.00  0.00    +0.066 A 
ATOM     24  S   UNL     1      -3.212   0.826  -0.522  0.00  0.00    -0.061 S 
ATOM     25  C   UNL     1      -5.652  -1.995   0.307  0.00  0.00    +0.150 C 
ENDBRANCH  17  19
ENDBRANCH   1  17
TORSDOF 4
