REMARK  Name = ZINC02307391
REMARK  2 active torsions:
REMARK  status: ('A' for Active; 'I' for Inactive)
REMARK    1  A    between atoms: C_6  and  C_7
REMARK    2  A    between atoms: C_10  and  C_12
REMARK                            x       y       z     vdW  Elec       q    Type
REMARK                         _______ _______ _______ _____ _____    ______ ____
ROOT
ATOM      1  C   UNL     1      -5.238   2.070  -0.171  0.00  0.00    +0.136 A 
ATOM      2  C   UNL     1      -5.744   3.349  -0.223  0.00  0.00    +0.050 A 
ATOM      3  C   UNL     1      -4.656   4.222  -0.148  0.00  0.00    +0.050 A 
ATOM      4  C   UNL     1      -3.520   3.438  -0.053  0.00  0.00    +0.130 A 
ATOM      5  O   UNL     1      -3.898   2.143  -0.075  0.00  0.00    -0.455 OA
ENDROOT
BRANCH   4   6
ATOM      6  C   UNL     1      -2.194   3.911   0.044  0.00  0.00    +0.066 C 
ATOM      7  C   UNL     1      -1.153   3.027   0.053  0.00  0.00    +0.080 C 
ATOM      8  C   UNL     1      -1.158   1.616  -0.161  0.00  0.00    +0.256 C 
ATOM      9  O   UNL     1      -2.195   1.020  -0.392  0.00  0.00    -0.269 OA
ATOM     10  N   UNL     1      -0.004   0.974  -0.096  0.00  0.00    -0.270 N 
ATOM     11  C   UNL     1       1.147   1.637   0.155  0.00  0.00    +0.118 C 
ATOM     12  S   UNL     1       2.738   1.016   0.275  0.00  0.00    -0.027 S 
ATOM     13  S   UNL     1       0.588   3.325   0.328  0.00  0.00    -0.061 S 
ATOM     14  H   UNL     1       0.018   0.014  -0.234  0.00  0.00    +0.156 HD
ENDBRANCH   4   6
BRANCH   1  20
ATOM     15  C   UNL     1      -7.424   0.888  -0.321  0.00  0.00    +0.014 A 
ATOM     16  C   UNL     1      -8.161  -0.277  -0.372  0.00  0.00    +0.040 A 
ATOM     17  C   UNL     1      -7.524  -1.506  -0.311  0.00  0.00    +0.142 A 
ATOM     18  C   UNL     1      -6.142  -1.574  -0.204  0.00  0.00    +0.077 A 
ATOM     19  C   UNL     1      -5.395  -0.415  -0.158  0.00  0.00    +0.034 A 
ATOM     20  C   UNL     1      -6.032   0.827  -0.219  0.00  0.00    +0.019 A 
ATOM     21 CL   UNL     1      -5.353  -3.118  -0.128  0.00  0.00    -0.081 Cl
ATOM     22  F   UNL     1      -8.252  -2.644  -0.356  0.00  0.00    -0.204 F 
ENDBRANCH   1  20
TORSDOF 2
