REMARK  Name = ZINC22325538
REMARK  10 active torsions:
REMARK  status: ('A' for Active; 'I' for Inactive)
REMARK    1  A    between atoms: C_1  and  C_2
REMARK    2  A    between atoms: C_5  and  S_8
REMARK    3  A    between atoms: S_8  and  N_11
REMARK    4  A    between atoms: N_11  and  C_12
REMARK    5  A    between atoms: N_11  and  C_29
REMARK    6  A    between atoms: C_12  and  C_13
REMARK    7  A    between atoms: N_15  and  C_16
REMARK    8  A    between atoms: C_19  and  C_27
REMARK    9  A    between atoms: C_19  and  C_28
REMARK   10  A    between atoms: C_34  and  C_35
REMARK                            x       y       z     vdW  Elec       q    Type
REMARK                         _______ _______ _______ _____ _____    ______ ____
ROOT
ATOM      1  N   UNL     1      -3.399   1.937  -0.660  0.00  0.00    -0.194 N 
ENDROOT
BRANCH   1   2
ATOM      2  C   UNL     1      -3.701   2.147  -2.008  0.00  0.00    +0.056 A 
ATOM      3  C   UNL     1      -2.893   2.971  -2.782  0.00  0.00    +0.025 A 
ATOM      4  C   UNL     1      -3.190   3.172  -4.115  0.00  0.00    +0.003 A 
ATOM      5  C   UNL     1      -4.297   2.564  -4.678  0.00  0.00    +0.020 A 
ATOM      6  C   UNL     1      -5.107   1.747  -3.909  0.00  0.00    +0.046 A 
ATOM      7  C   UNL     1      -4.812   1.537  -2.575  0.00  0.00    -0.010 A 
ATOM      8  C   UNL     1      -5.694   0.647  -1.738  0.00  0.00    +0.047 C 
ATOM      9 CL   UNL     1      -6.495   0.985  -4.621  0.00  0.00    -0.083 Cl
ENDBRANCH   1   2
BRANCH   1  10
ATOM     10  S   UNL     1      -4.143   2.848   0.506  0.00  0.00    +0.075 S 
ATOM     11  O   UNL     1      -5.399   3.243  -0.027  0.00  0.00    -0.150 OA
ATOM     12  O   UNL     1      -4.025   2.123   1.723  0.00  0.00    -0.150 OA
BRANCH  10  17
ATOM     13  C   UNL     1      -0.890   7.885   1.178  0.00  0.00    +0.044 C 
ATOM     14  C   UNL     1      -1.703   6.627   1.011  0.00  0.00    -0.050 A 
ATOM     15  C   UNL     1      -2.753   6.597   0.113  0.00  0.00    +0.005 A 
ATOM     16  C   UNL     1      -3.498   5.443  -0.041  0.00  0.00    +0.029 A 
ATOM     17  C   UNL     1      -3.193   4.319   0.703  0.00  0.00    +0.109 A 
ATOM     18  C   UNL     1      -2.146   4.350   1.605  0.00  0.00    +0.029 A 
ATOM     19  C   UNL     1      -1.398   5.503   1.756  0.00  0.00    +0.005 A 
ENDBRANCH  10  17
ENDBRANCH   1  10
BRANCH   1  20
ATOM     20  C   UNL     1      -2.425   0.911  -0.279  0.00  0.00    +0.227 C 
BRANCH  20  21
ATOM     21  C   UNL     1      -1.035   1.490  -0.342  0.00  0.00    +0.233 C 
ATOM     22  O   UNL     1      -0.879   2.666  -0.594  0.00  0.00    -0.274 OA
ATOM     23  N   UNL     1       0.034   0.701  -0.119  0.00  0.00    -0.307 N 
ATOM     24  H   UNL     1      -0.103  -0.379   0.041  0.00  0.00    +0.149 HD
BRANCH  23  25
ATOM     25  C   UNL     1       1.379   1.281  -0.088  0.00  0.00    +0.110 C 
ATOM     26  C   UNL     1       2.380   0.278  -0.666  0.00  0.00    +0.074 C 
ATOM     27  C   UNL     1       3.797   0.778  -0.357  0.00  0.00    +0.107 C 
ATOM     28  O   UNL     1       3.980   0.767   1.059  0.00  0.00    -0.486 OA
ATOM     29  C   UNL     1       3.018   1.340   1.828  0.00  0.00    +0.126 A 
ATOM     30  C   UNL     1       1.753   1.607   1.335  0.00  0.00    +0.015 A 
ATOM     31  C   UNL     1       0.801   2.187   2.158  0.00  0.00    +0.009 A 
ATOM     32  C   UNL     1       1.110   2.502   3.467  0.00  0.00    +0.001 A 
ATOM     33  C   UNL     1       2.374   2.240   3.961  0.00  0.00    +0.004 A 
ATOM     34  C   UNL     1       3.326   1.660   3.147  0.00  0.00    +0.046 A 
ATOM     35  C   UNL     1       4.825  -0.143  -1.018  0.00  0.00    +0.055 C 
ATOM     36  C   UNL     1       3.966   2.204  -0.887  0.00  0.00    +0.055 C 
ENDBRANCH  23  25
ENDBRANCH  20  21
ENDBRANCH   1  20
TORSDOF 6
