REMARK  Name = ZINC20547217
REMARK  8 active torsions:
REMARK  status: ('A' for Active; 'I' for Inactive)
REMARK    1  A    between atoms: C_1  and  C_2
REMARK    2  A    between atoms: C_2  and  N_3
REMARK    3  A    between atoms: C_9  and  N_20
REMARK    4  A    between atoms: C_10  and  C_11
REMARK    5  A    between atoms: C_21  and  C_23
REMARK    6  A    between atoms: C_23  and  C_24
REMARK    7  A    between atoms: C_24  and  S_25
REMARK    8  A    between atoms: S_25  and  C_26
REMARK                            x       y       z     vdW  Elec       q    Type
REMARK                         _______ _______ _______ _____ _____    ______ ____
ROOT
ATOM      1  N   UNL     1       3.791   3.204  -0.378  0.00  0.00    -0.298 NA
ATOM      2  C   UNL     1       2.822   3.942   0.444  0.00  0.00    +0.089 C 
ATOM      3  C   UNL     1       1.395   3.597   0.012  0.00  0.00    +0.052 C 
ATOM      4  C   UNL     1       1.255   2.077   0.001  0.00  0.00    -0.023 A 
ATOM      5  C   UNL     1       2.364   1.299  -0.015  0.00  0.00    +0.009 A 
ATOM      6  S   UNL     1       1.750  -0.361  -0.017  0.00  0.00    -0.076 S 
ATOM      7  C   UNL     1       0.002  -0.004   0.002  0.00  0.00    +0.082 A 
ATOM      8  C   UNL     1      -0.017   1.382   0.010  0.00  0.00    +0.039 A 
ATOM      9  C   UNL     1       3.784   1.771  -0.028  0.00  0.00    +0.127 C 
ENDROOT
BRANCH   8  10
ATOM     10  C   UNL     1      -1.289   2.124   0.020  0.00  0.00    +0.112 A 
ATOM     11  N   UNL     1      -1.485   3.427   0.033  0.00  0.00    -0.239 NA
ATOM     12  C   UNL     1      -2.719   3.973   0.036  0.00  0.00    +0.079 A 
ATOM     13  C   UNL     1      -3.067   5.344   0.045  0.00  0.00    +0.029 A 
ATOM     14  C   UNL     1      -4.380   5.733   0.053  0.00  0.00    +0.002 A 
ATOM     15  C   UNL     1      -5.412   4.804   0.054  0.00  0.00    +0.001 A 
ATOM     16  C   UNL     1      -5.108   3.455   0.045  0.00  0.00    +0.017 A 
ATOM     17  C   UNL     1      -3.795   3.055   0.037  0.00  0.00    +0.040 A 
ATOM     18  S   UNL     1      -2.959   1.488   0.025  0.00  0.00    -0.067 S 
ENDBRANCH   8  10
BRANCH   7  19
ATOM     19  N   UNL     1      -1.069  -0.891   0.007  0.00  0.00    -0.279 N 
ATOM     20  C   UNL     1      -0.844  -2.219  -0.002  0.00  0.00    +0.218 C 
ATOM     21  O   UNL     1       0.293  -2.642  -0.015  0.00  0.00    -0.275 OA
ATOM     22  H   UNL     1      -2.100  -0.507   0.019  0.00  0.00    +0.155 HD
BRANCH  20  23
ATOM     23  C   UNL     1      -2.005  -3.180   0.004  0.00  0.00    +0.107 C 
BRANCH  23  24
ATOM     24  C   UNL     1      -1.478  -4.617  -0.009  0.00  0.00    +0.083 C 
BRANCH  24  25
ATOM     25  S   UNL     1      -2.876  -5.773  -0.002  0.00  0.00    -0.125 S 
BRANCH  25  26
ATOM     26  C   UNL     1      -2.114  -7.362  -0.018  0.00  0.00    +0.008 A 
ATOM     27  C   UNL     1      -0.729  -7.470  -0.037  0.00  0.00    +0.017 A 
ATOM     28  C   UNL     1      -0.134  -8.716  -0.044  0.00  0.00    +0.039 A 
ATOM     29  C   UNL     1      -0.917  -9.858  -0.043  0.00  0.00    +0.123 A 
ATOM     30  C   UNL     1      -2.298  -9.754  -0.029  0.00  0.00    +0.039 A 
ATOM     31  C   UNL     1      -2.897  -8.509  -0.017  0.00  0.00    +0.017 A 
ATOM     32  F   UNL     1      -0.333 -11.076  -0.054  0.00  0.00    -0.205 F 
ENDBRANCH  25  26
ENDBRANCH  24  25
ENDBRANCH  23  24
ENDBRANCH  20  23
ENDBRANCH   7  19
BRANCH   1  34
ATOM     33  C   UNL     1       5.553   3.755   1.233  0.00  0.00    +0.020 C 
ATOM     34  C   UNL     1       5.139   3.772  -0.240  0.00  0.00    +0.081 C 
ENDBRANCH   1  34
TORSDOF 7
