REMARK  Name = ZINC63527215
REMARK  8 active torsions:
REMARK  status: ('A' for Active; 'I' for Inactive)
REMARK    1  A    between atoms: C_1  and  C_2
REMARK    2  A    between atoms: C_10  and  N_18
REMARK    3  A    between atoms: C_12  and  C_14
REMARK    4  A    between atoms: C_14  and  O_16
REMARK    5  A    between atoms: O_16  and  C_17
REMARK    6  A    between atoms: C_19  and  C_21
REMARK    7  A    between atoms: C_21  and  S_22
REMARK    8  A    between atoms: S_22  and  C_23
REMARK                            x       y       z     vdW  Elec       q    Type
REMARK                         _______ _______ _______ _____ _____    ______ ____
ROOT
ATOM      1  N   UNL     1      -0.097  -5.256   1.708  0.00  0.00    -0.301 N 
ATOM      2  C   UNL     1      -0.216  -6.342   2.497  0.00  0.00    +0.224 C 
ATOM      3  O   UNL     1       0.772  -6.853   2.980  0.00  0.00    -0.275 OA
ATOM      4  H   UNL     1      -0.887  -4.848   1.321  0.00  0.00    +0.150 HD
ENDROOT
BRANCH   1  13
ATOM      5  C   UNL     1      -0.019   1.526   0.010  0.00  0.00    +0.008 C 
ATOM      6  C   UNL     1       0.002  -0.004   0.002  0.00  0.00    -0.009 C 
ATOM      7  C   UNL     1       0.727  -0.502  -1.252  0.00  0.00    +0.008 C 
ATOM      8  C   UNL     1       0.548  -2.014  -1.379  0.00  0.00    +0.033 C 
ATOM      9  C   UNL     1       0.962  -2.679  -0.068  0.00  0.00    -0.044 C 
ATOM     10  C   UNL     1       1.030  -1.983   1.061  0.00  0.00    -0.012 C 
ATOM     11  C   UNL     1       0.751  -0.516   1.238  0.00  0.00    +0.045 C 
ATOM     12  S   UNL     1       1.492  -3.115   2.352  0.00  0.00    -0.106 S 
ATOM     13  C   UNL     1       1.227  -4.691   1.436  0.00  0.00    +0.153 C 
ATOM     14  C   UNL     1       1.326  -4.141  -0.008  0.00  0.00    +0.155 C 
BRANCH  14  15
ATOM     15  C   UNL     1       2.737  -4.319  -0.508  0.00  0.00    +0.317 C 
ATOM     16  O   UNL     1       3.374  -3.360  -0.872  0.00  0.00    -0.250 OA
BRANCH  15  17
ATOM     17  O   UNL     1       3.285  -5.544  -0.548  0.00  0.00    -0.467 OA
ATOM     18  C   UNL     1       4.626  -5.638  -1.033  0.00  0.00    +0.280 C 
ENDBRANCH  15  17
ENDBRANCH  14  15
ENDBRANCH   1  13
BRANCH   2  19
ATOM     19  C   UNL     1      -1.578  -6.923   2.777  0.00  0.00    +0.173 C 
BRANCH  19  20
ATOM     20  S   UNL     1      -1.408  -8.368   3.861  0.00  0.00    -0.078 S 
BRANCH  20  21
ATOM     21  C   UNL     1      -3.063  -8.925   4.091  0.00  0.00    +0.170 A 
ATOM     22  N   UNL     1      -3.302 -10.014   4.875  0.00  0.00    -0.302 N 
ATOM     23  H   UNL     1      -2.567 -10.475   5.307  0.00  0.00    +0.171 HD
ATOM     24  C   UNL     1      -4.568 -10.444   5.045  0.00  0.00    +0.255 A 
ATOM     25  O   UNL     1      -4.802 -11.420   5.738  0.00  0.00    -0.267 OA
ATOM     26  C   UNL     1      -5.621  -9.750   4.410  0.00  0.00    +0.038 A 
ATOM     27  C   UNL     1      -5.326  -8.666   3.647  0.00  0.00    +0.052 A 
ATOM     28  N   UNL     1      -4.052  -8.281   3.509  0.00  0.00    -0.228 NA
ATOM     29  C   UNL     1      -6.384  -7.853   2.947  0.00  0.00    +0.056 C 
ATOM     30  C   UNL     1      -7.688  -8.641   2.846  0.00  0.00    +0.006 C 
ATOM     31  C   UNL     1      -8.040  -9.176   4.239  0.00  0.00    +0.005 C 
ATOM     32  C   UNL     1      -7.024 -10.254   4.611  0.00  0.00    +0.042 C 
ENDBRANCH  20  21
ENDBRANCH  19  20
ENDBRANCH   2  19
TORSDOF 6
