REMARK  Name = ZINC01803817
REMARK  8 active torsions:
REMARK  status: ('A' for Active; 'I' for Inactive)
REMARK    1  A    between atoms: C_1  and  C_2
REMARK    2  A    between atoms: C_2  and  C_3
REMARK    3  A    between atoms: C_3  and  C_4
REMARK    4  A    between atoms: C_4  and  O_5
REMARK    5  A    between atoms: O_5  and  C_6
REMARK    6  A    between atoms: C_9  and  C_12
REMARK    7  A    between atoms: C_23  and  C_25
REMARK    8  A    between atoms: C_23  and  C_26
REMARK                            x       y       z     vdW  Elec       q    Type
REMARK                         _______ _______ _______ _____ _____    ______ ____
ROOT
ATOM      1  C   UNL     1      -0.650   3.977   0.030  0.00  0.00    +0.140 A 
ATOM      2  N   UNL     1       0.619   4.374   0.020  0.00  0.00    -0.221 NA
ATOM      3  C   UNL     1       1.624   3.515   0.005  0.00  0.00    +0.120 A 
ATOM      4  C   UNL     1       1.346   2.118   0.001  0.00  0.00    +0.042 A 
ATOM      5  C   UNL     1       2.283   0.998  -0.014  0.00  0.00    -0.021 A 
ATOM      6  C   UNL     1       1.756  -0.246  -0.016  0.00  0.00    +0.021 A 
ATOM      7  S   UNL     1       0.002  -0.004   0.002  0.00  0.00    -0.073 S 
ATOM      8  C   UNL     1      -0.022   1.770   0.012  0.00  0.00    +0.089 A 
ATOM      9  N   UNL     1      -0.967   2.688   0.030  0.00  0.00    -0.334 N 
ATOM     10  C   UNL     1       2.522  -1.532  -0.030  0.00  0.00    +0.203 C 
ATOM     11  O   UNL     1       3.886  -1.230  -0.362  0.00  0.00    -0.368 OA
ATOM     12  C   UNL     1       4.434  -0.153   0.402  0.00  0.00    +0.068 C 
ATOM     13  C   UNL     1       3.800   1.173  -0.027  0.00  0.00    +0.071 C 
ATOM     14  C   UNL     1       4.155  -0.391   1.888  0.00  0.00    +0.041 C 
ATOM     15  C   UNL     1       5.946  -0.086   0.175  0.00  0.00    +0.041 C 
ATOM     16  S   UNL     1       3.288   4.092  -0.008  0.00  0.00    -0.030 S 
ATOM     17  H   UNL     1      -2.024   2.381   0.046  0.00  0.00    +0.168 HD
ENDROOT
BRANCH   1  21
ATOM     18  C   UNL     1      -3.748   6.888   0.074  0.00  0.00    +0.121 A 
ATOM     19  C   UNL     1      -2.419   7.291   0.064  0.00  0.00    +0.046 A 
ATOM     20  C   UNL     1      -1.412   6.350   0.049  0.00  0.00    +0.015 A 
ATOM     21  C   UNL     1      -1.730   4.991   0.045  0.00  0.00    +0.018 A 
ATOM     22  C   UNL     1      -3.065   4.590   0.050  0.00  0.00    +0.015 A 
ATOM     23  C   UNL     1      -4.067   5.537   0.070  0.00  0.00    +0.046 A 
BRANCH  18  24
ATOM     24  O   UNL     1      -4.738   7.819   0.088  0.00  0.00    -0.492 OA
BRANCH  24  25
ATOM     25  C   UNL     1      -6.082   7.335   0.099  0.00  0.00    +0.229 C 
BRANCH  25  26
ATOM     26  C   UNL     1      -7.050   8.520   0.114  0.00  0.00    +0.041 C 
BRANCH  26  28
ATOM     27  C   UNL     1      -9.458   9.187   0.140  0.00  0.00    +0.004 C 
ATOM     28  C   UNL     1      -8.490   8.002   0.125  0.00  0.00    -0.000 C 
ENDBRANCH  26  28
ENDBRANCH  25  26
ENDBRANCH  24  25
ENDBRANCH  18  24
ENDBRANCH   1  21
TORSDOF 5
