REMARK  Name = ZINC19376345
REMARK  5 active torsions:
REMARK  status: ('A' for Active; 'I' for Inactive)
REMARK    1  A    between atoms: N_15  and  C_18
REMARK    2  A    between atoms: C_18  and  C_19
REMARK    3  A    between atoms: C_19  and  C_21
REMARK    4  A    between atoms: C_19  and  O_29
REMARK    5  A    between atoms: C_31  and  O_33
REMARK                            x       y       z     vdW  Elec       q    Type
REMARK                         _______ _______ _______ _____ _____    ______ ____
ROOT
ATOM      1  C   UNL     1       1.191   1.778   0.000  0.00  0.00    +0.001 A 
ATOM      2  C   UNL     1      -0.013   1.076   0.008  0.00  0.00    +0.001 A 
ATOM      3  C   UNL     1      -1.206   1.730   0.017  0.00  0.00    +0.012 A 
ATOM      4  C   UNL     1      -1.228   3.134   0.031  0.00  0.00    +0.024 A 
ATOM      5  C   UNL     1      -0.006   3.848   0.026  0.00  0.00    -0.014 A 
ATOM      6  C   UNL     1       1.208   3.140   0.009  0.00  0.00    +0.008 A 
ATOM      7  C   UNL     1      -0.033   5.253   0.041  0.00  0.00    +0.009 A 
ATOM      8  C   UNL     1      -1.226   5.902   0.065  0.00  0.00    +0.010 A 
ATOM      9  C   UNL     1      -2.438   5.206   0.070  0.00  0.00    +0.023 A 
ATOM     10  C   UNL     1      -2.452   3.843   0.045  0.00  0.00    +0.135 A 
ATOM     11  O   UNL     1      -3.608   3.131   0.031  0.00  0.00    -0.485 OA
ATOM     12  C   UNL     1      -4.812   3.795   0.408  0.00  0.00    +0.110 C 
ATOM     13  C   UNL     1      -6.019   2.931   0.039  0.00  0.00    +0.029 C 
ATOM     14  C   UNL     1      -5.971   1.627   0.839  0.00  0.00    -0.075 C 
ATOM     15  N   UNL     1      -5.980   1.932   2.275  0.00  0.00    +0.382 N 
ATOM     16  C   UNL     1      -4.801   2.717   2.659  0.00  0.00    -0.075 C 
ATOM     17  C   UNL     1      -4.813   4.055   1.915  0.00  0.00    +0.029 C 
ATOM     18  C   UNL     1      -4.889   5.129  -0.344  0.00  0.00    +0.084 C 
ATOM     19  C   UNL     1      -3.718   6.004   0.108  0.00  0.00    +0.152 C 
ATOM     20  H   UNL     1      -6.872   2.542   2.482  0.00  0.00    -0.082 HD
ENDROOT
BRANCH  19  21
ATOM     21  O   UNL     1      -3.602   7.130  -0.764  0.00  0.00    -0.387 OA
ATOM     22  H   UNL     1      -4.442   7.832  -0.869  0.00  0.00    +0.210 HD
ENDBRANCH  19  21
BRANCH  15  23
ATOM     23  C   UNL     1      -6.077   0.702   3.073  0.00  0.00    -0.042 C 
BRANCH  23  24
ATOM     24  C   UNL     1      -7.160  -0.204   2.485  0.00  0.00    +0.128 C 
BRANCH  24  25
ATOM     25  C   UNL     1      -7.259  -1.465   3.304  0.00  0.00    -0.018 A 
ATOM     26  C   UNL     1      -8.039  -1.488   4.445  0.00  0.00    +0.009 A 
ATOM     27  C   UNL     1      -8.136  -2.645   5.195  0.00  0.00    +0.041 A 
ATOM     28  C   UNL     1      -7.443  -3.780   4.809  0.00  0.00    +0.158 A 
ATOM     29  C   UNL     1      -6.657  -3.755   3.667  0.00  0.00    +0.159 A 
ATOM     30  C   UNL     1      -6.566  -2.596   2.916  0.00  0.00    +0.047 A 
ATOM     31  F   UNL     1      -5.980  -4.861   3.289  0.00  0.00    -0.202 F 
ATOM     32  F   UNL     1      -7.533  -4.910   5.544  0.00  0.00    -0.202 F 
ENDBRANCH  24  25
BRANCH  24  33
ATOM     33  O   UNL     1      -8.416   0.478   2.507  0.00  0.00    -0.389 OA
ATOM     34  H   UNL     1      -9.318  -0.019   2.121  0.00  0.00    +0.210 HD
ENDBRANCH  24  33
ENDBRANCH  23  24
ENDBRANCH  15  23
TORSDOF 5
