REMARK  Name = ZINC52837378
REMARK  6 active torsions:
REMARK  status: ('A' for Active; 'I' for Inactive)
REMARK    1  A    between atoms: C_4  and  C_9
REMARK    2  A    between atoms: C_5  and  C_7
REMARK    3  A    between atoms: C_14  and  C_15
REMARK    4  A    between atoms: N_17  and  N_18
REMARK    5  A    between atoms: C_19  and  C_21
REMARK    6  A    between atoms: C_21  and  C_22
REMARK                            x       y       z     vdW  Elec       q    Type
REMARK                         _______ _______ _______ _____ _____    ______ ____
ROOT
ATOM      1  C   UNL     1       3.176  -1.567  -2.305  0.00  0.00    +0.261 C 
ATOM      2  O   UNL     1       2.107  -0.989  -2.298  0.00  0.00    -0.269 OA
ATOM      3  N   UNL     1       3.530  -2.318  -3.366  0.00  0.00    -0.230 N 
ATOM      4  H   UNL     1       4.383  -2.779  -3.371  0.00  0.00    +0.173 HD
ENDROOT
BRANCH   1  10
ATOM      5  C   UNL     1       3.723  -0.662  -0.040  0.00  0.00    -0.005 A 
ATOM      6  C   UNL     1       4.591  -0.561   1.045  0.00  0.00    +0.009 A 
ATOM      7  C   UNL     1       5.802  -1.222   1.025  0.00  0.00    +0.001 A 
ATOM      8  C   UNL     1       6.164  -1.989  -0.071  0.00  0.00    +0.001 A 
ATOM      9  C   UNL     1       5.319  -2.101  -1.155  0.00  0.00    +0.014 A 
ATOM     10  C   UNL     1       4.088  -1.445  -1.150  0.00  0.00    +0.046 A 
BRANCH   5  14
ATOM     11  C   UNL     1      -0.017   1.375   0.010  0.00  0.00    +0.001 A 
ATOM     12  C   UNL     1       1.168   2.093   0.002  0.00  0.00    +0.001 A 
ATOM     13  C   UNL     1       2.383   1.438  -0.013  0.00  0.00    +0.010 A 
ATOM     14  C   UNL     1       2.423   0.045  -0.022  0.00  0.00    +0.000 A 
ATOM     15  C   UNL     1       1.220  -0.685  -0.014  0.00  0.00    +0.059 A 
ATOM     16  C   UNL     1       0.002  -0.004   0.002  0.00  0.00    +0.019 A 
BRANCH  15  17
ATOM     17  C   UNL     1       1.246  -2.116  -0.023  0.00  0.00    +0.100 C 
ATOM     18  N   UNL     1       1.266  -3.252  -0.030  0.00  0.00    -0.191 NA
ENDBRANCH  15  17
ENDBRANCH   5  14
ENDBRANCH   1  10
BRANCH   3  19
ATOM     19  N   UNL     1       2.665  -2.434  -4.462  0.00  0.00    -0.234 N 
ATOM     20  C   UNL     1       3.018  -3.186  -5.524  0.00  0.00    +0.233 C 
ATOM     21  O   UNL     1       4.086  -3.762  -5.530  0.00  0.00    -0.274 OA
ATOM     22  H   UNL     1       1.811  -1.973  -4.457  0.00  0.00    +0.173 HD
BRANCH  20  23
ATOM     23  C   UNL     1       2.088  -3.310  -6.702  0.00  0.00    +0.132 C 
BRANCH  23  24
ATOM     24  C   UNL     1       2.715  -4.199  -7.746  0.00  0.00    -0.038 A 
ATOM     25  C   UNL     1       3.520  -3.650  -8.726  0.00  0.00    +0.007 A 
ATOM     26  C   UNL     1       4.096  -4.464  -9.684  0.00  0.00    +0.038 A 
ATOM     27  C   UNL     1       3.866  -5.830  -9.660  0.00  0.00    +0.123 A 
ATOM     28  C   UNL     1       3.059  -6.378  -8.677  0.00  0.00    +0.038 A 
ATOM     29  C   UNL     1       2.489  -5.562  -7.718  0.00  0.00    +0.007 A 
ATOM     30  F   UNL     1       4.428  -6.626 -10.595  0.00  0.00    -0.205 F 
ENDBRANCH  23  24
ENDBRANCH  20  23
ENDBRANCH   3  19
TORSDOF 6
