REMARK  Name = ZINC59170778
REMARK  6 active torsions:
REMARK  status: ('A' for Active; 'I' for Inactive)
REMARK    1  A    between atoms: C_1  and  C_2
REMARK    2  A    between atoms: C_6  and  N_8
REMARK    3  A    between atoms: C_10  and  C_22
REMARK    4  A    between atoms: C_16  and  O_19
REMARK    5  A    between atoms: O_19  and  C_20
REMARK    6  A    between atoms: C_22  and  N_24
REMARK                            x       y       z     vdW  Elec       q    Type
REMARK                         _______ _______ _______ _____ _____    ______ ____
ROOT
ATOM      1  N   UNL     1      -0.139  -2.528   2.696  0.00  0.00    -0.325 N 
ATOM      2  C   UNL     1      -0.820  -3.653   2.670  0.00  0.00    +0.209 A 
ATOM      3  C   UNL     1      -0.671  -4.658   3.743  0.00  0.00    +0.064 A 
ATOM      4  C   UNL     1      -1.752  -5.498   3.977  0.00  0.00    +0.027 A 
ATOM      5  C   UNL     1      -2.942  -5.313   3.141  0.00  0.00    +0.023 A 
ATOM      6  C   UNL     1      -4.156  -5.925   3.479  0.00  0.00    +0.027 A 
ATOM      7  C   UNL     1      -5.262  -5.732   2.682  0.00  0.00    +0.022 A 
ATOM      8  C   UNL     1      -5.181  -4.937   1.547  0.00  0.00    +0.064 A 
ATOM      9  C   UNL     1      -3.988  -4.328   1.197  0.00  0.00    +0.164 A 
ATOM     10  C   UNL     1      -2.858  -4.511   1.989  0.00  0.00    +0.179 A 
ATOM     11  O   UNL     1      -1.685  -3.925   1.659  0.00  0.00    -0.435 OA
ATOM     12 BR   UNL     1      -6.902  -6.556   3.136  0.00  0.00    -0.050 Br
ATOM     13  H   UNL     1       0.399  -2.304   3.471  0.00  0.00    +0.169 HD
ENDROOT
BRANCH   1  19
ATOM     14  C   UNL     1      -0.591   2.033   0.977  0.00  0.00    +0.044 C 
ATOM     15  C   UNL     1      -0.409   0.554   0.756  0.00  0.00    -0.049 A 
ATOM     16  C   UNL     1      -0.293   0.057  -0.531  0.00  0.00    +0.003 A 
ATOM     17  C   UNL     1      -0.127  -1.300  -0.743  0.00  0.00    +0.002 A 
ATOM     18  C   UNL     1      -0.074  -2.168   0.328  0.00  0.00    +0.026 A 
ATOM     19  C   UNL     1      -0.190  -1.673   1.629  0.00  0.00    +0.042 A 
ATOM     20  C   UNL     1      -0.353  -0.301   1.836  0.00  0.00    +0.029 A 
ENDBRANCH   1  19
BRANCH   9  21
ATOM     21  O   UNL     1      -3.920  -3.553   0.082  0.00  0.00    -0.491 OA
ATOM     22  C   UNL     1      -5.119  -3.409  -0.682  0.00  0.00    +0.277 C 
ENDBRANCH   9  21
BRANCH   3  23
ATOM     23  C   UNL     1       0.568  -4.764   4.528  0.00  0.00    +0.082 C 
ATOM     24  S   UNL     1       1.931  -3.818   4.108  0.00  0.00    -0.035 S 
BRANCH  23  25
ATOM     25  N   UNL     1       0.630  -5.607   5.578  0.00  0.00    -0.352 N 
ATOM     26  H   UNL     1      -0.143  -6.143   5.816  0.00  0.00    +0.143 HD
ATOM     27  H   UNL     1       1.447  -5.677   6.096  0.00  0.00    +0.143 HD
ENDBRANCH  23  25
ENDBRANCH   3  23
TORSDOF 4
