REMARK  Name = ZINC11330729
REMARK  2 active torsions:
REMARK  status: ('A' for Active; 'I' for Inactive)
REMARK    1  A    between atoms: C_2  and  O_10
REMARK    2  A    between atoms: O_10  and  C_11
REMARK                            x       y       z     vdW  Elec       q    Type
REMARK                         _______ _______ _______ _____ _____    ______ ____
ROOT
ATOM      1  O   UNL     1       0.002  -0.004   0.002  0.00  0.00    -0.478 OA
ENDROOT
BRANCH   1   3
ATOM      2  C   UNL     1       0.126   0.118   2.375  0.00  0.00    +0.068 A 
ATOM      3  C   UNL     1       0.128  -0.626   1.204  0.00  0.00    +0.141 A 
ATOM      4  C   UNL     1       0.252  -2.007   1.262  0.00  0.00    +0.084 A 
ATOM      5  C   UNL     1       0.385  -2.638   2.486  0.00  0.00    +0.045 A 
ATOM      6  C   UNL     1       0.383  -1.894   3.652  0.00  0.00    +0.061 A 
ATOM      7  C   UNL     1       0.253  -0.517   3.596  0.00  0.00    +0.063 A 
ATOM      8 CL   UNL     1       0.251   0.414   5.062  0.00  0.00    -0.082 Cl
ATOM      9 CL   UNL     1       0.543  -2.689   5.187  0.00  0.00    -0.082 Cl
ATOM     10 CL   UNL     1       0.247  -2.942  -0.201  0.00  0.00    -0.080 Cl
ENDBRANCH   1   3
BRANCH   1  11
ATOM     11  C   UNL     1      -0.250   1.402   0.023  0.00  0.00    +0.259 C 
ATOM     12  C   UNL     1      -0.932   1.822  -1.282  0.00  0.00    +0.054 C 
ATOM     13  C   UNL     1      -0.414   1.000  -2.447  0.00  0.00    +0.006 C 
ATOM     14  C   UNL     1       1.043   1.260  -2.781  0.00  0.00    +0.019 C 
ATOM     15  C   UNL     1       1.956   0.773  -1.654  0.00  0.00    +0.104 C 
ATOM     16  N   UNL     1       2.084   1.846  -0.655  0.00  0.00    -0.312 N 
ATOM     17  C   UNL     1       1.060   2.152   0.143  0.00  0.00    +0.254 C 
ATOM     18  O   UNL     1       1.178   3.035   0.966  0.00  0.00    -0.272 OA
ATOM     19  H   UNL     1       2.919   2.333  -0.576  0.00  0.00    +0.149 HD
ENDBRANCH   1  11
TORSDOF 2
