REMARK  Name = ZINC65042698
REMARK  7 active torsions:
REMARK  status: ('A' for Active; 'I' for Inactive)
REMARK    1  A    between atoms: C_4  and  O_7
REMARK    2  A    between atoms: O_7  and  C_8
REMARK    3  A    between atoms: C_8  and  C_9
REMARK    4  A    between atoms: C_9  and  N_10
REMARK    5  A    between atoms: C_22  and  S_24
REMARK    6  A    between atoms: S_24  and  C_25
REMARK    7  A    between atoms: C_25  and  C_26
REMARK                            x       y       z     vdW  Elec       q    Type
REMARK                         _______ _______ _______ _____ _____    ______ ____
ROOT
ATOM      1  N   UNL     1       5.643  -3.027   1.072  0.00  0.00    -0.293 N 
ATOM      2  C   UNL     1       6.465  -1.888   1.109  0.00  0.00    +0.054 A 
ATOM      3  C   UNL     1       6.698  -0.911   0.150  0.00  0.00    +0.025 A 
ATOM      4  C   UNL     1       7.532   0.154   0.431  0.00  0.00    +0.002 A 
ATOM      5  C   UNL     1       8.138   0.252   1.670  0.00  0.00    +0.002 A 
ATOM      6  C   UNL     1       7.928  -0.724   2.624  0.00  0.00    +0.025 A 
ATOM      7  C   UNL     1       7.105  -1.809   2.347  0.00  0.00    +0.055 A 
ATOM      8  N   UNL     1       6.802  -2.946   3.090  0.00  0.00    -0.271 N 
ATOM      9  C   UNL     1       5.634  -3.581   2.424  0.00  0.00    +0.251 C 
ATOM     10  N   UNL     1       5.996  -5.013   2.458  0.00  0.00    -0.218 NA
ATOM     11  N   UNL     1       6.608  -5.188   3.784  0.00  0.00    -0.225 NA
ATOM     12  C   UNL     1       7.108  -3.855   4.198  0.00  0.00    +0.218 C 
ATOM     13  H   UNL     1       5.178  -5.595   2.358  0.00  0.00    +0.144 HD
ATOM     14  H   UNL     1       7.364  -5.856   3.748  0.00  0.00    +0.144 HD
ENDROOT
BRANCH   1  15
ATOM     15  C   UNL     1       4.929  -3.553  -0.093  0.00  0.00    +0.149 C 
BRANCH  15  16
ATOM     16  C   UNL     1       3.540  -2.916  -0.171  0.00  0.00    +0.248 C 
BRANCH  16  17
ATOM     17  O   UNL     1       3.672  -1.513  -0.409  0.00  0.00    -0.490 OA
BRANCH  17  21
ATOM     18  C   UNL     1       0.185   0.673  -0.703  0.00  0.00    +0.000 A 
ATOM     19  C   UNL     1       1.409   1.304  -0.835  0.00  0.00    +0.004 A 
ATOM     20  C   UNL     1       2.578   0.574  -0.737  0.00  0.00    +0.045 A 
ATOM     21  C   UNL     1       2.523  -0.793  -0.506  0.00  0.00    +0.121 A 
ATOM     22  C   UNL     1       1.294  -1.423  -0.374  0.00  0.00    +0.045 A 
ATOM     23  C   UNL     1       0.129  -0.689  -0.473  0.00  0.00    +0.004 A 
ENDBRANCH  17  21
ENDBRANCH  16  17
ENDBRANCH  15  16
ENDBRANCH   1  15
BRANCH  12  24
ATOM     24  S   UNL     1       6.244  -3.322   5.701  0.00  0.00    -0.118 S 
BRANCH  24  25
ATOM     25  C   UNL     1       4.502  -3.244   5.202  0.00  0.00    +0.119 C 
BRANCH  25  26
ATOM     26  C   UNL     1       3.634  -2.934   6.424  0.00  0.00    +0.184 C 
ATOM     27  N   UNL     1       4.074  -1.681   7.049  0.00  0.00    -0.363 N 
ATOM     28  C   UNL     1       4.446  -1.960   8.265  0.00  0.00    +0.060 A 
ATOM     29  C   UNL     1       4.973  -1.137   9.362  0.00  0.00    +0.027 A 
ATOM     30  C   UNL     1       5.278  -1.716  10.540  0.00  0.00    +0.002 A 
ATOM     31  C   UNL     1       5.114  -3.093  10.773  0.00  0.00    +0.002 A 
ATOM     32  C   UNL     1       4.639  -3.938   9.835  0.00  0.00    +0.027 A 
ATOM     33  C   UNL     1       4.272  -3.417   8.511  0.00  0.00    +0.060 A 
ATOM     34  N   UNL     1       3.799  -3.983   7.438  0.00  0.00    -0.363 N 
ATOM     35  H   UNL     1       4.086  -0.805   6.632  0.00  0.00    +0.162 HD
ATOM     36  H   UNL     1       3.593  -4.925   7.329  0.00  0.00    +0.162 HD
ENDBRANCH  25  26
ENDBRANCH  24  25
ENDBRANCH  12  24
TORSDOF 7
