REMARK  Name = ZINC13397263
REMARK  6 active torsions:
REMARK  status: ('A' for Active; 'I' for Inactive)
REMARK    1  A    between atoms: C_5  and  C_7
REMARK    2  A    between atoms: C_8  and  C_9
REMARK    3  A    between atoms: N_11  and  C_12
REMARK    4  A    between atoms: C_15  and  S_18
REMARK    5  A    between atoms: S_18  and  N_21
REMARK    6  A    between atoms: C_25  and  C_28
REMARK                            x       y       z     vdW  Elec       q    Type
REMARK                         _______ _______ _______ _____ _____    ______ ____
ROOT
ATOM      1  C   UNL     1       2.333   1.175  -0.104  0.00  0.00    +0.034 A 
ATOM      2  C   UNL     1       2.295  -0.210  -0.201  0.00  0.00    +0.025 A 
ATOM      3  C   UNL     1       3.471  -0.926  -0.311  0.00  0.00    +0.030 A 
ATOM      4  C   UNL     1       4.686  -0.266  -0.313  0.00  0.00    +0.106 A 
ATOM      5  C   UNL     1       4.727   1.113  -0.211  0.00  0.00    +0.030 A 
ATOM      6  C   UNL     1       3.555   1.835  -0.106  0.00  0.00    +0.025 A 
ENDROOT
BRANCH   1   9
ATOM      7  C   UNL     1       1.043   3.116  -0.577  0.00  0.00    +0.241 C 
ATOM      8  O   UNL     1       2.012   3.615  -1.118  0.00  0.00    -0.270 OA
ATOM      9  N   UNL     1       1.143   1.903   0.001  0.00  0.00    -0.282 N 
ATOM     10  H   UNL     1       0.391   1.534   0.490  0.00  0.00    +0.155 HD
BRANCH   7  12
ATOM     11  C   UNL     1      -0.330   5.053  -1.121  0.00  0.00    +0.014 C 
ATOM     12  C   UNL     1      -0.231   3.837  -0.548  0.00  0.00    +0.068 C 
BRANCH  11  17
ATOM     13  C   UNL     1      -3.923   5.893  -0.448  0.00  0.00    +0.001 A 
ATOM     14  C   UNL     1      -4.022   7.143  -1.036  0.00  0.00    +0.001 A 
ATOM     15  C   UNL     1      -2.923   7.714  -1.653  0.00  0.00    +0.020 A 
ATOM     16  C   UNL     1      -1.716   7.043  -1.681  0.00  0.00    +0.048 A 
ATOM     17  C   UNL     1      -1.611   5.778  -1.092  0.00  0.00    -0.007 A 
ATOM     18  C   UNL     1      -2.727   5.208  -0.471  0.00  0.00    +0.009 A 
ATOM     19 CL   UNL     1      -0.337   7.764  -2.449  0.00  0.00    -0.083 Cl
ENDBRANCH  11  17
ENDBRANCH   7  12
ENDBRANCH   1   9
BRANCH   4  20
ATOM     20  S   UNL     1       6.184  -1.183  -0.445  0.00  0.00    +0.061 S 
ATOM     21  O   UNL     1       5.854  -2.413  -1.076  0.00  0.00    -0.153 OA
ATOM     22  O   UNL     1       7.160  -0.294  -0.972  0.00  0.00    -0.153 OA
BRANCH  20  23
ATOM     23  N   UNL     1       6.667  -1.556   1.095  0.00  0.00    -0.176 NA
ATOM     24  C   UNL     1       6.222  -2.800   1.738  0.00  0.00    +0.109 C 
ATOM     25  C   UNL     1       5.585  -2.457   3.088  0.00  0.00    +0.018 C 
ATOM     26  C   UNL     1       6.574  -1.638   3.921  0.00  0.00    +0.017 C 
ATOM     27  C   UNL     1       6.896  -0.331   3.193  0.00  0.00    +0.118 C 
ATOM     28  C   UNL     1       7.553  -0.653   1.842  0.00  0.00    +0.124 C 
BRANCH  27  29
ATOM     29  C   UNL     1       7.844   0.490   4.029  0.00  0.00    +0.360 C 
ATOM     30  O   UNL     1       8.929   0.792   3.591  0.00  0.00    -0.246 OA
ATOM     31  O   UNL     1       7.484   0.886   5.259  0.00  0.00    -0.246 OA
ENDBRANCH  27  29
ENDBRANCH  20  23
ENDBRANCH   4  20
TORSDOF 6
