REMARK  Name = ZINC64508508
REMARK  7 active torsions:
REMARK  status: ('A' for Active; 'I' for Inactive)
REMARK    1  A    between atoms: C_1  and  C_2
REMARK    2  A    between atoms: C_2  and  N_3
REMARK    3  A    between atoms: N_3  and  C_4
REMARK    4  A    between atoms: N_3  and  C_17
REMARK    5  A    between atoms: C_4  and  C_5
REMARK    6  A    between atoms: C_8  and  C_10
REMARK    7  A    between atoms: C_17  and  C_18
REMARK                            x       y       z     vdW  Elec       q    Type
REMARK                         _______ _______ _______ _____ _____    ______ ____
ROOT
ATOM      1  C   UNL     1      -2.361   1.455  -1.216  0.00  0.00    +0.063 A 
ATOM      2  C   UNL     1      -1.596   2.238  -1.998  0.00  0.00    +0.219 A 
ATOM      3  O   UNL     1      -1.902   3.517  -1.705  0.00  0.00    -0.443 OA
ATOM      4  C   UNL     1      -2.847   3.503  -0.750  0.00  0.00    +0.227 A 
ATOM      5  N   UNL     1      -3.128   2.254  -0.459  0.00  0.00    -0.216 NA
ENDROOT
BRANCH   4   6
ATOM      6  C   UNL     1      -3.470   4.694  -0.134  0.00  0.00    +0.037 A 
ATOM      7  C   UNL     1      -4.441   4.543   0.858  0.00  0.00    +0.014 A 
ATOM      8  C   UNL     1      -5.018   5.657   1.429  0.00  0.00    +0.016 A 
ATOM      9  C   UNL     1      -4.638   6.924   1.020  0.00  0.00    +0.018 A 
ATOM     10  C   UNL     1      -3.676   7.080   0.036  0.00  0.00    +0.016 A 
ATOM     11  C   UNL     1      -3.086   5.973  -0.537  0.00  0.00    +0.014 A 
ATOM     12 BR   UNL     1      -5.435   8.447   1.807  0.00  0.00    -0.050 Br
ENDBRANCH   4   6
BRANCH   1  13
ATOM     13  C   UNL     1      -2.361  -0.052  -1.198  0.00  0.00    -0.019 C 
BRANCH  13  14
ATOM     14  N   UNL     1      -1.456  -0.529  -0.143  0.00  0.00    +0.384 N 
ATOM     15  H   UNL     1      -1.709  -0.101   0.735  0.00  0.00    -0.081 HD
BRANCH  14  17
ATOM     16  C   UNL     1       0.356  -0.926  -1.742  0.00  0.00    -0.017 C 
ATOM     17  C   UNL     1      -0.074  -0.168  -0.484  0.00  0.00    -0.082 C 
ENDBRANCH  14  17
BRANCH  14  18
ATOM     18  C   UNL     1      -1.567  -1.989  -0.027  0.00  0.00    -0.073 C 
BRANCH  18  19
ATOM     19  C   UNL     1      -0.857  -2.454   1.246  0.00  0.00    +0.000 C 
ATOM     20  C   UNL     1      -0.987  -3.992   1.421  0.00  0.00    +0.032 C 
ATOM     21  C   UNL     1       0.297  -4.306   2.229  0.00  0.00    +0.160 C 
ATOM     22  O   UNL     1       1.296  -3.416   1.706  0.00  0.00    -0.380 OA
ATOM     23  C   UNL     1       0.670  -2.267   1.123  0.00  0.00    +0.161 C 
ENDBRANCH  18  19
ENDBRANCH  14  18
ENDBRANCH  13  14
ENDBRANCH   1  13
TORSDOF 6
