REMARK  Name = ZINC19794414
REMARK  8 active torsions:
REMARK  status: ('A' for Active; 'I' for Inactive)
REMARK    1  A    between atoms: C_1  and  C_2
REMARK    2  A    between atoms: C_3  and  C_27
REMARK    3  A    between atoms: C_4  and  C_17
REMARK    4  A    between atoms: C_20  and  O_23
REMARK    5  A    between atoms: O_23  and  C_24
REMARK    6  A    between atoms: C_24  and  C_25
REMARK    7  A    between atoms: C_27  and  O_29
REMARK    8  A    between atoms: O_29  and  C_30
REMARK                            x       y       z     vdW  Elec       q    Type
REMARK                         _______ _______ _______ _____ _____    ______ ____
ROOT
ATOM      1  C   UNL     1       2.150   9.397   1.040  0.00  0.00    +0.061 C 
ATOM      2  C   UNL     1       0.757   8.842   0.895  0.00  0.00    +0.016 C 
ATOM      3  C   UNL     1       0.249   8.116   1.900  0.00  0.00    +0.065 C 
ATOM      4  C   UNL     1      -1.125   7.503   1.859  0.00  0.00    +0.093 C 
ATOM      5  C   UNL     1      -1.891   8.093   0.701  0.00  0.00    +0.034 C 
ATOM      6  C   UNL     1      -1.288   8.839  -0.279  0.00  0.00    +0.047 C 
ATOM      7  N   UNL     1       0.065   9.102  -0.259  0.00  0.00    -0.317 N 
ATOM      8  C   UNL     1      -2.301   9.256  -1.254  0.00  0.00    +0.007 A 
ATOM      9  C   UNL     1      -2.214  10.009  -2.415  0.00  0.00    +0.010 A 
ATOM     10  C   UNL     1      -3.401  10.223  -3.120  0.00  0.00    +0.001 A 
ATOM     11  C   UNL     1      -4.605   9.716  -2.692  0.00  0.00    +0.001 A 
ATOM     12  C   UNL     1      -4.709   8.954  -1.524  0.00  0.00    +0.012 A 
ATOM     13  C   UNL     1      -3.543   8.733  -0.816  0.00  0.00    +0.031 A 
ATOM     14  C   UNL     1      -3.275   7.990   0.435  0.00  0.00    +0.193 C 
ATOM     15  O   UNL     1      -4.095   7.399   1.111  0.00  0.00    -0.287 OA
ATOM     16  H   UNL     1       0.590   9.510  -1.135  0.00  0.00    +0.152 HD
ENDROOT
BRANCH   4  17
ATOM     17  C   UNL     1      -1.008   6.012   1.679  0.00  0.00    -0.035 A 
ATOM     18  C   UNL     1      -1.536   5.158   2.630  0.00  0.00    +0.008 A 
ATOM     19  C   UNL     1      -1.430   3.791   2.467  0.00  0.00    +0.046 A 
ATOM     20  C   UNL     1      -0.793   3.274   1.348  0.00  0.00    +0.122 A 
ATOM     21  C   UNL     1      -0.259   4.132   0.399  0.00  0.00    +0.046 A 
ATOM     22  C   UNL     1      -0.372   5.499   0.563  0.00  0.00    +0.008 A 
BRANCH  20  23
ATOM     23  O   UNL     1      -0.687   1.929   1.186  0.00  0.00    -0.480 OA
BRANCH  23  24
ATOM     24  C   UNL     1      -0.018   1.468   0.010  0.00  0.00    +0.317 C 
BRANCH  24  25
ATOM     25  C   UNL     1       0.002  -0.004   0.002  0.00  0.00    -0.065 C 
ATOM     26  C   UNL     1       0.018  -1.178  -0.004  0.00  0.00    +0.007 C 
ENDBRANCH  24  25
ENDBRANCH  23  24
ENDBRANCH  20  23
ENDBRANCH   4  17
BRANCH   3  27
ATOM     27  C   UNL     1       1.042   7.914   3.054  0.00  0.00    +0.337 C 
ATOM     28  O   UNL     1       2.158   8.396   3.117  0.00  0.00    -0.245 OA
BRANCH  27  29
ATOM     29  O   UNL     1       0.562   7.188   4.085  0.00  0.00    -0.465 OA
ATOM     30  C   UNL     1       1.417   7.025   5.218  0.00  0.00    +0.280 C 
ENDBRANCH  27  29
ENDBRANCH   3  27
TORSDOF 6
