REMARK  Name = ZINC54363679
REMARK  9 active torsions:
REMARK  status: ('A' for Active; 'I' for Inactive)
REMARK    1  A    between atoms: C_8  and  C_10
REMARK    2  A    between atoms: C_10  and  S_11
REMARK    3  A    between atoms: S_11  and  C_12
REMARK    4  A    between atoms: C_15  and  C_17
REMARK    5  A    between atoms: C_17  and  C_18
REMARK    6  A    between atoms: C_18  and  C_19
REMARK    7  A    between atoms: C_19  and  C_20
REMARK    8  A    between atoms: C_20  and  C_21
REMARK    9  A    between atoms: C_21  and  N_22
REMARK                            x       y       z     vdW  Elec       q    Type
REMARK                         _______ _______ _______ _____ _____    ______ ____
ROOT
ATOM      1  C   UNL     1      -2.505 -10.470   2.207  0.00  0.00    +0.009 C 
ENDROOT
BRANCH   1   2
ATOM      2  C   UNL     1      -2.343 -10.116   0.728  0.00  0.00    +0.098 C 
BRANCH   2   6
ATOM      3  C   UNL     1      -1.311  -6.654   0.437  0.00  0.00    +0.278 A 
ATOM      4  N   UNL     1      -0.168  -7.296   0.430  0.00  0.00    -0.101 NA
ATOM      5  N   UNL     1      -0.389  -8.560   0.529  0.00  0.00    -0.112 NA
ATOM      6  C   UNL     1      -1.670  -8.773   0.603  0.00  0.00    +0.218 A 
ATOM      7  O   UNL     1      -2.286  -7.576   0.553  0.00  0.00    -0.416 OA
BRANCH   3   8
ATOM      8  S   UNL     1      -1.531  -4.909   0.325  0.00  0.00    -0.056 S 
BRANCH   8   9
ATOM      9  C   UNL     1       0.159  -4.262   0.192  0.00  0.00    +0.175 C 
BRANCH   9  17
ATOM     10  C   UNL     1       2.370   1.437  -0.007  0.00  0.00    +0.005 A 
ATOM     11  C   UNL     1       1.128   2.057   0.009  0.00  0.00    +0.020 A 
ATOM     12  C   UNL     1      -0.015   1.281   0.013  0.00  0.00    +0.113 A 
ATOM     13  N   UNL     1       0.061  -0.036   0.003  0.00  0.00    -0.240 NA
ATOM     14  C   UNL     1       1.226  -0.664  -0.012  0.00  0.00    +0.125 A 
ATOM     15  C   UNL     1       2.417   0.054  -0.018  0.00  0.00    +0.044 A 
ATOM     16  N   UNL     1       1.259  -2.057  -0.022  0.00  0.00    -0.270 N 
ATOM     17  C   UNL     1       0.114  -2.760   0.087  0.00  0.00    +0.229 C 
ATOM     18  O   UNL     1      -0.952  -2.182   0.101  0.00  0.00    -0.275 OA
ATOM     19  H   UNL     1       2.107  -2.522  -0.107  0.00  0.00    +0.156 HD
ENDBRANCH   9  17
ENDBRANCH   8   9
ENDBRANCH   3   8
ENDBRANCH   2   6
ENDBRANCH   1   2
BRANCH   1  20
ATOM     20  C   UNL     1      -3.188 -11.833   2.334  0.00  0.00    +0.002 C 
BRANCH  20  21
ATOM     21  C   UNL     1      -3.350 -12.187   3.814  0.00  0.00    +0.019 C 
BRANCH  21  22
ATOM     22  C   UNL     1      -4.033 -13.550   3.940  0.00  0.00    +0.117 C 
BRANCH  22  23
ATOM     23  N   UNL     1      -4.188 -13.889   5.357  0.00  0.00    -0.234 N 
ATOM     24  C   UNL     1      -3.200 -14.563   5.974  0.00  0.00    +0.254 C 
ATOM     25  O   UNL     1      -2.203 -14.879   5.353  0.00  0.00    -0.270 OA
ATOM     26  C   UNL     1      -3.318 -14.920   7.396  0.00  0.00    +0.046 A 
ATOM     27  C   UNL     1      -2.325 -15.614   8.071  0.00  0.00    +0.014 A 
ATOM     28  C   UNL     1      -2.484 -15.930   9.415  0.00  0.00    +0.001 A 
ATOM     29  C   UNL     1      -3.606 -15.572  10.106  0.00  0.00    +0.008 A 
ATOM     30  C   UNL     1      -4.636 -14.867   9.459  0.00  0.00    -0.016 A 
ATOM     31  C   UNL     1      -4.487 -14.542   8.095  0.00  0.00    +0.006 A 
ATOM     32  C   UNL     1      -5.505 -13.835   7.416  0.00  0.00    +0.046 A 
ATOM     33  C   UNL     1      -6.648 -13.467   8.111  0.00  0.00    +0.014 A 
ATOM     34  C   UNL     1      -6.783 -13.794   9.455  0.00  0.00    +0.001 A 
ATOM     35  C   UNL     1      -5.810 -14.477  10.127  0.00  0.00    +0.008 A 
ATOM     36  C   UNL     1      -5.311 -13.509   5.995  0.00  0.00    +0.254 C 
ATOM     37  O   UNL     1      -6.172 -12.897   5.393  0.00  0.00    -0.270 OA
ENDBRANCH  22  23
ENDBRANCH  21  22
ENDBRANCH  20  21
ENDBRANCH   1  20
TORSDOF 9
