REMARK  Name = ZINC67311482
REMARK  12 active torsions:
REMARK  status: ('A' for Active; 'I' for Inactive)
REMARK    1  A    between atoms: C_1  and  C_2
REMARK    2  A    between atoms: C_2  and  O_3
REMARK    3  A    between atoms: O_3  and  C_4
REMARK    4  A    between atoms: C_4  and  C_5
REMARK    5  A    between atoms: C_5  and  C_6
REMARK    6  A    between atoms: C_6  and  N_7
REMARK    7  A    between atoms: N_10  and  N_11
REMARK    8  A    between atoms: C_12  and  C_14
REMARK    9  A    between atoms: N_19  and  C_21
REMARK   10  A    between atoms: C_25  and  C_27
REMARK   11  A    between atoms: C_27  and  C_28
REMARK   12  A    between atoms: C_27  and  C_29
REMARK                            x       y       z     vdW  Elec       q    Type
REMARK                         _______ _______ _______ _____ _____    ______ ____
ROOT
ATOM      1  N   UNL     1      -7.047  -4.965   0.054  0.00  0.00    -0.233 N 
ATOM      2  C   UNL     1      -8.344  -5.331   0.069  0.00  0.00    +0.234 C 
ATOM      3  O   UNL     1      -8.643  -6.506   0.080  0.00  0.00    -0.274 OA
ATOM      4  H   UNL     1      -6.808  -4.025   0.046  0.00  0.00    +0.173 HD
ENDROOT
BRANCH   1   8
ATOM      5  N   UNL     1      -4.415  -4.270   0.025  0.00  0.00    -0.298 N 
ATOM      6  C   UNL     1      -4.746  -5.577   0.037  0.00  0.00    +0.316 C 
ATOM      7  O   UNL     1      -3.875  -6.425   0.034  0.00  0.00    -0.251 OA
ATOM      8  N   UNL     1      -6.043  -5.942   0.052  0.00  0.00    -0.218 N 
ATOM      9  H   UNL     1      -5.110  -3.593   0.027  0.00  0.00    +0.150 HD
ATOM     10  H   UNL     1      -6.282  -6.883   0.060  0.00  0.00    +0.174 HD
BRANCH   5  11
ATOM     11  C   UNL     1      -3.005  -3.873   0.009  0.00  0.00    +0.108 C 
BRANCH  11  12
ATOM     12  C   UNL     1      -2.906  -2.346  -0.002  0.00  0.00    +0.047 C 
BRANCH  12  13
ATOM     13  C   UNL     1      -1.433  -1.931  -0.019  0.00  0.00    +0.161 C 
BRANCH  13  14
ATOM     14  O   UNL     1      -1.341  -0.504  -0.029  0.00  0.00    -0.380 OA
BRANCH  14  16
ATOM     15  C   UNL     1      -0.022   1.521  -0.055  0.00  0.00    +0.034 C 
ATOM     16  C   UNL     1      -0.000  -0.009  -0.045  0.00  0.00    +0.156 C 
ENDBRANCH  14  16
ENDBRANCH  13  14
ENDBRANCH  12  13
ENDBRANCH  11  12
ENDBRANCH   5  11
ENDBRANCH   1   8
BRANCH   2  17
ATOM     17  C   UNL     1      -9.424  -4.279   0.072  0.00  0.00    +0.103 C 
ATOM     18  C   UNL     1      -9.374  -3.439   1.369  0.00  0.00    +0.110 C 
ATOM     19  C   UNL     1     -10.827  -3.176   1.697  0.00  0.00    +0.221 C 
ATOM     20  O   UNL     1     -11.223  -2.329   2.470  0.00  0.00    -0.275 OA
ATOM     21  N   UNL     1     -11.616  -4.018   1.007  0.00  0.00    -0.271 N 
ATOM     22  C   UNL     1     -10.824  -4.925   0.168  0.00  0.00    +0.127 C 
BRANCH  21  23
ATOM     23  C   UNL     1     -13.014  -4.028   1.079  0.00  0.00    +0.037 A 
ATOM     24  C   UNL     1     -13.669  -3.205   1.987  0.00  0.00    +0.023 A 
ATOM     25  C   UNL     1     -15.049  -3.218   2.055  0.00  0.00    +0.002 A 
ATOM     26  C   UNL     1     -15.777  -4.048   1.223  0.00  0.00    +0.004 A 
ATOM     27  C   UNL     1     -15.127  -4.868   0.319  0.00  0.00    -0.043 A 
ATOM     28  C   UNL     1     -13.748  -4.855   0.240  0.00  0.00    +0.027 A 
BRANCH  27  29
ATOM     29  C   UNL     1     -15.924  -5.771  -0.587  0.00  0.00    +0.013 C 
ATOM     30  C   UNL     1     -16.754  -6.738   0.260  0.00  0.00    +0.012 C 
ATOM     31  C   UNL     1     -16.856  -4.926  -1.457  0.00  0.00    +0.012 C 
ENDBRANCH  27  29
ENDBRANCH  21  23
ENDBRANCH   2  17
TORSDOF 9
