REMARK  Name = ZINC12506345
REMARK  8 active torsions:
REMARK  status: ('A' for Active; 'I' for Inactive)
REMARK    1  A    between atoms: C_10  and  C_11
REMARK    2  A    between atoms: C_16  and  C_19
REMARK    3  A    between atoms: N_21  and  C_22
REMARK    4  A    between atoms: C_22  and  C_23
REMARK    5  A    between atoms: C_23  and  C_24
REMARK    6  A    between atoms: C_24  and  C_25
REMARK    7  A    between atoms: C_26  and  C_32
REMARK    8  A    between atoms: C_27  and  N_31
REMARK                            x       y       z     vdW  Elec       q    Type
REMARK                         _______ _______ _______ _____ _____    ______ ____
ROOT
ATOM      1  C   UNL     1      -2.578   3.828   0.046  0.00  0.00    +0.247 C 
ATOM      2  O   UNL     1      -2.614   5.039   0.157  0.00  0.00    -0.270 OA
ATOM      3  N   UNL     1      -3.724   3.126  -0.048  0.00  0.00    -0.297 N 
ATOM      4  C   UNL     1      -3.703   1.656  -0.063  0.00  0.00    +0.109 C 
ATOM      5  C   UNL     1      -4.645   1.143   1.037  0.00  0.00    +0.032 C 
ATOM      6  C   UNL     1      -6.034   1.753   0.836  0.00  0.00    +0.078 C 
ATOM      7  C   UNL     1      -5.945   3.276   0.951  0.00  0.00    +0.032 C 
ATOM      8  C   UNL     1      -5.019   3.814  -0.144  0.00  0.00    +0.109 C 
ENDROOT
BRANCH   1  18
ATOM      9  C   UNL     1       1.552   3.688   3.052  0.00  0.00    +0.001 A 
ATOM     10  C   UNL     1       0.333   4.359   3.102  0.00  0.00    +0.001 A 
ATOM     11  C   UNL     1      -0.600   4.191   2.124  0.00  0.00    +0.009 A 
ATOM     12  C   UNL     1      -0.333   3.329   1.051  0.00  0.00    -0.006 A 
ATOM     13  C   UNL     1       0.906   2.646   0.998  0.00  0.00    -0.017 A 
ATOM     14  C   UNL     1       1.845   2.845   2.025  0.00  0.00    +0.008 A 
ATOM     15  C   UNL     1       1.176   1.783  -0.078  0.00  0.00    +0.008 A 
ATOM     16  C   UNL     1       0.250   1.607  -1.062  0.00  0.00    +0.001 A 
ATOM     17  C   UNL     1      -0.969   2.272  -1.030  0.00  0.00    +0.014 A 
ATOM     18  C   UNL     1      -1.280   3.129   0.016  0.00  0.00    +0.045 A 
ENDBRANCH   1  18
BRANCH   6  19
ATOM     19  C   UNL     1      -6.972   1.223   1.891  0.00  0.00    +0.216 C 
ATOM     20  O   UNL     1      -7.515   1.989   2.658  0.00  0.00    -0.276 OA
ATOM     21  N   UNL     1      -7.206  -0.101   1.980  0.00  0.00    -0.315 N 
ATOM     22  H   UNL     1      -6.771  -0.713   1.367  0.00  0.00    +0.149 HD
BRANCH  21  23
ATOM     23  C   UNL     1      -8.117  -0.616   3.005  0.00  0.00    +0.104 C 
BRANCH  23  24
ATOM     24  C   UNL     1      -8.206  -2.139   2.890  0.00  0.00    +0.025 C 
BRANCH  24  25
ATOM     25  C   UNL     1      -9.158  -2.676   3.961  0.00  0.00    +0.060 C 
BRANCH  25  26
ATOM     26  C   UNL     1      -9.245  -4.176   3.848  0.00  0.00    +0.082 A 
ATOM     27  C   UNL     1      -8.415  -5.108   4.514  0.00  0.00    +0.113 A 
ATOM     28  C   UNL     1      -8.838  -6.377   4.129  0.00  0.00    +0.129 A 
ATOM     29  N   UNL     1      -9.870  -6.211   3.275  0.00  0.00    -0.263 N 
ATOM     30  H   UNL     1     -10.381  -6.944   2.827  0.00  0.00    +0.190 HD
ATOM     31  N   UNL     1     -10.103  -4.840   3.124  0.00  0.00    -0.176 NA
BRANCH  28  32
ATOM     32  N   UNL     1      -8.301  -7.582   4.543  0.00  0.00    -0.342 N 
ATOM     33  H   UNL     1      -7.555  -7.593   5.163  0.00  0.00    +0.144 HD
ATOM     34  H   UNL     1      -8.671  -8.416   4.214  0.00  0.00    +0.144 HD
ENDBRANCH  28  32
BRANCH  27  35
ATOM     35  C   UNL     1      -7.343  -4.803   5.413  0.00  0.00    +0.104 C 
ATOM     36  N   UNL     1      -6.493  -4.561   6.127  0.00  0.00    -0.191 NA
ENDBRANCH  27  35
ENDBRANCH  25  26
ENDBRANCH  24  25
ENDBRANCH  23  24
ENDBRANCH  21  23
ENDBRANCH   6  19
TORSDOF 8
