REMARK  Name = ZINC07599224
REMARK  3 active torsions:
REMARK  status: ('A' for Active; 'I' for Inactive)
REMARK    1  A    between atoms: C_8  and  C_10
REMARK    2  A    between atoms: C_16  and  C_18
REMARK    3  A    between atoms: C_19  and  C_20
REMARK                            x       y       z     vdW  Elec       q    Type
REMARK                         _______ _______ _______ _____ _____    ______ ____
ROOT
ATOM      1  C   UNL     1      -4.106   8.667   0.070  0.00  0.00    +0.115 A 
ATOM      2  C   UNL     1      -5.285   7.971   0.072  0.00  0.00    +0.080 A 
ATOM      3  S   UNL     1      -4.680   6.289   0.052  0.00  0.00    -0.060 S 
ATOM      4  C   UNL     1      -2.936   6.676   0.053  0.00  0.00    +0.165 A 
ATOM      5  N   UNL     1      -2.956   7.995   0.060  0.00  0.00    -0.221 NA
ATOM      6  N   UNL     1      -1.847   5.816   0.043  0.00  0.00    -0.261 N 
ATOM      7  C   UNL     1      -2.041   4.482   0.037  0.00  0.00    +0.243 C 
ATOM      8  O   UNL     1      -3.173   4.032   0.040  0.00  0.00    -0.270 OA
ATOM      9  H   UNL     1      -0.945   6.175   0.040  0.00  0.00    +0.157 HD
ENDROOT
BRANCH   1  17
ATOM     10  C   UNL     1      -3.611  14.695   0.099  0.00  0.00    +0.001 A 
ATOM     11  C   UNL     1      -4.997  14.617   0.105  0.00  0.00    +0.004 A 
ATOM     12  C   UNL     1      -5.634  13.394   0.102  0.00  0.00    +0.047 A 
ATOM     13  C   UNL     1      -4.885  12.225   0.092  0.00  0.00    +0.136 A 
ATOM     14  C   UNL     1      -3.481  12.309   0.086  0.00  0.00    +0.021 A 
ATOM     15  C   UNL     1      -2.854  13.556   0.090  0.00  0.00    +0.011 A 
ATOM     16  C   UNL     1      -3.001  10.925   0.081  0.00  0.00    +0.060 A 
ATOM     17  C   UNL     1      -4.109  10.144   0.077  0.00  0.00    +0.155 A 
ATOM     18  O   UNL     1      -5.213  10.916   0.087  0.00  0.00    -0.453 OA
ENDBRANCH   1  17
BRANCH   7  19
ATOM     19  C   UNL     1      -0.932   3.606   0.026  0.00  0.00    +0.069 C 
ATOM     20  C   UNL     1      -1.128   2.263   0.020  0.00  0.00    +0.020 C 
BRANCH  20  21
ATOM     21  C   UNL     1      -0.017   1.386   0.010  0.00  0.00    +0.012 A 
ATOM     22  C   UNL     1       0.002  -0.004   0.002  0.00  0.00    +0.015 A 
ATOM     23  C   UNL     1       1.233  -0.610  -0.013  0.00  0.00    +0.008 A 
ATOM     24  C   UNL     1       2.353   0.160  -0.019  0.00  0.00    +0.046 A 
ATOM     25  S   UNL     1       1.724   1.776  -0.005  0.00  0.00    -0.097 S 
ENDBRANCH  20  21
ENDBRANCH   7  19
TORSDOF 3
