REMARK  Name = ZINC12489456
REMARK  11 active torsions:
REMARK  status: ('A' for Active; 'I' for Inactive)
REMARK    1  A    between atoms: C_1  and  C_2
REMARK    2  A    between atoms: C_2  and  C_3
REMARK    3  A    between atoms: C_2  and  C_4
REMARK    4  A    between atoms: C_7  and  O_11
REMARK    5  A    between atoms: O_11  and  C_12
REMARK    6  A    between atoms: C_12  and  C_13
REMARK    7  A    between atoms: N_15  and  N_16
REMARK    8  A    between atoms: N_16  and  C_17
REMARK    9  A    between atoms: C_17  and  N_19
REMARK   10  A    between atoms: C_20  and  C_22
REMARK   11  A    between atoms: C_23  and  C_24
REMARK                            x       y       z     vdW  Elec       q    Type
REMARK                         _______ _______ _______ _____ _____    ______ ____
ROOT
ATOM      1  C   UNL     1       5.907  -0.886  -0.059  0.00  0.00    +0.267 C 
ATOM      2  O   UNL     1       6.949  -0.265  -0.066  0.00  0.00    -0.271 OA
ATOM      3  N   UNL     1       4.731  -0.228  -0.044  0.00  0.00    -0.232 N 
ATOM      4  H   UNL     1       3.897  -0.724  -0.039  0.00  0.00    +0.173 HD
ENDROOT
BRANCH   3   5
ATOM      5  N   UNL     1       4.712   1.173  -0.037  0.00  0.00    -0.245 N 
ATOM      6  H   UNL     1       5.545   1.669  -0.042  0.00  0.00    +0.172 HD
BRANCH   5   7
ATOM      7  C   UNL     1       3.536   1.831  -0.022  0.00  0.00    +0.153 C 
ATOM      8  S   UNL     1       3.512   3.543  -0.013  0.00  0.00    -0.017 S 
BRANCH   7   9
ATOM      9  N   UNL     1       2.378   1.141  -0.015  0.00  0.00    -0.263 N 
ATOM     10  C   UNL     1       1.202   1.799   0.000  0.00  0.00    +0.242 C 
ATOM     11  O   UNL     1       1.185   3.017   0.007  0.00  0.00    -0.270 OA
ATOM     12  H   UNL     1       2.391   0.171  -0.020  0.00  0.00    +0.157 HD
BRANCH  10  13
ATOM     13  C   UNL     1      -0.013   1.076   0.008  0.00  0.00    +0.069 C 
ATOM     14  C   UNL     1      -1.197   1.738   0.017  0.00  0.00    +0.020 C 
BRANCH  14  15
ATOM     15  C   UNL     1      -2.413   1.014   0.019  0.00  0.00    +0.012 A 
ATOM     16  C   UNL     1      -3.718   1.493   0.028  0.00  0.00    +0.015 A 
ATOM     17  C   UNL     1      -4.724   0.560   0.028  0.00  0.00    +0.008 A 
ATOM     18  C   UNL     1      -4.404  -0.762   0.019  0.00  0.00    +0.046 A 
ATOM     19  S   UNL     1      -2.671  -0.751   0.003  0.00  0.00    -0.097 S 
ENDBRANCH  14  15
ENDBRANCH  10  13
ENDBRANCH   7   9
ENDBRANCH   5   7
ENDBRANCH   3   5
BRANCH   1  20
ATOM     20  C   UNL     1       5.927  -2.393  -0.067  0.00  0.00    +0.326 C 
BRANCH  20  21
ATOM     21  O   UNL     1       7.281  -2.851  -0.083  0.00  0.00    -0.482 OA
BRANCH  21  25
ATOM     22  C   UNL     1       7.877  -6.934  -0.112  0.00  0.00    -0.044 A 
ATOM     23  C   UNL     1       6.592  -6.423  -0.096  0.00  0.00    +0.007 A 
ATOM     24  C   UNL     1       6.390  -5.057  -0.086  0.00  0.00    +0.047 A 
ATOM     25  C   UNL     1       7.477  -4.196  -0.092  0.00  0.00    +0.135 A 
ATOM     26  C   UNL     1       8.766  -4.710  -0.113  0.00  0.00    +0.060 A 
ATOM     27  C   UNL     1       8.963  -6.078  -0.117  0.00  0.00    +0.022 A 
ATOM     28 BR   UNL     1      10.252  -3.540  -0.128  0.00  0.00    -0.047 Br
BRANCH  22  30
ATOM     29  C   UNL     1       8.868  -8.818  -1.382  0.00  0.00    +0.012 C 
ATOM     30  C   UNL     1       8.094  -8.425  -0.123  0.00  0.00    +0.013 C 
ATOM     31  C   UNL     1       8.893  -8.833   1.116  0.00  0.00    +0.012 C 
ENDBRANCH  22  30
ENDBRANCH  21  25
ENDBRANCH  20  21
ENDBRANCH   1  20
TORSDOF 9
