REMARK  Name = ZINC43367929
REMARK  3 active torsions:
REMARK  status: ('A' for Active; 'I' for Inactive)
REMARK    1  A    between atoms: C_3  and  C_8
REMARK    2  A    between atoms: C_8  and  C_10
REMARK    3  A    between atoms: C_8  and  O_14
REMARK                            x       y       z     vdW  Elec       q    Type
REMARK                         _______ _______ _______ _____ _____    ______ ____
ROOT
ATOM      1  C   UNL     1       3.591   1.977   1.231  0.00  0.00    +0.221 C 
ENDROOT
BRANCH   1   4
ATOM      2  C   UNL     1      -0.018   1.496   0.010  0.00  0.00    +0.027 C 
ATOM      3  C   UNL     1       1.411   2.043  -0.000  0.00  0.00    +0.011 C 
ATOM      4  C   UNL     1       2.213   1.327   1.094  0.00  0.00    +0.030 C 
ATOM      5  C   UNL     1       2.369  -0.143   0.695  0.00  0.00    +0.033 C 
ATOM      6  C   UNL     1       1.039  -0.717   0.304  0.00  0.00    -0.031 C 
ATOM      7  C   UNL     1       0.002  -0.004   0.002  0.00  0.00    -0.031 C 
ENDBRANCH   1   4
BRANCH   1   8
ATOM      8  C   UNL     1       4.387   1.259   2.323  0.00  0.00    +0.416 C 
ATOM      9  F   UNL     1       4.539  -0.088   1.980  0.00  0.00    -0.168 F 
ATOM     10  F   UNL     1       5.647   1.854   2.448  0.00  0.00    -0.168 F 
ATOM     11  F   UNL     1       3.702   1.356   3.539  0.00  0.00    -0.168 F 
ENDBRANCH   1   8
BRANCH   1  12
ATOM     12  O   UNL     1       3.435   3.353   1.581  0.00  0.00    -0.383 OA
ATOM     13  H   UNL     1       2.968   3.496   2.416  0.00  0.00    +0.210 HD
ENDBRANCH   1  12
TORSDOF 3
