REMARK  Name = ZINC17172127
REMARK  5 active torsions:
REMARK  status: ('A' for Active; 'I' for Inactive)
REMARK    1  A    between atoms: C_4  and  C_7
REMARK    2  A    between atoms: N_14  and  N_17
REMARK    3  A    between atoms: C_18  and  C_20
REMARK    4  A    between atoms: C_20  and  C_21
REMARK    5  A    between atoms: C_21  and  N_22
REMARK                            x       y       z     vdW  Elec       q    Type
REMARK                         _______ _______ _______ _____ _____    ______ ____
ROOT
ATOM      1  N   UNL     1       2.768  -3.800   3.735  0.00  0.00    -0.219 N 
ATOM      2  C   UNL     1       2.165  -4.995   3.574  0.00  0.00    +0.233 C 
ATOM      3  O   UNL     1       2.329  -5.623   2.550  0.00  0.00    -0.274 OA
ATOM      4  H   UNL     1       2.637  -3.297   4.554  0.00  0.00    +0.176 HD
ENDROOT
BRANCH   1  12
ATOM      5  C   UNL     1       3.698  -0.688  -0.037  0.00  0.00    +0.004 A 
ATOM      6  C   UNL     1       4.659  -0.360  -0.935  0.00  0.00    +0.056 A 
ATOM      7  S   UNL     1       5.984  -1.488  -0.551  0.00  0.00    -0.076 S 
ATOM      8  C   UNL     1       5.225  -2.365   0.792  0.00  0.00    +0.116 A 
ATOM      9  C   UNL     1       3.964  -1.759   0.915  0.00  0.00    +0.081 A 
ATOM     10  C   UNL     1       3.124  -2.280   1.950  0.00  0.00    +0.280 A 
ATOM     11  O   UNL     1       2.009  -1.822   2.132  0.00  0.00    -0.265 OA
ATOM     12  N   UNL     1       3.584  -3.284   2.720  0.00  0.00    -0.212 N 
ATOM     13  C   UNL     1       4.822  -3.807   2.531  0.00  0.00    +0.223 A 
ATOM     14  N   UNL     1       5.608  -3.359   1.589  0.00  0.00    -0.228 NA
BRANCH   5  18
ATOM     15  C   UNL     1      -0.017   1.379   0.010  0.00  0.00    +0.000 A 
ATOM     16  C   UNL     1       1.169   2.092   0.002  0.00  0.00    +0.001 A 
ATOM     17  C   UNL     1       2.377   1.427  -0.013  0.00  0.00    +0.008 A 
ATOM     18  C   UNL     1       2.403   0.033  -0.021  0.00  0.00    -0.017 A 
ATOM     19  C   UNL     1       1.205  -0.680  -0.013  0.00  0.00    +0.008 A 
ATOM     20  C   UNL     1       0.002  -0.004   0.002  0.00  0.00    +0.001 A 
ENDBRANCH   5  18
ENDBRANCH   1  12
BRANCH   2  21
ATOM     21  C   UNL     1       1.288  -5.550   4.666  0.00  0.00    +0.117 C 
BRANCH  21  22
ATOM     22  C   UNL     1       0.731  -6.907   4.233  0.00  0.00    +0.125 C 
BRANCH  22  23
ATOM     23  N   UNL     1      -0.122  -7.447   5.295  0.00  0.00    -0.241 N 
ATOM     24  C   UNL     1       0.346  -8.226   6.289  0.00  0.00    +0.226 C 
ATOM     25  O   UNL     1       1.511  -8.418   6.564  0.00  0.00    -0.275 OA
ATOM     26  C   UNL     1      -0.873  -8.825   7.010  0.00  0.00    +0.091 C 
ATOM     27  C   UNL     1      -1.186 -10.113   6.245  0.00  0.00    +0.040 C 
ATOM     28  C   UNL     1      -2.642 -10.417   6.171  0.00  0.00    -0.030 C 
ATOM     29  C   UNL     1      -3.587  -9.564   6.391  0.00  0.00    -0.030 C 
ATOM     30  C   UNL     1      -3.335  -8.148   6.803  0.00  0.00    +0.040 C 
ATOM     31  C   UNL     1      -1.900  -7.722   6.705  0.00  0.00    +0.091 C 
ATOM     32  C   UNL     1      -1.450  -7.203   5.370  0.00  0.00    +0.226 C 
ATOM     33  O   UNL     1      -2.140  -6.673   4.526  0.00  0.00    -0.275 OA
ENDBRANCH  22  23
ENDBRANCH  21  22
ENDBRANCH   2  21
TORSDOF 5
