REMARK  Name = ZINC20884165
REMARK  12 active torsions:
REMARK  status: ('A' for Active; 'I' for Inactive)
REMARK    1  A    between atoms: C_1  and  C_2
REMARK    2  A    between atoms: C_2  and  C_3
REMARK    3  A    between atoms: C_3  and  C_5
REMARK    4  A    between atoms: C_3  and  O_6
REMARK    5  A    between atoms: O_6  and  C_7
REMARK    6  A    between atoms: C_10  and  C_13
REMARK    7  A    between atoms: C_18  and  C_23
REMARK    8  A    between atoms: C_26  and  O_31
REMARK    9  A    between atoms: C_27  and  O_29
REMARK   10  A    between atoms: O_29  and  C_30
REMARK   11  A    between atoms: O_31  and  C_32
REMARK   12  A    between atoms: C_32  and  C_33
REMARK                            x       y       z     vdW  Elec       q    Type
REMARK                         _______ _______ _______ _____ _____    ______ ____
ROOT
ATOM      1  C   UNL     1      -2.069   2.017  -2.158  0.00  0.00    +0.136 C 
ATOM      2  C   UNL     1      -1.602   1.317  -0.904  0.00  0.00    +0.036 C 
ATOM      3  C   UNL     1      -2.332   1.114   0.205  0.00  0.00    +0.017 C 
ATOM      4  C   UNL     1      -1.741   0.369   1.391  0.00  0.00    +0.059 C 
ATOM      5  C   UNL     1      -0.238   0.645   1.486  0.00  0.00    +0.032 C 
ATOM      6  C   UNL     1       0.404   0.164   0.179  0.00  0.00    +0.088 C 
ATOM      7  C   UNL     1      -0.264   0.860  -0.970  0.00  0.00    +0.163 C 
ATOM      8  O   UNL     1       0.366   1.037  -1.994  0.00  0.00    -0.292 OA
ATOM      9  N   UNL     1      -3.614   1.527   0.377  0.00  0.00    -0.316 N 
ATOM     10  C   UNL     1      -4.633   1.358  -0.553  0.00  0.00    +0.052 A 
ATOM     11  C   UNL     1      -5.737   0.561  -0.305  0.00  0.00    +0.025 A 
ATOM     12  C   UNL     1      -6.737   0.471  -1.257  0.00  0.00    +0.002 A 
ATOM     13  C   UNL     1      -6.636   1.174  -2.444  0.00  0.00    +0.002 A 
ATOM     14  C   UNL     1      -5.524   1.958  -2.701  0.00  0.00    +0.025 A 
ATOM     15  C   UNL     1      -4.511   2.032  -1.759  0.00  0.00    +0.049 A 
ATOM     16  N   UNL     1      -3.327   2.720  -2.018  0.00  0.00    -0.331 N 
ATOM     17  H   UNL     1      -3.907   2.037   1.306  0.00  0.00    +0.152 HD
ATOM     18  H   UNL     1      -3.358   3.815  -2.116  0.00  0.00    +0.147 HD
ENDROOT
BRANCH   1  22
ATOM     19  C   UNL     1      -2.481  -0.892  -5.261  0.00  0.00    +0.121 A 
ATOM     20  C   UNL     1      -1.529   0.111  -5.371  0.00  0.00    +0.046 A 
ATOM     21  C   UNL     1      -1.398   1.050  -4.366  0.00  0.00    +0.009 A 
ATOM     22  C   UNL     1      -2.214   0.991  -3.252  0.00  0.00    -0.023 A 
ATOM     23  C   UNL     1      -3.160  -0.011  -3.138  0.00  0.00    +0.009 A 
ATOM     24  C   UNL     1      -3.299  -0.950  -4.142  0.00  0.00    +0.046 A 
BRANCH  19  25
ATOM     25  O   UNL     1      -2.612  -1.818  -6.248  0.00  0.00    -0.489 OA
BRANCH  25  26
ATOM     26  C   UNL     1      -1.823  -1.628  -7.424  0.00  0.00    +0.170 C 
ATOM     27  C   UNL     1      -0.442  -2.256  -7.217  0.00  0.00    +0.052 C 
BRANCH  26  29
ATOM     28  C   UNL     1      -3.839  -1.586  -8.899  0.00  0.00    +0.007 C 
ATOM     29  C   UNL     1      -2.513  -2.296  -8.615  0.00  0.00    +0.041 C 
ENDBRANCH  26  29
ENDBRANCH  25  26
ENDBRANCH  19  25
ENDBRANCH   1  22
BRANCH   5  30
ATOM     30  C   UNL     1       0.352  -0.107   2.651  0.00  0.00    -0.040 A 
ATOM     31  C   UNL     1       0.237  -1.484   2.713  0.00  0.00    +0.008 A 
ATOM     32  C   UNL     1       0.777  -2.178   3.780  0.00  0.00    +0.050 A 
ATOM     33  C   UNL     1       1.435  -1.494   4.789  0.00  0.00    +0.162 A 
ATOM     34  C   UNL     1       1.552  -0.109   4.726  0.00  0.00    +0.162 A 
ATOM     35  C   UNL     1       1.013   0.580   3.652  0.00  0.00    +0.053 A 
BRANCH  34  36
ATOM     36  O   UNL     1       2.197   0.566   5.715  0.00  0.00    -0.491 OA
ATOM     37  C   UNL     1       2.279   1.987   5.584  0.00  0.00    +0.277 C 
ENDBRANCH  34  36
BRANCH  33  38
ATOM     38  O   UNL     1       1.967  -2.176   5.839  0.00  0.00    -0.489 OA
BRANCH  38  39
ATOM     39  C   UNL     1       1.810  -3.596   5.837  0.00  0.00    +0.226 C 
ATOM     40  C   UNL     1       2.468  -4.184   7.087  0.00  0.00    +0.048 C 
ENDBRANCH  38  39
ENDBRANCH  33  38
ENDBRANCH   5  30
TORSDOF 8
