REMARK  Name = ZINC62794018
REMARK  4 active torsions:
REMARK  status: ('A' for Active; 'I' for Inactive)
REMARK    1  A    between atoms: C_1  and  C_2
REMARK    2  A    between atoms: C_9  and  O_12
REMARK    3  A    between atoms: O_12  and  C_13
REMARK    4  A    between atoms: C_16  and  C_20
REMARK                            x       y       z     vdW  Elec       q    Type
REMARK                         _______ _______ _______ _____ _____    ______ ____
ROOT
ATOM      1  C   UNL     1       0.077   1.535   0.042  0.00  0.00    +0.065 C 
ATOM      2  C   UNL     1       0.074   0.028   0.020  0.00  0.00    +0.039 A 
ATOM      3  C   UNL     1       0.080  -0.632  -1.207  0.00  0.00    +0.023 A 
ATOM      4  C   UNL     1       0.077  -1.997  -1.245  0.00  0.00    +0.012 A 
ATOM      5  C   UNL     1       0.068  -2.696  -0.023  0.00  0.00    +0.004 A 
ATOM      6  C   UNL     1       0.066  -4.100   0.016  0.00  0.00    +0.010 A 
ATOM      7  C   UNL     1       0.057  -4.743   1.217  0.00  0.00    +0.004 A 
ATOM      8  C   UNL     1       0.051  -4.027   2.411  0.00  0.00    +0.048 A 
ATOM      9  C   UNL     1       0.053  -2.661   2.413  0.00  0.00    +0.154 A 
ATOM     10  C   UNL     1       0.062  -1.962   1.188  0.00  0.00    +0.113 A 
ATOM     11  N   UNL     1       0.070  -0.626   1.156  0.00  0.00    -0.248 NA
ENDROOT
BRANCH   9  12
ATOM     12  O   UNL     1       0.046  -1.980   3.588  0.00  0.00    -0.452 OA
BRANCH  12  13
ATOM     13  C   UNL     1      -1.139  -1.494   4.036  0.00  0.00    +0.147 A 
ATOM     14  C   UNL     1      -2.314  -1.798   3.358  0.00  0.00    +0.049 A 
ATOM     15  C   UNL     1      -3.519  -1.307   3.808  0.00  0.00    +0.022 A 
ATOM     16  C   UNL     1      -3.561  -0.501   4.950  0.00  0.00    +0.053 A 
ATOM     17  C   UNL     1      -2.378  -0.196   5.629  0.00  0.00    +0.042 A 
ATOM     18  C   UNL     1      -1.176  -0.697   5.175  0.00  0.00    +0.084 A 
ATOM     19 CL   UNL     1       0.293  -0.326   6.021  0.00  0.00    -0.080 Cl
BRANCH  16  20
ATOM     20  C   UNL     1      -4.812   0.012   5.421  0.00  0.00    +0.099 C 
ATOM     21  N   UNL     1      -5.804   0.419   5.795  0.00  0.00    -0.191 NA
ENDBRANCH  16  20
ENDBRANCH  12  13
ENDBRANCH   9  12
TORSDOF 3
