REMARK  Name = ZINC20748901
REMARK  8 active torsions:
REMARK  status: ('A' for Active; 'I' for Inactive)
REMARK    1  A    between atoms: C_1  and  C_2
REMARK    2  A    between atoms: C_2  and  O_3
REMARK    3  A    between atoms: O_3  and  C_4
REMARK    4  A    between atoms: C_9  and  C_10
REMARK    5  A    between atoms: C_21  and  N_26
REMARK    6  A    between atoms: C_27  and  C_29
REMARK    7  A    between atoms: C_29  and  C_30
REMARK    8  A    between atoms: C_29  and  C_31
REMARK                            x       y       z     vdW  Elec       q    Type
REMARK                         _______ _______ _______ _____ _____    ______ ____
ROOT
ATOM      1  C   UNL     1       3.689   1.767   0.117  0.00  0.00    +0.108 C 
ATOM      2  C   UNL     1       3.511   3.149  -0.485  0.00  0.00    +0.029 C 
ATOM      3  C   UNL     1       4.645   4.159  -0.264  0.00  0.00    +0.033 C 
ATOM      4  C   UNL     1       3.885   5.486  -0.283  0.00  0.00    -0.030 C 
ATOM      5  C   UNL     1       2.623   5.292   0.078  0.00  0.00    -0.023 C 
ATOM      6  C   UNL     1       2.437   3.853   0.398  0.00  0.00    +0.049 C 
ATOM      7  C   UNL     1       1.147   3.163   0.184  0.00  0.00    -0.018 A 
ATOM      8  C   UNL     1      -0.058   3.830   0.195  0.00  0.00    +0.029 A 
ATOM      9  C   UNL     1      -1.246   3.131   0.024  0.00  0.00    +0.034 A 
ATOM     10  C   UNL     1      -1.217   1.755  -0.164  0.00  0.00    +0.025 A 
ATOM     11  C   UNL     1      -0.012   1.085  -0.179  0.00  0.00    +0.025 A 
ATOM     12  C   UNL     1       1.181   1.778  -0.016  0.00  0.00    +0.031 A 
ATOM     13  N   UNL     1       2.395   1.077  -0.076  0.00  0.00    -0.336 N 
ATOM     14  H   UNL     1       2.372  -0.005  -0.271  0.00  0.00    +0.147 HD
ENDROOT
BRANCH   1  20
ATOM     15  C   UNL     1       5.298   2.168   1.998  0.00  0.00    +0.125 A 
ATOM     16  C   UNL     1       5.585   2.272   3.352  0.00  0.00    +0.046 A 
ATOM     17  C   UNL     1       4.587   2.076   4.286  0.00  0.00    +0.004 A 
ATOM     18  C   UNL     1       3.301   1.781   3.873  0.00  0.00    +0.001 A 
ATOM     19  C   UNL     1       3.011   1.681   2.525  0.00  0.00    +0.009 A 
ATOM     20  C   UNL     1       4.006   1.876   1.587  0.00  0.00    +0.015 A 
BRANCH  15  21
ATOM     21  O   UNL     1       6.280   2.355   1.077  0.00  0.00    -0.492 OA
BRANCH  21  23
ATOM     22  C   UNL     1       8.550   2.828   0.398  0.00  0.00    +0.048 C 
ATOM     23  C   UNL     1       7.586   2.652   1.573  0.00  0.00    +0.225 C 
ENDBRANCH  21  23
ENDBRANCH  15  21
ENDBRANCH   1  20
BRANCH   9  24
ATOM     24  N   UNL     1      -2.470   3.813   0.037  0.00  0.00    -0.285 N 
ATOM     25  C   UNL     1      -3.571   3.212   0.531  0.00  0.00    +0.220 C 
ATOM     26  O   UNL     1      -3.484   2.120   1.052  0.00  0.00    -0.275 OA
ATOM     27  H   UNL     1      -2.533   4.838  -0.357  0.00  0.00    +0.155 HD
BRANCH  25  28
ATOM     28  C   UNL     1      -4.910   3.897   0.437  0.00  0.00    +0.069 C 
ATOM     29  C   UNL     1      -5.253   4.146  -1.034  0.00  0.00    +0.017 C 
ATOM     30  C   UNL     1      -5.983   3.009   1.068  0.00  0.00    +0.017 C 
ENDBRANCH  25  28
ENDBRANCH   9  24
TORSDOF 5
