REMARK  Name = ZINC36555535
REMARK  11 active torsions:
REMARK  status: ('A' for Active; 'I' for Inactive)
REMARK    1  A    between atoms: C_1  and  C_2
REMARK    2  A    between atoms: C_5  and  C_7
REMARK    3  A    between atoms: C_7  and  N_8
REMARK    4  A    between atoms: N_8  and  C_9
REMARK    5  A    between atoms: C_9  and  C_11
REMARK    6  A    between atoms: C_9  and  C_18
REMARK    7  A    between atoms: C_15  and  O_17
REMARK    8  A    between atoms: N_20  and  C_21
REMARK    9  A    between atoms: C_27  and  C_29
REMARK   10  A    between atoms: C_34  and  O_35
REMARK   11  A    between atoms: O_35  and  C_36
REMARK                            x       y       z     vdW  Elec       q    Type
REMARK                         _______ _______ _______ _____ _____    ______ ____
ROOT
ATOM      1  C   UNL     1       1.844  -2.683  -3.181  0.00  0.00    +0.193 C 
ENDROOT
BRANCH   1   2
ATOM      2  C   UNL     1       3.285  -2.410  -2.832  0.00  0.00    -0.015 A 
ATOM      3  C   UNL     1       3.686  -2.407  -1.508  0.00  0.00    +0.006 A 
ATOM      4  C   UNL     1       5.007  -2.157  -1.185  0.00  0.00    +0.004 A 
ATOM      5  C   UNL     1       5.929  -1.909  -2.183  0.00  0.00    +0.045 A 
ATOM      6  C   UNL     1       5.529  -1.912  -3.511  0.00  0.00    +0.117 A 
ATOM      7  C   UNL     1       4.204  -2.169  -3.834  0.00  0.00    +0.051 A 
BRANCH   6   8
ATOM      8  O   UNL     1       6.434  -1.668  -4.495  0.00  0.00    -0.507 OA
ATOM      9  H   UNL     1       6.872  -2.461  -4.832  0.00  0.00    +0.292 HD
ENDBRANCH   6   8
ENDBRANCH   1   2
BRANCH   1  10
ATOM     10  C   UNL     1       1.403  -1.738  -4.268  0.00  0.00    +0.238 C 
ATOM     11  O   UNL     1       0.837  -0.705  -3.981  0.00  0.00    -0.273 OA
ATOM     12  N   UNL     1       1.638  -2.041  -5.561  0.00  0.00    -0.311 N 
ATOM     13  H   UNL     1       2.091  -2.867  -5.790  0.00  0.00    +0.149 HD
BRANCH  12  14
ATOM     14  C   UNL     1       1.209  -1.122  -6.618  0.00  0.00    +0.073 C 
ATOM     15  C   UNL     1      -0.253  -1.399  -6.971  0.00  0.00    +0.022 C 
ATOM     16  C   UNL     1      -0.701  -0.439  -8.076  0.00  0.00    +0.002 C 
ATOM     17  C   UNL     1       0.171  -0.646  -9.316  0.00  0.00    +0.000 C 
ATOM     18  C   UNL     1       1.634  -0.369  -8.962  0.00  0.00    +0.002 C 
ATOM     19  C   UNL     1       2.082  -1.329  -7.858  0.00  0.00    +0.022 C 
ENDBRANCH  12  14
ENDBRANCH   1  10
BRANCH   1  20
ATOM     20  N   UNL     1       1.008  -2.486  -1.994  0.00  0.00    -0.275 N 
ATOM     21  C   UNL     1       0.263  -3.504  -1.518  0.00  0.00    +0.251 C 
ATOM     22  O   UNL     1      -0.354  -3.371  -0.479  0.00  0.00    -0.270 OA
BRANCH  21  23
ATOM     23  C   UNL     1       0.197  -4.779  -2.258  0.00  0.00    +0.078 A 
ATOM     24  C   UNL     1       1.371  -5.450  -2.607  0.00  0.00    +0.017 A 
ATOM     25  C   UNL     1       1.302  -6.640  -3.298  0.00  0.00    +0.001 A 
ATOM     26  C   UNL     1       0.073  -7.176  -3.648  0.00  0.00    +0.004 A 
ATOM     27  C   UNL     1      -1.095  -6.522  -3.308  0.00  0.00    +0.046 A 
ATOM     28  C   UNL     1      -1.044  -5.326  -2.609  0.00  0.00    +0.132 A 
BRANCH  28  29
ATOM     29  O   UNL     1      -2.192  -4.686  -2.270  0.00  0.00    -0.494 OA
ATOM     30  C   UNL     1      -3.419  -5.304  -2.662  0.00  0.00    +0.277 C 
ENDBRANCH  28  29
ENDBRANCH  21  23
BRANCH  20  31
ATOM     31  C   UNL     1       0.982  -1.184  -1.324  0.00  0.00    +0.183 C 
BRANCH  31  36
ATOM     32  C   UNL     1      -3.334   1.036  -2.698  0.00  0.00    +0.086 C 
ATOM     33  C   UNL     1      -2.311   0.295  -1.877  0.00  0.00    +0.102 A 
ATOM     34  C   UNL     1      -2.494  -0.175  -0.630  0.00  0.00    +0.045 A 
ATOM     35  C   UNL     1      -1.284  -0.798  -0.245  0.00  0.00    +0.046 A 
ATOM     36  C   UNL     1      -0.434  -0.670  -1.279  0.00  0.00    +0.122 A 
ATOM     37  O   UNL     1      -1.063  -0.013  -2.267  0.00  0.00    -0.463 OA
ENDBRANCH  31  36
ENDBRANCH  20  31
ENDBRANCH   1  20
TORSDOF 9
