REMARK  Name = ZINC12167087
REMARK  12 active torsions:
REMARK  status: ('A' for Active; 'I' for Inactive)
REMARK    1  A    between atoms: C_1  and  C_2
REMARK    2  A    between atoms: C_3  and  C_4
REMARK    3  A    between atoms: C_4  and  N_5
REMARK    4  A    between atoms: C_8  and  C_12
REMARK    5  A    between atoms: C_8  and  C_20
REMARK    6  A    between atoms: C_12  and  C_13
REMARK    7  A    between atoms: C_25  and  C_26
REMARK    8  A    between atoms: C_25  and  N_68
REMARK    9  A    between atoms: C_29  and  O_34
REMARK   10  A    between atoms: C_30  and  O_32
REMARK   11  A    between atoms: O_32  and  C_33
REMARK   12  A    between atoms: O_34  and  C_35
REMARK                            x       y       z     vdW  Elec       q    Type
REMARK                         _______ _______ _______ _____ _____    ______ ____
ROOT
ATOM      1  N   UNL     1       0.002  -0.004   0.002  0.00  0.00    -0.212 N 
ATOM      2  C   UNL     1       0.023  -0.767   1.113  0.00  0.00    +0.248 C 
ATOM      3  O   UNL     1       0.029  -0.385   2.263  0.00  0.00    -0.273 OA
ATOM      4  C   UNL     1       0.037  -2.202   0.624  0.00  0.00    +0.119 C 
ATOM      5  N   UNL     1       0.021  -2.068  -0.843  0.00  0.00    -0.284 N 
ATOM      6  C   UNL     1      -0.004  -0.750  -1.109  0.00  0.00    +0.310 C 
ATOM      7  O   UNL     1      -0.026  -0.287  -2.233  0.00  0.00    -0.252 OA
ATOM      8  H   UNL     1       0.024  -2.790  -1.491  0.00  0.00    +0.151 HD
ENDROOT
BRANCH   4   9
ATOM      9  C   UNL     1      -1.207  -2.948   1.110  0.00  0.00    +0.018 C 
ATOM     10  C   UNL     1      -1.178  -4.387   0.586  0.00  0.00    -0.013 C 
ATOM     11  C   UNL     1      -2.454  -5.109   1.024  0.00  0.00    -0.078 C 
ATOM     12  C   UNL     1      -3.701  -3.031   1.024  0.00  0.00    -0.078 C 
ATOM     13  C   UNL     1      -2.463  -2.246   0.586  0.00  0.00    -0.013 C 
ATOM     14  N   UNL     1      -3.625  -4.398   0.467  0.00  0.00    +0.382 N 
ATOM     15  H   UNL     1      -3.522  -4.337  -0.553  0.00  0.00    -0.081 HD
BRANCH  14  16
ATOM     16  C   UNL     1      -4.863  -5.141   0.780  0.00  0.00    -0.043 C 
BRANCH  16  17
ATOM     17  C   UNL     1      -4.853  -6.443   0.021  0.00  0.00    -0.060 A 
ATOM     18  C   UNL     1      -5.390  -6.502  -1.252  0.00  0.00    +0.005 A 
ATOM     19  C   UNL     1      -5.378  -7.692  -1.955  0.00  0.00    +0.049 A 
ATOM     20  C   UNL     1      -4.839  -8.832  -1.380  0.00  0.00    +0.161 A 
ATOM     21  C   UNL     1      -4.304  -8.773  -0.097  0.00  0.00    +0.162 A 
ATOM     22  C   UNL     1      -4.314  -7.576   0.601  0.00  0.00    +0.051 A 
BRANCH  21  23
ATOM     23  O   UNL     1      -3.774  -9.889   0.473  0.00  0.00    -0.491 OA
ATOM     24  C   UNL     1      -3.244  -9.754   1.793  0.00  0.00    +0.277 C 
ENDBRANCH  21  23
BRANCH  20  25
ATOM     25  O   UNL     1      -4.832 -10.005  -2.068  0.00  0.00    -0.491 OA
ATOM     26  C   UNL     1      -5.398  -9.991  -3.380  0.00  0.00    +0.277 C 
ENDBRANCH  20  25
ENDBRANCH  16  17
ENDBRANCH  14  16
ENDBRANCH   4   9
BRANCH   1  27
ATOM     27  C   UNL     1      -0.018   1.461   0.010  0.00  0.00    +0.206 C 
BRANCH  27  30
ATOM     28  C   UNL     1       3.845   2.886  -0.019  0.00  0.00    +0.106 C 
ATOM     29  C   UNL     1       2.465   2.377  -0.009  0.00  0.00    -0.104 C 
ATOM     30  C   UNL     1       1.363   1.970  -0.000  0.00  0.00    -0.083 C 
ENDBRANCH  27  30
ENDBRANCH   1  27
BRANCH   4  31
ATOM     31  C   UNL     1       1.309  -2.915   1.086  0.00  0.00    +0.070 C 
BRANCH  31  32
ATOM     32  C   UNL     1       2.515  -2.190   0.547  0.00  0.00    -0.042 A 
ATOM     33  C   UNL     1       3.096  -1.173   1.283  0.00  0.00    +0.004 A 
ATOM     34  C   UNL     1       4.202  -0.507   0.791  0.00  0.00    +0.003 A 
ATOM     35  C   UNL     1       4.730  -0.856  -0.438  0.00  0.00    +0.038 A 
ATOM     36  C   UNL     1       4.150  -1.874  -1.176  0.00  0.00    +0.124 A 
ATOM     37  C   UNL     1       3.045  -2.544  -0.679  0.00  0.00    +0.042 A 
ATOM     38  F   UNL     1       4.665  -2.216  -2.377  0.00  0.00    -0.205 F 
ENDBRANCH  31  32
ENDBRANCH   4  31
TORSDOF 9
