REMARK  Name = ZINC40056009
REMARK  9 active torsions:
REMARK  status: ('A' for Active; 'I' for Inactive)
REMARK    1  A    between atoms: C_1  and  C_2
REMARK    2  A    between atoms: C_2  and  O_3
REMARK    3  A    between atoms: O_3  and  C_4
REMARK    4  A    between atoms: C_6  and  C_11
REMARK    5  A    between atoms: C_9  and  O_10
REMARK    6  A    between atoms: C_19  and  C_35
REMARK    7  A    between atoms: C_30  and  C_32
REMARK    8  A    between atoms: C_32  and  C_33
REMARK    9  A    between atoms: C_32  and  C_34
REMARK                            x       y       z     vdW  Elec       q    Type
REMARK                         _______ _______ _______ _____ _____    ______ ____
ROOT
ATOM      1  C   UNL     1       0.654  -4.954  -0.018  0.00  0.00    +0.152 C 
ATOM      2  C   UNL     1       0.913  -5.484   1.354  0.00  0.00    +0.072 A 
ATOM      3  C   UNL     1       1.232  -4.799   2.610  0.00  0.00    +0.199 A 
ATOM      4  O   UNL     1       1.167  -3.590   2.746  0.00  0.00    -0.287 OA
ATOM      5  C   UNL     1       1.644  -5.718   3.701  0.00  0.00    +0.066 A 
ATOM      6  C   UNL     1       2.169  -5.213   4.890  0.00  0.00    +0.035 A 
ATOM      7  C   UNL     1       2.551  -6.081   5.889  0.00  0.00    +0.045 A 
ATOM      8  C   UNL     1       2.413  -7.452   5.710  0.00  0.00    -0.029 A 
ATOM      9  C   UNL     1       1.894  -7.961   4.542  0.00  0.00    +0.051 A 
ATOM     10  C   UNL     1       1.499  -7.103   3.516  0.00  0.00    +0.140 A 
ATOM     11  O   UNL     1       0.983  -7.631   2.382  0.00  0.00    -0.450 OA
ATOM     12  C   UNL     1       0.810  -6.846   1.300  0.00  0.00    +0.199 A 
ATOM     13  C   UNL     1       0.495  -7.231  -0.085  0.00  0.00    +0.289 C 
ATOM     14  O   UNL     1       0.341  -8.373  -0.472  0.00  0.00    -0.266 OA
ATOM     15  N   UNL     1       0.401  -6.132  -0.864  0.00  0.00    -0.230 N 
ATOM     16  C   UNL     1       0.115  -6.115  -2.223  0.00  0.00    +0.191 A 
ATOM     17  N   UNL     1       0.009  -5.091  -3.060  0.00  0.00    -0.125 NA
ATOM     18  N   UNL     1      -0.259  -5.255  -4.281  0.00  0.00    -0.144 NA
ATOM     19  C   UNL     1      -0.451  -6.451  -4.803  0.00  0.00    +0.106 A 
ATOM     20  S   UNL     1      -0.208  -7.468  -3.350  0.00  0.00    -0.035 S 
ATOM     21  C   UNL     1       2.836  -8.392   6.809  0.00  0.00    +0.045 C 
ATOM     22 CL   UNL     1       3.205  -5.461   7.373  0.00  0.00    -0.083 Cl
ENDROOT
BRANCH   1  25
ATOM     23  C   UNL     1      -1.498  -1.849   0.006  0.00  0.00    +0.162 A 
ATOM     24  C   UNL     1      -0.389  -2.680  -0.003  0.00  0.00    +0.055 A 
ATOM     25  C   UNL     1      -0.553  -4.052  -0.008  0.00  0.00    -0.018 A 
ATOM     26  C   UNL     1      -1.823  -4.600  -0.005  0.00  0.00    +0.009 A 
ATOM     27  C   UNL     1      -2.934  -3.777   0.004  0.00  0.00    +0.049 A 
ATOM     28  C   UNL     1      -2.776  -2.400   0.016  0.00  0.00    +0.158 A 
BRANCH  28  29
ATOM     29  O   UNL     1      -3.868  -1.589   0.030  0.00  0.00    -0.503 OA
ATOM     30  H   UNL     1      -4.192  -1.350  -0.849  0.00  0.00    +0.292 HD
ENDBRANCH  28  29
BRANCH  23  31
ATOM     31  O   UNL     1      -1.339  -0.499   0.012  0.00  0.00    -0.489 OA
BRANCH  31  33
ATOM     32  C   UNL     1      -0.019   1.526   0.010  0.00  0.00    +0.048 C 
ATOM     33  C   UNL     1       0.002  -0.004   0.002  0.00  0.00    +0.226 C 
ENDBRANCH  31  33
ENDBRANCH  23  31
ENDBRANCH   1  25
BRANCH  19  34
ATOM     34  C   UNL     1      -0.777  -6.848  -6.220  0.00  0.00    +0.040 C 
ATOM     35  C   UNL     1      -2.101  -6.204  -6.638  0.00  0.00    +0.014 C 
ATOM     36  C   UNL     1       0.338  -6.373  -7.152  0.00  0.00    +0.014 C 
ENDBRANCH  19  34
TORSDOF 5
