REMARK  Name = ZINC25983495
REMARK  7 active torsions:
REMARK  status: ('A' for Active; 'I' for Inactive)
REMARK    1  A    between atoms: C_1  and  C_2
REMARK    2  A    between atoms: C_2  and  C_4
REMARK    3  A    between atoms: C_2  and  S_15
REMARK    4  A    between atoms: N_6  and  C_7
REMARK    5  A    between atoms: C_8  and  C_12
REMARK    6  A    between atoms: S_15  and  C_16
REMARK    7  A    between atoms: N_24  and  C_25
REMARK                            x       y       z     vdW  Elec       q    Type
REMARK                         _______ _______ _______ _____ _____    ______ ____
ROOT
ATOM      1  C   UNL     1      -0.963   4.053   1.449  0.00  0.00    +0.029 C 
ATOM      2  C   UNL     1      -1.213   3.547   0.027  0.00  0.00    +0.137 C 
ENDROOT
BRANCH   2   3
ATOM      3  C   UNL     1      -1.193   2.040   0.019  0.00  0.00    +0.231 C 
ATOM      4  O   UNL     1      -2.235   1.420   0.020  0.00  0.00    -0.274 OA
ATOM      5  N   UNL     1      -0.017   1.382   0.010  0.00  0.00    -0.278 N 
ATOM      6  H   UNL     1       0.928   1.945   0.008  0.00  0.00    +0.155 HD
BRANCH   5   7
ATOM      7  C   UNL     1       0.002  -0.004   0.002  0.00  0.00    +0.084 A 
ATOM      8  C   UNL     1       1.103  -0.853  -0.019  0.00  0.00    +0.065 A 
ATOM      9  C   UNL     1       0.830  -2.270  -0.018  0.00  0.00    +0.022 A 
ATOM     10  C   UNL     1      -0.461  -2.647  -0.008  0.00  0.00    +0.048 A 
ATOM     11  S   UNL     1      -1.340  -1.098   0.008  0.00  0.00    -0.081 S 
BRANCH   8  12
ATOM     12  C   UNL     1       2.474  -0.333  -0.037  0.00  0.00    +0.244 C 
ATOM     13  O   UNL     1       2.670   0.868  -0.034  0.00  0.00    -0.270 OA
ATOM     14  N   UNL     1       3.517  -1.186  -0.057  0.00  0.00    -0.325 N 
ATOM     15  H   UNL     1       4.546  -0.796  -0.070  0.00  0.00    +0.145 HD
ATOM     16  H   UNL     1       3.340  -2.272  -0.059  0.00  0.00    +0.145 HD
ENDBRANCH   8  12
ENDBRANCH   5   7
ENDBRANCH   2   3
BRANCH   2  17
ATOM     17  S   UNL     1      -2.828   4.132  -0.546  0.00  0.00    -0.075 S 
BRANCH  17  18
ATOM     18  C   UNL     1      -2.529   5.868  -0.581  0.00  0.00    +0.175 A 
ATOM     19  N   UNL     1      -1.398   6.445  -0.256  0.00  0.00    -0.222 NA
ATOM     20  C   UNL     1      -1.515   7.791  -0.399  0.00  0.00    +0.090 A 
ATOM     21  C   UNL     1      -0.636   8.857  -0.194  0.00  0.00    +0.030 A 
ATOM     22  C   UNL     1      -1.058  10.146  -0.431  0.00  0.00    +0.002 A 
ATOM     23  C   UNL     1      -2.349  10.395  -0.872  0.00  0.00    +0.002 A 
ATOM     24  C   UNL     1      -3.229   9.353  -1.079  0.00  0.00    +0.028 A 
ATOM     25  C   UNL     1      -2.822   8.048  -0.846  0.00  0.00    +0.074 A 
ATOM     26  N   UNL     1      -3.441   6.814  -0.958  0.00  0.00    -0.262 N 
BRANCH  26  27
ATOM     27  C   UNL     1      -4.817   6.569  -1.396  0.00  0.00    +0.450 C 
ATOM     28  F   UNL     1      -5.704   7.223  -0.535  0.00  0.00    -0.185 F 
ATOM     29  F   UNL     1      -4.986   7.054  -2.697  0.00  0.00    -0.185 F 
ENDBRANCH  26  27
ENDBRANCH  17  18
ENDBRANCH   2  17
TORSDOF 6
