REMARK  Name = ZINC39863475
REMARK  4 active torsions:
REMARK  status: ('A' for Active; 'I' for Inactive)
REMARK    1  A    between atoms: C_1  and  C_2
REMARK    2  A    between atoms: C_6  and  N_8
REMARK    3  A    between atoms: N_10  and  C_26
REMARK    4  A    between atoms: C_26  and  C_27
REMARK                            x       y       z     vdW  Elec       q    Type
REMARK                         _______ _______ _______ _____ _____    ______ ____
ROOT
ATOM      1  N   UNL     1      -0.024  -2.788   2.453  0.00  0.00    -0.206 NA
ATOM      2  C   UNL     1      -0.033  -2.127   3.588  0.00  0.00    +0.170 C 
ATOM      3  N   UNL     1      -0.132  -0.767   3.785  0.00  0.00    -0.242 N 
ATOM      4  C   UNL     1      -0.125  -0.258   5.005  0.00  0.00    +0.260 C 
ATOM      5  O   UNL     1      -0.212   0.939   5.197  0.00  0.00    -0.269 OA
ATOM      6  C   UNL     1      -0.006  -1.223   6.130  0.00  0.00    +0.090 C 
ATOM      7  C   UNL     1       0.027  -0.984   7.491  0.00  0.00    +0.065 C 
ATOM      8  C   UNL     1      -0.217   0.298   8.186  0.00  0.00    +0.011 A 
ATOM      9  C   UNL     1      -0.533   1.578   7.740  0.00  0.00    +0.025 A 
ATOM     10  C   UNL     1      -0.703   2.598   8.655  0.00  0.00    +0.019 A 
ATOM     11  C   UNL     1      -0.559   2.347  10.011  0.00  0.00    +0.017 A 
ATOM     12  C   UNL     1      -0.246   1.080  10.462  0.00  0.00    +0.025 A 
ATOM     13  C   UNL     1      -0.071   0.040   9.556  0.00  0.00    +0.042 A 
ATOM     14  N   UNL     1       0.243  -1.302   9.740  0.00  0.00    -0.281 N 
ATOM     15  C   UNL     1       0.308  -1.955   8.567  0.00  0.00    +0.250 C 
ATOM     16  O   UNL     1       0.557  -3.137   8.418  0.00  0.00    -0.270 OA
ATOM     17 BR   UNL     1      -1.133   4.340   8.059  0.00  0.00    -0.050 Br
ATOM     18  S   UNL     1       0.074  -2.775   5.248  0.00  0.00    -0.048 S 
ATOM     19  H   UNL     1       0.392  -1.716  10.605  0.00  0.00    +0.155 HD
ENDROOT
BRANCH   1  25
ATOM     20  C   UNL     1       2.652  -0.580  -0.821  0.00  0.00    +0.065 C 
ATOM     21  C   UNL     1       1.300  -1.034  -0.335  0.00  0.00    +0.041 A 
ATOM     22  C   UNL     1       0.176  -0.755  -1.089  0.00  0.00    +0.023 A 
ATOM     23  C   UNL     1      -1.070  -1.174  -0.640  0.00  0.00    +0.005 A 
ATOM     24  C   UNL     1      -1.144  -1.861   0.556  0.00  0.00    +0.048 A 
ATOM     25  C   UNL     1       0.032  -2.110   1.270  0.00  0.00    +0.155 A 
ATOM     26  N   UNL     1       1.206  -1.696   0.801  0.00  0.00    -0.233 NA
ENDBRANCH   1  25
BRANCH   3  27
ATOM     27  C   UNL     1      -0.246   0.125   2.628  0.00  0.00    +0.142 C 
BRANCH  27  28
ATOM     28  C   UNL     1      -1.697   0.271   2.248  0.00  0.00    -0.015 C 
ATOM     29  C   UNL     1      -2.232   1.462   2.153  0.00  0.00    +0.005 C 
ENDBRANCH  27  28
ENDBRANCH   3  27
TORSDOF 3
