REMARK  Name = ZINC67287960
REMARK  4 active torsions:
REMARK  status: ('A' for Active; 'I' for Inactive)
REMARK    1  A    between atoms: C_9  and  C_11
REMARK    2  A    between atoms: C_18  and  C_20
REMARK    3  A    between atoms: C_23  and  N_27
REMARK    4  A    between atoms: C_25  and  O_26
REMARK                            x       y       z     vdW  Elec       q    Type
REMARK                         _______ _______ _______ _____ _____    ______ ____
ROOT
ATOM      1  C   UNL     1       3.398  -3.532   0.153  0.00  0.00    +0.072 C 
ATOM      2  C   UNL     1       3.393  -4.177   1.541  0.00  0.00    +0.014 C 
ATOM      3  C   UNL     1       4.286  -5.420   1.531  0.00  0.00    +0.020 C 
ATOM      4  C   UNL     1       3.733  -6.434   0.525  0.00  0.00    +0.108 C 
ATOM      5  N   UNL     1       3.599  -5.777  -0.783  0.00  0.00    -0.297 N 
ATOM      6  C   UNL     1       2.836  -4.525  -0.870  0.00  0.00    +0.119 C 
ATOM      7  C   UNL     1       4.165  -6.313  -1.882  0.00  0.00    +0.250 C 
ATOM      8  O   UNL     1       3.984  -5.802  -2.970  0.00  0.00    -0.270 OA
ENDROOT
BRANCH   1  17
ATOM      9  C   UNL     1      -0.503   1.059   0.123  0.00  0.00    +0.002 A 
ATOM     10  C   UNL     1       0.647   1.799   0.359  0.00  0.00    +0.002 A 
ATOM     11  C   UNL     1       1.863   1.184   0.457  0.00  0.00    +0.030 A 
ATOM     12  C   UNL     1       1.955  -0.204   0.319  0.00  0.00    +0.089 A 
ATOM     13  C   UNL     1       0.790  -0.953   0.080  0.00  0.00    +0.066 A 
ATOM     14  C   UNL     1      -0.437  -0.311  -0.017  0.00  0.00    +0.028 A 
ATOM     15  N   UNL     1       1.196  -2.270  -0.008  0.00  0.00    -0.342 N 
ATOM     16  H   UNL     1       0.625  -3.038  -0.169  0.00  0.00    +0.167 HD
ATOM     17  C   UNL     1       2.544  -2.291   0.172  0.00  0.00    +0.113 A 
ATOM     18  N   UNL     1       2.989  -1.083   0.363  0.00  0.00    -0.232 NA
ENDBRANCH   1  17
BRANCH   7  19
ATOM     19  C   UNL     1       5.004  -7.519  -1.765  0.00  0.00    +0.078 A 
ATOM     20  C   UNL     1       4.500  -8.667  -1.147  0.00  0.00    +0.019 A 
ATOM     21  C   UNL     1       5.286  -9.791  -1.039  0.00  0.00    +0.027 A 
ATOM     22  C   UNL     1       6.584  -9.790  -1.543  0.00  0.00    +0.049 A 
ATOM     23  C   UNL     1       7.094  -8.655  -2.158  0.00  0.00    +0.072 A 
ATOM     24  C   UNL     1       6.310  -7.521  -2.278  0.00  0.00    +0.131 A 
BRANCH  22  25
ATOM     25  N   UNL     1       7.377 -10.936  -1.429  0.00  0.00    -0.323 N 
ATOM     26  C   UNL     1       8.662 -11.064  -1.875  0.00  0.00    +0.091 A 
ATOM     27  C   UNL     1       9.087 -12.309  -1.583  0.00  0.00    +0.019 A 
ATOM     28  C   UNL     1       8.028 -12.977  -0.934  0.00  0.00    +0.019 A 
ATOM     29  C   UNL     1       6.997 -12.113  -0.849  0.00  0.00    +0.091 A 
ENDBRANCH  22  25
BRANCH  24  30
ATOM     30  O   UNL     1       6.804  -6.412  -2.885  0.00  0.00    -0.506 OA
ATOM     31  H   UNL     1       7.253  -5.803  -2.284  0.00  0.00    +0.292 HD
ENDBRANCH  24  30
ENDBRANCH   7  19
TORSDOF 4
