REMARK  Name = ZINC16919443
REMARK  5 active torsions:
REMARK  status: ('A' for Active; 'I' for Inactive)
REMARK    1  A    between atoms: C_3  and  C_9
REMARK    2  A    between atoms: N_10  and  N_11
REMARK    3  A    between atoms: N_11  and  C_12
REMARK    4  A    between atoms: C_12  and  N_14
REMARK    5  A    between atoms: N_14  and  C_15
REMARK                            x       y       z     vdW  Elec       q    Type
REMARK                         _______ _______ _______ _____ _____    ______ ____
ROOT
ATOM      1  C   UNL     1       5.077   1.810   0.956  0.00  0.00    +0.150 C 
ATOM      2  S   UNL     1       5.458   0.695   2.198  0.00  0.00    -0.017 S 
ENDROOT
BRANCH   1   3
ATOM      3  N   UNL     1       3.898   2.463   0.975  0.00  0.00    -0.218 N 
ATOM      4  H   UNL     1       3.267   2.303   1.693  0.00  0.00    +0.176 HD
BRANCH   3   6
ATOM      5  C   UNL     1       2.452   4.005  -0.023  0.00  0.00    +0.139 C 
ATOM      6  N   UNL     1       3.586   3.375  -0.042  0.00  0.00    -0.188 NA
BRANCH   5   9
ATOM      7  C   UNL     1       0.601   6.540  -2.080  0.00  0.00    +0.021 A 
ATOM      8  C   UNL     1       0.903   5.643  -1.076  0.00  0.00    +0.012 A 
ATOM      9  C   UNL     1       2.123   4.965  -1.093  0.00  0.00    +0.013 A 
ATOM     10  C   UNL     1       3.032   5.199  -2.130  0.00  0.00    +0.051 A 
ATOM     11  C   UNL     1       2.717   6.098  -3.128  0.00  0.00    +0.040 A 
ATOM     12  C   UNL     1       1.508   6.771  -3.101  0.00  0.00    +0.042 A 
ATOM     13 CL   UNL     1       1.123   7.906  -4.357  0.00  0.00    -0.083 Cl
ATOM     14 CL   UNL     1       4.551   4.360  -2.161  0.00  0.00    -0.083 Cl
ENDBRANCH   5   9
ENDBRANCH   3   6
ENDBRANCH   1   3
BRANCH   1  15
ATOM     15  N   UNL     1       5.955   2.033  -0.042  0.00  0.00    -0.320 N 
ATOM     16  H   UNL     1       5.709   2.606  -0.785  0.00  0.00    +0.148 HD
BRANCH  15  17
ATOM     17  C   UNL     1       7.280   1.410  -0.004  0.00  0.00    +0.034 C 
ATOM     18  C   UNL     1       8.100   1.881  -1.208  0.00  0.00    +0.029 C 
ATOM     19  C   UNL     1       9.484   1.231  -1.168  0.00  0.00    -0.008 C 
ATOM     20  C   UNL     1       9.334  -0.291  -1.218  0.00  0.00    +0.007 C 
ATOM     21  C   UNL     1       8.515  -0.762  -0.014  0.00  0.00    -0.008 C 
ATOM     22  C   UNL     1       7.130  -0.112  -0.054  0.00  0.00    +0.029 C 
ATOM     23  C   UNL     1       9.230  -0.362   1.278  0.00  0.00    +0.007 C 
ATOM     24  C   UNL     1       9.380   1.160   1.327  0.00  0.00    -0.008 C 
ATOM     25  C   UNL     1      10.199   1.631   0.124  0.00  0.00    +0.007 C 
ATOM     26  C   UNL     1       7.995   1.810   1.288  0.00  0.00    +0.029 C 
ENDBRANCH  15  17
ENDBRANCH   1  15
TORSDOF 5
