REMARK  Name = ZINC09808077
REMARK  8 active torsions:
REMARK  status: ('A' for Active; 'I' for Inactive)
REMARK    1  A    between atoms: C_1  and  O_2
REMARK    2  A    between atoms: O_2  and  C_3
REMARK    3  A    between atoms: C_3  and  C_5
REMARK    4  A    between atoms: N_8  and  C_11
REMARK    5  A    between atoms: C_11  and  C_13
REMARK    6  A    between atoms: C_11  and  C_20
REMARK    7  A    between atoms: C_21  and  O_33
REMARK    8  A    between atoms: C_26  and  C_28
REMARK                            x       y       z     vdW  Elec       q    Type
REMARK                         _______ _______ _______ _____ _____    ______ ____
ROOT
ATOM      1  C   UNL     1       2.484  -5.973   1.233  0.00  0.00    +0.005 C 
ENDROOT
BRANCH   1   2
ATOM      2  C   UNL     1       3.254  -6.332   2.478  0.00  0.00    +0.045 A 
ATOM      3  C   UNL     1       2.931  -7.190   3.452  0.00  0.00    +0.225 A 
ATOM      4  N   UNL     1       3.772  -7.387   4.520  0.00  0.00    -0.173 N 
ATOM      5  C   UNL     1       4.938  -6.673   4.535  0.00  0.00    +0.199 A 
ATOM      6  S   UNL     1       4.841  -5.729   3.033  0.00  0.00    -0.050 S 
ATOM      7  N   UNL     1       5.622  -6.969   5.605  0.00  0.00    -0.197 NA
ATOM      8  C   UNL     1       4.947  -7.875   6.325  0.00  0.00    +0.218 A 
ATOM      9  N   UNL     1       3.820  -8.160   5.710  0.00  0.00    -0.138 NA
BRANCH   8  10
ATOM     10  C   UNL     1       5.396  -8.460   7.606  0.00  0.00    +0.173 A 
ATOM     11  C   UNL     1       6.555  -8.168   8.253  0.00  0.00    +0.053 A 
ATOM     12  C   UNL     1       6.574  -8.950   9.426  0.00  0.00    +0.042 A 
ATOM     13  C   UNL     1       5.437  -9.673   9.436  0.00  0.00    +0.196 A 
ATOM     14  O   UNL     1       4.725  -9.370   8.338  0.00  0.00    -0.460 OA
ENDBRANCH   8  10
BRANCH   3  15
ATOM     15  O   UNL     1       1.757  -7.873   3.385  0.00  0.00    -0.492 OA
ATOM     16  H   UNL     1       1.606  -8.470   4.131  0.00  0.00    +0.294 HD
ENDBRANCH   3  15
ENDBRANCH   1   2
BRANCH   1  20
ATOM     17  C   UNL     1       0.679  -2.115   1.088  0.00  0.00    +0.094 C 
ATOM     18  C   UNL     1       1.419  -2.647  -0.142  0.00  0.00    -0.004 C 
ATOM     19  C   UNL     1       1.546  -4.168  -0.036  0.00  0.00    -0.077 C 
ATOM     20  N   UNL     1       2.297  -4.517   1.176  0.00  0.00    +0.387 N 
ATOM     21  C   UNL     1       1.558  -4.073   2.364  0.00  0.00    -0.077 C 
ATOM     22  C   UNL     1       1.431  -2.548   2.350  0.00  0.00    -0.004 C 
ATOM     23  H   UNL     1       3.198  -4.064   1.154  0.00  0.00    -0.080 HD
BRANCH  17  24
ATOM     24  C   UNL     1       0.618  -0.611   1.029  0.00  0.00    +0.310 C 
ATOM     25  O   UNL     1       1.124   0.049   1.905  0.00  0.00    -0.251 OA
BRANCH  24  27
ATOM     26  C   UNL     1      -0.017   1.425   0.010  0.00  0.00    +0.280 C 
ATOM     27  O   UNL     1       0.002  -0.004   0.002  0.00  0.00    -0.468 OA
ENDBRANCH  24  27
ENDBRANCH  17  24
ENDBRANCH   1  20
BRANCH   1  28
ATOM     28  C   UNL     1       3.250  -6.429   0.018  0.00  0.00    -0.056 A 
ATOM     29  C   UNL     1       4.308  -5.675  -0.454  0.00  0.00    +0.003 A 
ATOM     30  C   UNL     1       5.012  -6.093  -1.568  0.00  0.00    +0.015 A 
ATOM     31  C   UNL     1       4.657  -7.266  -2.210  0.00  0.00    +0.018 A 
ATOM     32  C   UNL     1       3.599  -8.020  -1.736  0.00  0.00    +0.015 A 
ATOM     33  C   UNL     1       2.899  -7.604  -0.619  0.00  0.00    +0.003 A 
ATOM     34 BR   UNL     1       5.619  -7.838  -3.734  0.00  0.00    -0.050 Br
ENDBRANCH   1  28
TORSDOF 7
