REMARK  Name = ZINC09048675
REMARK  12 active torsions:
REMARK  status: ('A' for Active; 'I' for Inactive)
REMARK    1  A    between atoms: C_1  and  C_2
REMARK    2  A    between atoms: C_2  and  C_3
REMARK    3  A    between atoms: C_2  and  C_4
REMARK    4  A    between atoms: C_4  and  N_57
REMARK    5  A    between atoms: C_5  and  C_6
REMARK    6  A    between atoms: C_5  and  N_57
REMARK    7  A    between atoms: C_7  and  O_24
REMARK    8  A    between atoms: C_14  and  C_15
REMARK    9  A    between atoms: C_25  and  C_26
REMARK   10  A    between atoms: C_25  and  N_57
REMARK   11  A    between atoms: C_26  and  C_27
REMARK   12  A    between atoms: C_26  and  C_28
REMARK                            x       y       z     vdW  Elec       q    Type
REMARK                         _______ _______ _______ _____ _____    ______ ____
ROOT
ATOM      1  C   UNL     1      -2.080   1.255   2.818  0.00  0.00    +0.020 A 
ATOM      2  C   UNL     1      -2.066   2.489   3.447  0.00  0.00    +0.122 A 
ATOM      3  C   UNL     1      -3.130   2.886   4.253  0.00  0.00    +0.046 A 
ATOM      4  C   UNL     1      -4.198   2.055   4.437  0.00  0.00    +0.019 A 
ATOM      5  C   UNL     1      -4.224   0.807   3.813  0.00  0.00    +0.068 A 
ATOM      6  C   UNL     1      -3.159   0.397   2.995  0.00  0.00    +0.144 A 
ATOM      7  O   UNL     1      -3.408  -0.837   2.505  0.00  0.00    -0.451 OA
ATOM      8  C   UNL     1      -4.597  -1.319   2.937  0.00  0.00    +0.176 C 
ATOM      9  C   UNL     1      -5.133  -2.525   2.626  0.00  0.00    +0.058 C 
ATOM     10  C   UNL     1      -5.202  -0.296   3.806  0.00  0.00    +0.231 C 
ATOM     11  O   UNL     1      -6.270  -0.350   4.389  0.00  0.00    -0.283 OA
ENDROOT
BRANCH   9  12
ATOM     12  C   UNL     1      -4.342  -3.509   1.872  0.00  0.00    -0.019 A 
ATOM     13  C   UNL     1      -2.993  -3.261   1.592  0.00  0.00    +0.008 A 
ATOM     14  C   UNL     1      -2.258  -4.187   0.885  0.00  0.00    +0.003 A 
ATOM     15  C   UNL     1      -2.848  -5.362   0.452  0.00  0.00    +0.038 A 
ATOM     16  C   UNL     1      -4.183  -5.616   0.725  0.00  0.00    +0.124 A 
ATOM     17  C   UNL     1      -4.932  -4.700   1.436  0.00  0.00    +0.046 A 
ATOM     18  F   UNL     1      -4.751  -6.766   0.298  0.00  0.00    -0.205 F 
ENDBRANCH   9  12
BRANCH   2  19
ATOM     19  O   UNL     1      -1.006   3.320   3.274  0.00  0.00    -0.506 OA
ATOM     20  H   UNL     1      -1.133   3.979   2.578  0.00  0.00    +0.292 HD
ENDBRANCH   2  19
BRANCH   1  21
ATOM     21  C   UNL     1      -0.923   0.840   1.945  0.00  0.00    -0.036 C 
BRANCH  21  22
ATOM     22  N   UNL     1      -1.296   1.040   0.529  0.00  0.00    +0.383 N 
ATOM     23  H   UNL     1      -2.161   0.521   0.335  0.00  0.00    -0.081 HD
BRANCH  22  24
ATOM     24  C   UNL     1      -0.224   0.533  -0.352  0.00  0.00    -0.075 C 
BRANCH  24  26
ATOM     25  C   UNL     1       0.428   0.155  -2.734  0.00  0.00    +0.005 C 
ATOM     26  C   UNL     1      -0.694   0.623  -1.806  0.00  0.00    -0.034 C 
ATOM     27  C   UNL     1      -1.922  -0.268  -2.001  0.00  0.00    +0.005 C 
ENDBRANCH  24  26
ENDBRANCH  22  24
BRANCH  22  28
ATOM     28  C   UNL     1      -1.529   2.476   0.267  0.00  0.00    -0.075 C 
BRANCH  28  29
ATOM     29  C   UNL     1      -2.586   2.605  -0.832  0.00  0.00    -0.034 C 
ATOM     30  C   UNL     1      -3.925   2.072  -0.316  0.00  0.00    +0.005 C 
ATOM     31  C   UNL     1      -2.739   4.076  -1.223  0.00  0.00    +0.005 C 
ENDBRANCH  28  29
ENDBRANCH  22  28
ENDBRANCH  21  22
ENDBRANCH   1  21
TORSDOF 8
