REMARK  Name = ZINC62975684
REMARK  9 active torsions:
REMARK  status: ('A' for Active; 'I' for Inactive)
REMARK    1  A    between atoms: C_1  and  C_2
REMARK    2  A    between atoms: C_2  and  N_3
REMARK    3  A    between atoms: N_3  and  C_4
REMARK    4  A    between atoms: N_3  and  C_6
REMARK    5  A    between atoms: C_4  and  C_5
REMARK    6  A    between atoms: N_10  and  S_12
REMARK    7  A    between atoms: S_12  and  C_15
REMARK    8  A    between atoms: C_16  and  C_22
REMARK    9  A    between atoms: C_20  and  N_21
REMARK                            x       y       z     vdW  Elec       q    Type
REMARK                         _______ _______ _______ _____ _____    ______ ____
ROOT
ATOM      1  S   UNL     1      -4.276  -4.875  -0.799  0.00  0.00    +0.063 S 
ATOM      2  O   UNL     1      -5.040  -4.542  -1.950  0.00  0.00    -0.153 OA
ATOM      3  O   UNL     1      -4.164  -6.208  -0.319  0.00  0.00    -0.153 OA
ENDROOT
BRANCH   1   4
ATOM      4  C   UNL     1      -4.920  -3.913   0.529  0.00  0.00    +0.129 A 
ATOM      5  C   UNL     1      -5.659  -2.777   0.264  0.00  0.00    -0.022 A 
ATOM      6  C   UNL     1      -6.165  -2.021   1.306  0.00  0.00    +0.005 A 
ATOM      7  C   UNL     1      -5.932  -2.400   2.615  0.00  0.00    +0.002 A 
ATOM      8  C   UNL     1      -5.195  -3.535   2.887  0.00  0.00    +0.025 A 
ATOM      9  C   UNL     1      -4.690  -4.300   1.843  0.00  0.00    +0.051 A 
ATOM     10  C   UNL     1      -5.915  -2.360  -1.161  0.00  0.00    +0.046 C 
BRANCH   9  11
ATOM     11  N   UNL     1      -3.947  -5.451   2.114  0.00  0.00    -0.356 N 
ATOM     12  H   UNL     1      -3.386  -5.840   1.425  0.00  0.00    +0.142 HD
ATOM     13  H   UNL     1      -3.993  -5.862   2.991  0.00  0.00    +0.142 HD
ENDBRANCH   9  11
ENDBRANCH   1   4
BRANCH   1  17
ATOM     14  C   UNL     1      -0.823  -3.110  -1.931  0.00  0.00    -0.051 C 
ATOM     15  C   UNL     1      -0.486  -3.713  -0.542  0.00  0.00    +0.003 C 
ATOM     16  C   UNL     1      -1.512  -4.871  -0.449  0.00  0.00    +0.108 C 
ATOM     17  N   UNL     1      -2.733  -4.345  -1.085  0.00  0.00    -0.178 NA
ATOM     18  C   UNL     1      -2.355  -3.272  -2.021  0.00  0.00    +0.094 C 
BRANCH  14  19
ATOM     19  N   UNL     1      -0.446  -1.691  -1.986  0.00  0.00    +0.382 N 
ATOM     20  H   UNL     1      -0.866  -1.201  -1.210  0.00  0.00    -0.081 HD
BRANCH  19  22
ATOM     21  C   UNL     1       1.401  -0.090  -1.840  0.00  0.00    -0.017 C 
ATOM     22  C   UNL     1       1.016  -1.569  -1.908  0.00  0.00    -0.082 C 
ENDBRANCH  19  22
BRANCH  19  23
ATOM     23  C   UNL     1      -0.920  -1.107  -3.248  0.00  0.00    -0.082 C 
ATOM     24  C   UNL     1      -0.307  -1.870  -4.425  0.00  0.00    -0.017 C 
ENDBRANCH  19  23
ENDBRANCH  14  19
ENDBRANCH   1  17
TORSDOF 6
