REMARK  Name = ZINC16073664
REMARK  6 active torsions:
REMARK  status: ('A' for Active; 'I' for Inactive)
REMARK    1  A    between atoms: C_1  and  C_2
REMARK    2  A    between atoms: C_5  and  C_8
REMARK    3  A    between atoms: C_9  and  C_10
REMARK    4  A    between atoms: N_12  and  N_13
REMARK    5  A    between atoms: C_14  and  C_16
REMARK    6  A    between atoms: C_16  and  C_17
REMARK                            x       y       z     vdW  Elec       q    Type
REMARK                         _______ _______ _______ _____ _____    ______ ____
ROOT
ATOM      1  N   UNL     1       0.128  -8.471   2.290  0.00  0.00    -0.234 N 
ATOM      2  C   UNL     1       0.143  -9.151   3.454  0.00  0.00    +0.233 C 
ATOM      3  O   UNL     1       0.140  -8.551   4.507  0.00  0.00    -0.274 OA
ATOM      4  H   UNL     1       0.130  -8.952   1.447  0.00  0.00    +0.173 HD
ENDROOT
BRANCH   1   7
ATOM      5  C   UNL     1       0.094  -6.390   1.134  0.00  0.00    +0.253 C 
ATOM      6  O   UNL     1       0.097  -6.993   0.077  0.00  0.00    -0.269 OA
ATOM      7  N   UNL     1       0.109  -7.070   2.298  0.00  0.00    -0.231 N 
ATOM      8  H   UNL     1       0.107  -6.590   3.140  0.00  0.00    +0.173 HD
BRANCH   5  10
ATOM      9  C   UNL     1       0.060  -4.246  -0.021  0.00  0.00    +0.013 C 
ATOM     10  C   UNL     1       0.075  -4.926   1.142  0.00  0.00    +0.069 C 
BRANCH   9  15
ATOM     11  C   UNL     1      -0.018   1.503   0.010  0.00  0.00    +0.044 C 
ATOM     12  C   UNL     1       0.002  -0.004   0.002  0.00  0.00    -0.050 A 
ATOM     13  C   UNL     1       0.006  -0.686  -1.202  0.00  0.00    +0.004 A 
ATOM     14  C   UNL     1       0.024  -2.064  -1.218  0.00  0.00    +0.008 A 
ATOM     15  C   UNL     1       0.040  -2.774  -0.013  0.00  0.00    -0.025 A 
ATOM     16  C   UNL     1       0.037  -2.078   1.200  0.00  0.00    +0.008 A 
ATOM     17  C   UNL     1       0.023  -0.699   1.199  0.00  0.00    +0.004 A 
ENDBRANCH   9  15
ENDBRANCH   5  10
ENDBRANCH   1   7
BRANCH   2  18
ATOM     18  C   UNL     1       0.163 -10.658   3.445  0.00  0.00    +0.134 C 
BRANCH  18  19
ATOM     19  C   UNL     1       0.177 -11.168   4.863  0.00  0.00    -0.014 A 
ATOM     20  C   UNL     1       1.261 -11.507   5.579  0.00  0.00    +0.087 A 
ATOM     21  N   UNL     1       0.884 -11.926   6.826  0.00  0.00    -0.360 N 
ATOM     22  H   UNL     1       1.492 -12.222   7.522  0.00  0.00    +0.165 HD
ATOM     23  C   UNL     1      -0.486 -11.866   6.946  0.00  0.00    +0.047 A 
ATOM     24  C   UNL     1      -0.989 -11.382   5.724  0.00  0.00    +0.003 A 
ATOM     25  C   UNL     1      -2.364 -11.210   5.556  0.00  0.00    +0.010 A 
ATOM     26  C   UNL     1      -3.216 -11.509   6.582  0.00  0.00    +0.001 A 
ATOM     27  C   UNL     1      -2.724 -11.982   7.790  0.00  0.00    +0.002 A 
ATOM     28  C   UNL     1      -1.372 -12.168   7.975  0.00  0.00    +0.026 A 
ENDBRANCH  18  19
ENDBRANCH   2  18
TORSDOF 5
