REMARK  Name = ZINC39354251
REMARK  6 active torsions:
REMARK  status: ('A' for Active; 'I' for Inactive)
REMARK    1  A    between atoms: C_4  and  C_7
REMARK    2  A    between atoms: C_9  and  C_17
REMARK    3  A    between atoms: N_18  and  N_19
REMARK    4  A    between atoms: C_24  and  C_27
REMARK    5  A    between atoms: C_27  and  C_28
REMARK    6  A    between atoms: C_28  and  C_30
REMARK                            x       y       z     vdW  Elec       q    Type
REMARK                         _______ _______ _______ _____ _____    ______ ____
ROOT
ATOM      1  C   UNL     1       4.191  -0.413  -2.576  0.00  0.00    +0.141 C 
ATOM      2  N   UNL     1       4.458  -0.989  -3.736  0.00  0.00    -0.155 NA
ENDROOT
BRANCH   1   4
ATOM      3  C   UNL     1       3.711  -0.707  -0.038  0.00  0.00    +0.142 C 
ATOM      4  C   UNL     1       4.019  -1.190  -1.438  0.00  0.00    +0.008 C 
ATOM      5  C   UNL     1       4.095  -2.586  -1.345  0.00  0.00    +0.005 A 
ATOM      6  C   UNL     1       4.350  -3.591  -2.299  0.00  0.00    +0.010 A 
ATOM      7  C   UNL     1       4.362  -4.896  -1.918  0.00  0.00    +0.001 A 
ATOM      8  C   UNL     1       4.128  -5.272  -0.596  0.00  0.00    +0.002 A 
ATOM      9  C   UNL     1       3.876  -4.357   0.374  0.00  0.00    +0.026 A 
ATOM     10  C   UNL     1       3.847  -2.977   0.050  0.00  0.00    +0.044 A 
ATOM     11  N   UNL     1       3.628  -1.909   0.798  0.00  0.00    -0.373 N 
ATOM     12  H   UNL     1       3.443  -1.918   1.750  0.00  0.00    +0.161 HD
BRANCH   3  16
ATOM     13  C   UNL     1      -0.017   1.378   0.010  0.00  0.00    +0.000 A 
ATOM     14  C   UNL     1       1.171   2.086   0.002  0.00  0.00    +0.000 A 
ATOM     15  C   UNL     1       2.377   1.411  -0.013  0.00  0.00    +0.006 A 
ATOM     16  C   UNL     1       2.396   0.029  -0.020  0.00  0.00    -0.021 A 
ATOM     17  C   UNL     1       1.208  -0.679  -0.012  0.00  0.00    +0.006 A 
ATOM     18  C   UNL     1       0.002  -0.004   0.002  0.00  0.00    +0.000 A 
ENDBRANCH   3  16
ENDBRANCH   1   4
BRANCH   2  19
ATOM     19  N   UNL     1       4.617  -0.267  -4.793  0.00  0.00    -0.127 NA
ATOM     20  C   UNL     1       4.886  -0.846  -5.960  0.00  0.00    +0.183 C 
ATOM     21  N   UNL     1       5.018  -2.183  -6.205  0.00  0.00    -0.263 N 
ATOM     22  C   UNL     1       5.289  -2.662  -7.411  0.00  0.00    +0.232 C 
ATOM     23  O   UNL     1       5.410  -3.845  -7.648  0.00  0.00    -0.274 OA
ATOM     24  C   UNL     1       5.431  -1.577  -8.468  0.00  0.00    +0.147 C 
ATOM     25  S   UNL     1       5.125  -0.084  -7.440  0.00  0.00    -0.075 S 
ATOM     26  H   UNL     1       4.911  -2.805  -5.468  0.00  0.00    +0.157 HD
BRANCH  24  27
ATOM     27  C   UNL     1       4.369  -1.722  -9.560  0.00  0.00    +0.103 C 
BRANCH  27  28
ATOM     28  C   UNL     1       4.622  -0.707 -10.645  0.00  0.00    +0.165 C 
ATOM     29  O   UNL     1       5.559   0.057 -10.554  0.00  0.00    -0.292 OA
BRANCH  28  30
ATOM     30  C   UNL     1       3.731  -0.643 -11.815  0.00  0.00    +0.017 A 
ATOM     31  C   UNL     1       2.646  -1.518 -11.920  0.00  0.00    +0.011 A 
ATOM     32  C   UNL     1       1.816  -1.452 -13.019  0.00  0.00    +0.001 A 
ATOM     33  C   UNL     1       2.054  -0.521 -14.016  0.00  0.00    +0.000 A 
ATOM     34  C   UNL     1       3.127   0.348 -13.919  0.00  0.00    +0.001 A 
ATOM     35  C   UNL     1       3.963   0.298 -12.824  0.00  0.00    +0.011 A 
ENDBRANCH  28  30
ENDBRANCH  27  28
ENDBRANCH  24  27
ENDBRANCH   2  19
TORSDOF 6
