REMARK  Name = ZINC14461543
REMARK  7 active torsions:
REMARK  status: ('A' for Active; 'I' for Inactive)
REMARK    1  A    between atoms: C_1  and  C_2
REMARK    2  A    between atoms: C_2  and  N_3
REMARK    3  A    between atoms: N_3  and  C_4
REMARK    4  A    between atoms: N_3  and  C_6
REMARK    5  A    between atoms: C_4  and  C_5
REMARK    6  A    between atoms: C_9  and  C_12
REMARK    7  A    between atoms: C_23  and  N_28
REMARK                            x       y       z     vdW  Elec       q    Type
REMARK                         _______ _______ _______ _____ _____    ______ ____
ROOT
ATOM      1  C   UNL     1      -1.168  -6.221   0.773  0.00  0.00    +0.105 C 
ATOM      2  C   UNL     1      -0.245  -6.561   1.929  0.00  0.00    +0.029 C 
ATOM      3  C   UNL     1       1.190  -6.023   1.861  0.00  0.00    +0.033 C 
ATOM      4  C   UNL     1       1.534  -5.873   3.344  0.00  0.00    -0.030 C 
ATOM      5  C   UNL     1       0.424  -5.701   4.052  0.00  0.00    -0.023 C 
ATOM      6  C   UNL     1      -0.752  -5.708   3.130  0.00  0.00    +0.049 C 
ATOM      7  C   UNL     1      -2.081  -6.225   3.524  0.00  0.00    -0.017 A 
ATOM      8  C   UNL     1      -2.505  -6.253   4.835  0.00  0.00    +0.038 A 
ATOM      9  C   UNL     1      -3.762  -6.735   5.151  0.00  0.00    +0.127 A 
ATOM     10  C   UNL     1      -4.600  -7.189   4.149  0.00  0.00    +0.034 A 
ATOM     11  C   UNL     1      -4.183  -7.171   2.835  0.00  0.00    +0.025 A 
ATOM     12  C   UNL     1      -2.918  -6.695   2.507  0.00  0.00    +0.032 A 
ATOM     13  N   UNL     1      -2.504  -6.720   1.166  0.00  0.00    -0.336 N 
ATOM     14  H   UNL     1      -3.101  -7.069   0.486  0.00  0.00    +0.147 HD
ENDROOT
BRANCH   1  18
ATOM     15  C   UNL     1      -1.290  -1.993   0.172  0.00  0.00    +0.013 A 
ATOM     16  C   UNL     1      -0.338  -2.757  -0.478  0.00  0.00    +0.022 A 
ATOM     17  C   UNL     1      -0.299  -4.125  -0.283  0.00  0.00    +0.007 A 
ATOM     18  C   UNL     1      -1.211  -4.729   0.561  0.00  0.00    -0.027 A 
ATOM     19  C   UNL     1      -2.162  -3.966   1.212  0.00  0.00    +0.007 A 
ATOM     20  C   UNL     1      -2.199  -2.597   1.020  0.00  0.00    +0.022 A 
BRANCH  15  21
ATOM     21  N   UNL     1      -1.330  -0.610  -0.025  0.00  0.00    -0.394 NA
ATOM     22  H   UNL     1      -2.078  -0.213   0.524  0.00  0.00    +0.126 HD
BRANCH  21  24
ATOM     23  C   UNL     1       0.124  -0.192   1.900  0.00  0.00    +0.022 C 
ATOM     24  C   UNL     1      -0.051  -0.019   0.390  0.00  0.00    +0.081 C 
ENDBRANCH  21  24
BRANCH  21  25
ATOM     25  C   UNL     1      -1.563  -0.324  -1.447  0.00  0.00    +0.081 C 
ATOM     26  C   UNL     1      -2.958  -0.813  -1.844  0.00  0.00    +0.022 C 
ENDBRANCH  21  25
ENDBRANCH  15  21
ENDBRANCH   1  18
BRANCH   9  27
ATOM     27  N   UNL     1      -4.211  -6.763   6.561  0.00  0.00    +0.056 N 
ATOM     28  O   UNL     1      -3.478  -6.365   7.437  0.00  0.00    -0.126 OA
ATOM     29  O   UNL     1      -5.310  -7.184   6.838  0.00  0.00    -0.126 OA
ENDBRANCH   9  27
TORSDOF 5
