REMARK  Name = ZINC28912908
REMARK  6 active torsions:
REMARK  status: ('A' for Active; 'I' for Inactive)
REMARK    1  A    between atoms: C_4  and  C_7
REMARK    2  A    between atoms: C_7  and  C_25
REMARK    3  A    between atoms: N_10  and  C_14
REMARK    4  A    between atoms: C_14  and  C_15
REMARK    5  A    between atoms: C_15  and  C_17
REMARK    6  A    between atoms: C_15  and  O_24
REMARK                            x       y       z     vdW  Elec       q    Type
REMARK                         _______ _______ _______ _____ _____    ______ ____
ROOT
ATOM      1  C   UNL     1       6.389  -0.278   1.433  0.00  0.00    +0.164 C 
ATOM      2  C   UNL     1       5.607   0.828   0.753  0.00  0.00    +0.256 C 
ATOM      3  O   UNL     1       6.050   1.844   0.263  0.00  0.00    -0.272 OA
ATOM      4  N   UNL     1       4.315   0.447   0.809  0.00  0.00    -0.221 N 
ATOM      5  C   UNL     1       4.174  -0.731   1.427  0.00  0.00    +0.310 C 
ATOM      6  O   UNL     1       3.103  -1.278   1.603  0.00  0.00    -0.252 OA
ATOM      7  N   UNL     1       5.351  -1.244   1.830  0.00  0.00    -0.278 N 
ATOM      8  H   UNL     1       5.632  -2.171   2.352  0.00  0.00    +0.152 HD
ENDROOT
BRANCH   1  12
ATOM      9  C   UNL     1       9.142  -2.069  -1.300  0.00  0.00    +0.000 A 
ATOM     10  C   UNL     1       8.307  -2.865  -0.537  0.00  0.00    +0.000 A 
ATOM     11  C   UNL     1       7.417  -2.286   0.347  0.00  0.00    +0.006 A 
ATOM     12  C   UNL     1       7.361  -0.910   0.469  0.00  0.00    -0.011 A 
ATOM     13  C   UNL     1       8.191  -0.114  -0.297  0.00  0.00    +0.006 A 
ATOM     14  C   UNL     1       9.085  -0.693  -1.178  0.00  0.00    +0.000 A 
ENDBRANCH   1  12
BRANCH   1  15
ATOM     15  C   UNL     1       7.112   0.251   2.645  0.00  0.00    -0.011 A 
ATOM     16  C   UNL     1       7.912   1.373   2.537  0.00  0.00    +0.006 A 
ATOM     17  C   UNL     1       8.572   1.861   3.650  0.00  0.00    +0.000 A 
ATOM     18  C   UNL     1       8.438   1.222   4.868  0.00  0.00    +0.000 A 
ATOM     19  C   UNL     1       7.641   0.097   4.975  0.00  0.00    +0.000 A 
ATOM     20  C   UNL     1       6.979  -0.389   3.863  0.00  0.00    +0.006 A 
ENDBRANCH   1  15
BRANCH   4  21
ATOM     21  C   UNL     1       3.202   1.230   0.265  0.00  0.00    +0.154 C 
BRANCH  21  22
ATOM     22  C   UNL     1       2.959   0.827  -1.191  0.00  0.00    +0.165 C 
BRANCH  22  23
ATOM     23  C   UNL     1       1.815   1.632  -1.750  0.00  0.00    +0.018 A 
ATOM     24  C   UNL     1       2.067   2.792  -2.459  0.00  0.00    +0.009 A 
ATOM     25  C   UNL     1       1.017   3.530  -2.973  0.00  0.00    +0.001 A 
ATOM     26  C   UNL     1      -0.286   3.109  -2.779  0.00  0.00    +0.003 A 
ATOM     27  C   UNL     1      -0.540   1.948  -2.075  0.00  0.00    +0.039 A 
ATOM     28  C   UNL     1       0.511   1.210  -1.555  0.00  0.00    +0.129 A 
ATOM     29  F   UNL     1       0.264   0.076  -0.863  0.00  0.00    -0.205 F 
ENDBRANCH  22  23
BRANCH  22  30
ATOM     30  O   UNL     1       4.139   1.079  -1.958  0.00  0.00    -0.386 OA
ATOM     31  H   UNL     1       4.154   0.851  -3.034  0.00  0.00    +0.210 HD
ENDBRANCH  22  30
ENDBRANCH  21  22
ENDBRANCH   4  21
TORSDOF 6
