REMARK  Name = ZINC16885819
REMARK  8 active torsions:
REMARK  status: ('A' for Active; 'I' for Inactive)
REMARK    1  A    between atoms: C_1  and  C_2
REMARK    2  A    between atoms: C_4  and  C_24
REMARK    3  A    between atoms: C_5  and  C_17
REMARK    4  A    between atoms: N_8  and  C_9
REMARK    5  A    between atoms: C_9  and  C_10
REMARK    6  A    between atoms: C_17  and  C_18
REMARK    7  A    between atoms: C_25  and  C_26
REMARK    8  A    between atoms: C_35  and  O_36
REMARK                            x       y       z     vdW  Elec       q    Type
REMARK                         _______ _______ _______ _____ _____    ______ ____
ROOT
ATOM      1  C   UNL     1       2.182   4.904  -0.108  0.00  0.00    +0.086 C 
ATOM      2  C   UNL     1       1.189   3.820   0.221  0.00  0.00    +0.110 A 
ATOM      3  N   UNL     1      -0.077   4.120   0.297  0.00  0.00    -0.234 NA
ATOM      4  C   UNL     1      -1.001   3.184   0.589  0.00  0.00    +0.074 A 
ATOM      5  C   UNL     1      -0.599   1.869   0.808  0.00  0.00    +0.047 A 
ATOM      6  C   UNL     1       0.768   1.567   0.726  0.00  0.00    +0.258 A 
ATOM      7  O   UNL     1       1.166   0.429   0.915  0.00  0.00    -0.267 OA
ATOM      8  N   UNL     1       1.635   2.558   0.429  0.00  0.00    -0.292 N 
ENDROOT
BRANCH   4   9
ATOM      9  C   UNL     1      -2.420   3.546   0.670  0.00  0.00    +0.029 C 
ATOM     10  C   UNL     1      -2.810   4.812   0.409  0.00  0.00    +0.014 C 
BRANCH  10  11
ATOM     11  C   UNL     1      -4.225   5.179   0.511  0.00  0.00    +0.024 A 
ATOM     12  C   UNL     1      -4.647   6.313   1.333  0.00  0.00    -0.007 A 
ATOM     13  C   UNL     1      -3.720   7.089   2.037  0.00  0.00    +0.009 A 
ATOM     14  C   UNL     1      -4.153   8.141   2.788  0.00  0.00    +0.001 A 
ATOM     15  C   UNL     1      -5.507   8.458   2.860  0.00  0.00    +0.001 A 
ATOM     16  C   UNL     1      -6.435   7.727   2.183  0.00  0.00    +0.008 A 
ATOM     17  C   UNL     1      -6.024   6.636   1.399  0.00  0.00    -0.017 A 
ATOM     18  C   UNL     1      -6.954   5.858   0.686  0.00  0.00    +0.012 A 
ATOM     19  C   UNL     1      -6.547   4.804  -0.069  0.00  0.00    +0.046 A 
ATOM     20  C   UNL     1      -5.203   4.449  -0.172  0.00  0.00    +0.125 A 
BRANCH  20  21
ATOM     21  O   UNL     1      -4.841   3.389  -0.937  0.00  0.00    -0.506 OA
ATOM     22  H   UNL     1      -4.910   2.537  -0.486  0.00  0.00    +0.292 HD
ENDBRANCH  20  21
ENDBRANCH  10  11
ENDBRANCH   4   9
BRANCH   8  23
ATOM     23  C   UNL     1       3.068   2.266   0.332  0.00  0.00    +0.163 C 
BRANCH  23  24
ATOM     24  C   UNL     1       3.584   1.829   1.679  0.00  0.00    -0.009 A 
ATOM     25  C   UNL     1       3.907   0.502   1.897  0.00  0.00    +0.007 A 
ATOM     26  C   UNL     1       4.380   0.101   3.133  0.00  0.00    +0.000 A 
ATOM     27  C   UNL     1       4.531   1.025   4.150  0.00  0.00    +0.001 A 
ATOM     28  C   UNL     1       4.209   2.351   3.932  0.00  0.00    +0.020 A 
ATOM     29  C   UNL     1       3.740   2.755   2.694  0.00  0.00    +0.046 A 
ATOM     30 CL   UNL     1       3.342   4.422   2.418  0.00  0.00    -0.083 Cl
ENDBRANCH  23  24
ENDBRANCH   8  23
BRANCH   5  31
ATOM     31  C   UNL     1      -1.608   0.797   1.131  0.00  0.00    +0.078 C 
BRANCH  31  32
ATOM     32  C   UNL     1      -1.962   0.046  -0.126  0.00  0.00    -0.043 A 
ATOM     33  C   UNL     1      -2.931   0.541  -0.978  0.00  0.00    +0.004 A 
ATOM     34  C   UNL     1      -3.253  -0.145  -2.133  0.00  0.00    +0.000 A 
ATOM     35  C   UNL     1      -2.612  -1.333  -2.432  0.00  0.00    +0.000 A 
ATOM     36  C   UNL     1      -1.647  -1.832  -1.577  0.00  0.00    +0.000 A 
ATOM     37  C   UNL     1      -1.322  -1.143  -0.424  0.00  0.00    +0.004 A 
ENDBRANCH  31  32
ENDBRANCH   5  31
TORSDOF 7
