REMARK  Name = ZINC06134813
REMARK  11 active torsions:
REMARK  status: ('A' for Active; 'I' for Inactive)
REMARK    1  A    between atoms: C_1  and  C_2
REMARK    2  A    between atoms: C_2  and  C_3
REMARK    3  A    between atoms: C_2  and  C_4
REMARK    4  A    between atoms: C_4  and  O_5
REMARK    5  A    between atoms: O_5  and  C_6
REMARK    6  A    between atoms: N_8  and  C_9
REMARK    7  A    between atoms: C_9  and  C_11
REMARK    8  A    between atoms: C_9  and  C_22
REMARK    9  A    between atoms: C_11  and  C_12
REMARK   10  A    between atoms: N_24  and  N_25
REMARK   11  A    between atoms: C_26  and  C_27
REMARK                            x       y       z     vdW  Elec       q    Type
REMARK                         _______ _______ _______ _____ _____    ______ ____
ROOT
ATOM      1  C   UNL     1       4.864   8.078   0.000  0.00  0.00    +0.168 C 
ENDROOT
BRANCH   1   4
ATOM      2  C   UNL     1       5.469  10.388  -0.486  0.00  0.00    +0.401 C 
ATOM      3  O   UNL     1       6.521   9.986  -0.943  0.00  0.00    -0.226 OA
ATOM      4  N   UNL     1       4.571   9.514   0.011  0.00  0.00    -0.269 N 
ATOM      5  H   UNL     1       3.732   9.835   0.375  0.00  0.00    +0.153 HD
BRANCH   2   6
ATOM      6  O   UNL     1       5.200  11.707  -0.476  0.00  0.00    -0.450 OA
BRANCH   6   7
ATOM      7  C   UNL     1       6.212  12.590  -1.028  0.00  0.00    +0.236 C 
BRANCH   7   9
ATOM      8  C   UNL     1       6.847  14.979  -1.396  0.00  0.00    +0.010 C 
ATOM      9  C   UNL     1       5.732  14.040  -0.931  0.00  0.00    +0.021 C 
ATOM     10  C   UNL     1       4.501  14.230  -1.820  0.00  0.00    +0.010 C 
ENDBRANCH   7   9
ENDBRANCH   6   7
ENDBRANCH   2   6
ENDBRANCH   1   4
BRANCH   1  11
ATOM     11  C   UNL     1       3.572   7.302   0.008  0.00  0.00    +0.253 C 
ATOM     12  O   UNL     1       2.511   7.891   0.021  0.00  0.00    -0.272 OA
ATOM     13  N   UNL     1       3.596   5.955   0.001  0.00  0.00    -0.205 N 
ATOM     14  H   UNL     1       4.444   5.484  -0.010  0.00  0.00    +0.177 HD
BRANCH  13  15
ATOM     15  N   UNL     1       2.395   5.233   0.008  0.00  0.00    -0.188 NA
ATOM     16  C   UNL     1       2.417   3.936   0.001  0.00  0.00    +0.139 C 
BRANCH  16  17
ATOM     17  C   UNL     1       1.153   3.176   0.008  0.00  0.00    +0.013 A 
ATOM     18  C   UNL     1       1.173   1.780   0.000  0.00  0.00    +0.011 A 
ATOM     19  C   UNL     1      -0.013   1.076   0.008  0.00  0.00    +0.001 A 
ATOM     20  C   UNL     1      -1.222   1.750   0.017  0.00  0.00    +0.001 A 
ATOM     21  C   UNL     1      -1.250   3.132   0.031  0.00  0.00    +0.020 A 
ATOM     22  C   UNL     1      -0.071   3.851   0.023  0.00  0.00    +0.050 A 
ATOM     23 CL   UNL     1      -0.109   5.586   0.033  0.00  0.00    -0.083 Cl
ENDBRANCH  16  17
ENDBRANCH  13  15
ENDBRANCH   1  11
BRANCH   1  24
ATOM     24  C   UNL     1       5.684   7.716   1.240  0.00  0.00    +0.069 C 
BRANCH  24  25
ATOM     25  C   UNL     1       7.027   8.397   1.171  0.00  0.00    -0.020 A 
ATOM     26  C   UNL     1       8.167   7.868   0.700  0.00  0.00    +0.087 A 
ATOM     27  N   UNL     1       9.180   8.783   0.797  0.00  0.00    -0.360 N 
ATOM     28  H   UNL     1      10.097   8.630   0.519  0.00  0.00    +0.165 HD
ATOM     29  C   UNL     1       8.704   9.952   1.347  0.00  0.00    +0.047 A 
ATOM     30  C   UNL     1       7.333   9.764   1.600  0.00  0.00    +0.003 A 
ATOM     31  C   UNL     1       6.580  10.798   2.159  0.00  0.00    +0.010 A 
ATOM     32  C   UNL     1       7.178  11.990   2.454  0.00  0.00    +0.001 A 
ATOM     33  C   UNL     1       8.530  12.182   2.203  0.00  0.00    +0.002 A 
ATOM     34  C   UNL     1       9.294  11.173   1.659  0.00  0.00    +0.026 A 
ENDBRANCH  24  25
ENDBRANCH   1  24
TORSDOF 9
