REMARK  Name = ZINC40585250
REMARK  5 active torsions:
REMARK  status: ('A' for Active; 'I' for Inactive)
REMARK    1  A    between atoms: C_6  and  C_7
REMARK    2  A    between atoms: C_7  and  N_8
REMARK    3  A    between atoms: C_10  and  N_24
REMARK    4  A    between atoms: C_11  and  N_15
REMARK    5  A    between atoms: N_15  and  C_16
REMARK                            x       y       z     vdW  Elec       q    Type
REMARK                         _______ _______ _______ _____ _____    ______ ____
ROOT
ATOM      1  N   UNL     1      -2.262  -0.248  -1.423  0.00  0.00    -0.323 N 
ATOM      2  C   UNL     1      -3.294  -1.144  -1.654  0.00  0.00    +0.155 A 
ATOM      3  C   UNL     1      -3.587  -1.566  -2.947  0.00  0.00    +0.205 A 
ATOM      4  C   UNL     1      -4.632  -2.467  -3.126  0.00  0.00    +0.159 A 
ATOM      5  N   UNL     1      -5.310  -2.890  -2.060  0.00  0.00    -0.218 NA
ATOM      6  C   UNL     1      -5.002  -2.467  -0.851  0.00  0.00    +0.225 A 
ATOM      7  N   UNL     1      -4.016  -1.619  -0.640  0.00  0.00    -0.218 NA
ATOM      8  H   UNL     1      -1.741   0.093  -2.167  0.00  0.00    +0.148 HD
ENDROOT
BRANCH   3   9
ATOM      9  N   UNL     1      -2.808  -1.069  -4.103  0.00  0.00    +0.063 N 
ATOM     10  O   UNL     1      -1.819  -1.663  -4.466  0.00  0.00    -0.126 OA
ATOM     11  O   UNL     1      -3.159  -0.068  -4.684  0.00  0.00    -0.126 OA
ENDBRANCH   3   9
BRANCH   4  12
ATOM     12  N   UNL     1      -4.964  -2.918  -4.395  0.00  0.00    -0.295 N 
ATOM     13  H   UNL     1      -4.408  -2.682  -5.154  0.00  0.00    +0.154 HD
BRANCH  12  14
ATOM     14  C   UNL     1      -6.100  -3.714  -4.580  0.00  0.00    +0.068 A 
ATOM     15  C   UNL     1      -7.148  -3.654  -3.671  0.00  0.00    +0.027 A 
ATOM     16  C   UNL     1      -8.268  -4.440  -3.856  0.00  0.00    +0.017 A 
ATOM     17  C   UNL     1      -8.348  -5.288  -4.946  0.00  0.00    +0.021 A 
ATOM     18  C   UNL     1      -7.307  -5.352  -5.854  0.00  0.00    +0.055 A 
ATOM     19  C   UNL     1      -6.185  -4.563  -5.678  0.00  0.00    +0.145 A 
ATOM     20  F   UNL     1      -5.170  -4.620  -6.569  0.00  0.00    -0.204 F 
ATOM     21 BR   UNL     1      -9.884  -6.363  -5.194  0.00  0.00    -0.050 Br
ENDBRANCH  12  14
ENDBRANCH   4  12
BRANCH   1  22
ATOM     22  C   UNL     1      -1.959   0.185  -0.057  0.00  0.00    +0.138 C 
BRANCH  22  28
ATOM     23  C   UNL     1      -1.042   2.507  -0.210  0.00  0.00    +0.009 A 
ATOM     24  C   UNL     1       0.015   3.398  -0.232  0.00  0.00    +0.050 A 
ATOM     25  C   UNL     1       1.316   2.934  -0.125  0.00  0.00    +0.166 A 
ATOM     26  C   UNL     1       1.556   1.568   0.006  0.00  0.00    +0.167 A 
ATOM     27  C   UNL     1       0.492   0.681   0.027  0.00  0.00    +0.054 A 
ATOM     28  C   UNL     1      -0.804   1.152  -0.080  0.00  0.00    -0.027 A 
ATOM     29  O   UNL     1       2.903   1.368   0.092  0.00  0.00    -0.453 OA
ATOM     30  C   UNL     1       3.504   2.582  -0.396  0.00  0.00    +0.466 C 
ATOM     31  O   UNL     1       2.513   3.590  -0.120  0.00  0.00    -0.453 OA
ENDBRANCH  22  28
ENDBRANCH   1  22
TORSDOF 5
