REMARK  Name = ZINC24764451
REMARK  4 active torsions:
REMARK  status: ('A' for Active; 'I' for Inactive)
REMARK    1  A    between atoms: C_1  and  C_2
REMARK    2  A    between atoms: N_7  and  C_8
REMARK    3  A    between atoms: C_16  and  C_18
REMARK    4  A    between atoms: C_22  and  C_28
REMARK                            x       y       z     vdW  Elec       q    Type
REMARK                         _______ _______ _______ _____ _____    ______ ____
ROOT
ATOM      1  C   UNL     1       6.315   5.953  -1.763  0.00  0.00    +0.021 C 
ATOM      2  C   UNL     1       5.123   5.982  -2.721  0.00  0.00    +0.069 C 
ATOM      3  C   UNL     1       4.508   4.578  -2.877  0.00  0.00    +0.130 C 
ATOM      4  N   UNL     1       3.135   4.495  -2.438  0.00  0.00    -0.248 N 
ATOM      5  C   UNL     1       2.508   5.607  -1.930  0.00  0.00    +0.164 C 
ATOM      6  N   UNL     1       1.275   5.691  -1.488  0.00  0.00    -0.226 NA
ATOM      7  S   UNL     1       3.719   6.911  -1.998  0.00  0.00    -0.085 S 
ATOM      8  C   UNL     1       2.470   3.326  -2.521  0.00  0.00    +0.243 C 
ATOM      9  O   UNL     1       1.283   3.284  -2.277  0.00  0.00    -0.273 OA
ENDROOT
BRANCH   8  10
ATOM     10  C   UNL     1       3.203   2.069  -2.916  0.00  0.00    +0.174 C 
ATOM     11  C   UNL     1       3.862   1.467  -1.657  0.00  0.00    +0.103 C 
ATOM     12  S   UNL     1       3.297  -0.284  -1.731  0.00  0.00    -0.133 S 
ATOM     13  C   UNL     1       2.649  -0.259  -3.451  0.00  0.00    +0.082 C 
ATOM     14  N   UNL     1       2.257   1.166  -3.582  0.00  0.00    -0.275 N 
ATOM     15  C   UNL     1       1.076   1.239  -4.248  0.00  0.00    +0.217 C 
ATOM     16  O   UNL     1       0.560   2.269  -4.627  0.00  0.00    -0.276 OA
ATOM     17  C   UNL     1       0.493  -0.139  -4.453  0.00  0.00    +0.099 C 
ATOM     18  C   UNL     1       1.333  -1.050  -3.526  0.00  0.00    +0.046 C 
ATOM     19  C   UNL     1       3.672  -0.703  -4.499  0.00  0.00    +0.044 C 
ENDBRANCH   8  10
BRANCH   6  20
ATOM     20  C   UNL     1       0.733   4.658  -0.772  0.00  0.00    +0.067 A 
ATOM     21  C   UNL     1      -0.560   4.212  -1.053  0.00  0.00    +0.029 A 
ATOM     22  C   UNL     1      -1.099   3.167  -0.332  0.00  0.00    +0.022 A 
ATOM     23  C   UNL     1      -0.364   2.568   0.678  0.00  0.00    +0.041 A 
ATOM     24  C   UNL     1       0.916   3.009   0.965  0.00  0.00    +0.022 A 
ATOM     25  C   UNL     1       1.468   4.049   0.247  0.00  0.00    +0.029 A 
ATOM     26 CL   UNL     1      -1.052   1.258   1.586  0.00  0.00    -0.084 Cl
ENDBRANCH   6  20
TORSDOF 2
