REMARK  Name = ZINC35747740
REMARK  11 active torsions:
REMARK  status: ('A' for Active; 'I' for Inactive)
REMARK    1  A    between atoms: C_1  and  C_2
REMARK    2  A    between atoms: C_15  and  C_17
REMARK    3  A    between atoms: C_17  and  N_18
REMARK    4  A    between atoms: N_18  and  C_19
REMARK    5  A    between atoms: N_18  and  C_25
REMARK    6  A    between atoms: C_19  and  C_20
REMARK    7  A    between atoms: C_25  and  C_26
REMARK    8  A    between atoms: C_26  and  C_28
REMARK    9  A    between atoms: C_26  and  O_32
REMARK   10  A    between atoms: C_28  and  C_29
REMARK   11  A    between atoms: C_29  and  C_30
REMARK                            x       y       z     vdW  Elec       q    Type
REMARK                         _______ _______ _______ _____ _____    ______ ____
ROOT
ATOM      1  C   UNL     1       0.258  -7.861   2.309  0.00  0.00    -0.003 C 
ENDROOT
BRANCH   1  15
ATOM      2  C   UNL     1       2.145   1.747   0.499  0.00  0.00    +0.008 C 
ATOM      3  C   UNL     1       1.931   0.233   0.426  0.00  0.00    -0.009 C 
ATOM      4  C   UNL     1       0.433  -0.069   0.313  0.00  0.00    +0.008 C 
ATOM      5  C   UNL     1       0.226  -1.549  -0.009  0.00  0.00    +0.037 C 
ATOM      6  C   UNL     1       0.987  -2.389   1.014  0.00  0.00    -0.023 A 
ATOM      7  C   UNL     1       1.979  -1.839   1.752  0.00  0.00    -0.004 A 
ATOM      8  S   UNL     1       2.571  -3.155   2.787  0.00  0.00    -0.073 S 
ATOM      9  C   UNL     1       1.490  -4.433   2.229  0.00  0.00    +0.116 A 
ATOM     10  C   UNL     1       0.700  -3.792   1.251  0.00  0.00    +0.075 A 
ATOM     11  C   UNL     1      -0.300  -4.588   0.596  0.00  0.00    +0.260 A 
ATOM     12  O   UNL     1      -1.034  -4.130  -0.263  0.00  0.00    -0.267 OA
ATOM     13  N   UNL     1      -0.375  -5.880   0.994  0.00  0.00    -0.312 N 
ATOM     14  H   UNL     1      -1.037  -6.454   0.577  0.00  0.00    +0.170 HD
ATOM     15  C   UNL     1       0.431  -6.409   1.946  0.00  0.00    +0.094 A 
ATOM     16  N   UNL     1       1.357  -5.712   2.567  0.00  0.00    -0.229 NA
ATOM     17  C   UNL     1       2.474  -0.426   1.702  0.00  0.00    +0.046 C 
ENDBRANCH   1  15
BRANCH   1  18
ATOM     18  N   UNL     1       1.225  -8.223   3.353  0.00  0.00    +0.391 N 
ATOM     19  H   UNL     1       2.155  -7.968   3.054  0.00  0.00    -0.080 HD
BRANCH  18  20
ATOM     20  C   UNL     1       0.898  -7.507   4.594  0.00  0.00    -0.002 C 
BRANCH  20  21
ATOM     21  C   UNL     1       1.945  -7.804   5.636  0.00  0.00    +0.089 A 
ATOM     22  C   UNL     1       3.119  -7.164   5.776  0.00  0.00    +0.042 A 
ATOM     23  C   UNL     1       3.784  -7.762   6.871  0.00  0.00    +0.041 A 
ATOM     24  C   UNL     1       2.976  -8.732   7.335  0.00  0.00    +0.195 A 
ATOM     25  O   UNL     1       1.861  -8.749   6.587  0.00  0.00    -0.470 OA
ENDBRANCH  20  21
ENDBRANCH  18  20
BRANCH  18  26
ATOM     26  C   UNL     1       1.167  -9.671   3.594  0.00  0.00    -0.046 C 
BRANCH  26  27
ATOM     27  C   UNL     1       1.704 -10.413   2.368  0.00  0.00    +0.098 C 
BRANCH  27  28
ATOM     28  O   UNL     1       0.771 -10.293   1.292  0.00  0.00    -0.394 OA
ATOM     29  H   UNL     1      -0.103 -10.659   1.487  0.00  0.00    +0.210 HD
ENDBRANCH  27  28
BRANCH  27  30
ATOM     30  C   UNL     1       1.899 -11.891   2.712  0.00  0.00    +0.033 C 
BRANCH  30  31
ATOM     31  C   UNL     1       2.551 -12.608   1.528  0.00  0.00    +0.029 C 
BRANCH  31  32
ATOM     32  C   UNL     1       2.744 -14.064   1.867  0.00  0.00    -0.034 C 
ATOM     33  C   UNL     1       2.252 -14.990   1.081  0.00  0.00    +0.004 C 
ENDBRANCH  31  32
ENDBRANCH  30  31
ENDBRANCH  27  30
ENDBRANCH  26  27
ENDBRANCH  18  26
ENDBRANCH   1  18
TORSDOF 10
