REMARK  Name = ZINC20235494
REMARK  10 active torsions:
REMARK  status: ('A' for Active; 'I' for Inactive)
REMARK    1  A    between atoms: C_1  and  C_2
REMARK    2  A    between atoms: C_5  and  S_8
REMARK    3  A    between atoms: S_8  and  N_11
REMARK    4  A    between atoms: N_11  and  C_12
REMARK    5  A    between atoms: N_11  and  C_25
REMARK    6  A    between atoms: C_12  and  C_13
REMARK    7  A    between atoms: N_15  and  C_16
REMARK    8  A    between atoms: C_16  and  C_17
REMARK    9  A    between atoms: C_17  and  S_18
REMARK   10  A    between atoms: S_18  and  C_19
REMARK                            x       y       z     vdW  Elec       q    Type
REMARK                         _______ _______ _______ _____ _____    ______ ____
ROOT
ATOM      1  N   UNL     1      -0.343   1.624  -0.033  0.00  0.00    -0.194 N 
ENDROOT
BRANCH   1   2
ATOM      2  C   UNL     1       0.790   2.417  -0.228  0.00  0.00    +0.053 A 
ATOM      3  C   UNL     1       0.660   3.710  -0.717  0.00  0.00    +0.025 A 
ATOM      4  C   UNL     1       1.782   4.492  -0.909  0.00  0.00    +0.003 A 
ATOM      5  C   UNL     1       3.036   3.988  -0.614  0.00  0.00    +0.015 A 
ATOM      6  C   UNL     1       3.170   2.700  -0.127  0.00  0.00    +0.020 A 
ATOM      7  C   UNL     1       2.050   1.915   0.072  0.00  0.00    +0.040 A 
ATOM      8 BR   UNL     1       4.887   2.016   0.275  0.00  0.00    -0.050 Br
ENDBRANCH   1   2
BRANCH   1   9
ATOM      9  S   UNL     1      -0.488   0.177  -0.825  0.00  0.00    +0.075 S 
ATOM     10  O   UNL     1      -1.879  -0.105  -0.903  0.00  0.00    -0.150 OA
ATOM     11  O   UNL     1       0.339   0.260  -1.977  0.00  0.00    -0.150 OA
BRANCH   9  16
ATOM     12  C   UNL     1       1.930  -4.054   2.733  0.00  0.00    +0.044 C 
ATOM     13  C   UNL     1       1.326  -2.997   1.844  0.00  0.00    -0.050 A 
ATOM     14  C   UNL     1       0.019  -2.593   2.042  0.00  0.00    +0.005 A 
ATOM     15  C   UNL     1      -0.535  -1.624   1.226  0.00  0.00    +0.029 A 
ATOM     16  C   UNL     1       0.218  -1.058   0.214  0.00  0.00    +0.109 A 
ATOM     17  C   UNL     1       1.524  -1.466   0.014  0.00  0.00    +0.029 A 
ATOM     18  C   UNL     1       2.079  -2.432   0.832  0.00  0.00    +0.005 A 
ENDBRANCH   9  16
ENDBRANCH   1   9
BRANCH   1  19
ATOM     19  C   UNL     1      -1.407   2.076   0.868  0.00  0.00    +0.227 C 
BRANCH  19  20
ATOM     20  C   UNL     1      -1.070   1.679   2.282  0.00  0.00    +0.232 C 
ATOM     21  O   UNL     1      -0.043   1.077   2.515  0.00  0.00    -0.274 OA
ATOM     22  N   UNL     1      -1.911   1.992   3.288  0.00  0.00    -0.313 N 
ATOM     23  H   UNL     1      -2.842   2.538   3.077  0.00  0.00    +0.149 HD
BRANCH  22  24
ATOM     24  C   UNL     1      -1.583   1.606   4.663  0.00  0.00    +0.115 C 
BRANCH  24  25
ATOM     25  C   UNL     1      -2.694   2.078   5.603  0.00  0.00    +0.093 C 
BRANCH  25  26
ATOM     26  S   UNL     1      -2.289   1.600   7.306  0.00  0.00    -0.124 S 
BRANCH  26  27
ATOM     27  C   UNL     1      -3.645   2.206   8.253  0.00  0.00    +0.008 A 
ATOM     28  C   UNL     1      -4.686   2.881   7.626  0.00  0.00    +0.015 A 
ATOM     29  C   UNL     1      -5.750   3.350   8.371  0.00  0.00    +0.001 A 
ATOM     30  C   UNL     1      -5.775   3.159   9.741  0.00  0.00    +0.000 A 
ATOM     31  C   UNL     1      -4.738   2.493  10.368  0.00  0.00    +0.001 A 
ATOM     32  C   UNL     1      -3.674   2.016   9.629  0.00  0.00    +0.015 A 
ENDBRANCH  26  27
ENDBRANCH  25  26
ENDBRANCH  24  25
ENDBRANCH  22  24
ENDBRANCH  19  20
ENDBRANCH   1  19
TORSDOF 9
