REMARK  Name = ZINC00331860
REMARK  6 active torsions:
REMARK  status: ('A' for Active; 'I' for Inactive)
REMARK    1  A    between atoms: C_1  and  C_2
REMARK    2  A    between atoms: C_2  and  C_26
REMARK    3  A    between atoms: C_9  and  N_25
REMARK    4  A    between atoms: C_10  and  C_23
REMARK    5  A    between atoms: C_11  and  C_14
REMARK    6  A    between atoms: C_18  and  N_20
REMARK                            x       y       z     vdW  Elec       q    Type
REMARK                         _______ _______ _______ _____ _____    ______ ____
ROOT
ATOM      1  C   UNL     1      -5.195   0.051  -1.835  0.00  0.00    +0.012 C 
ATOM      2  C   UNL     1      -5.043  -0.371  -0.372  0.00  0.00    -0.021 C 
ATOM      3  C   UNL     1      -4.967   0.872   0.485  0.00  0.00    +0.081 C 
ATOM      4  C   UNL     1      -3.639   1.560   0.432  0.00  0.00    +0.112 C 
ATOM      5  C   UNL     1      -2.499   0.909   0.019  0.00  0.00    +0.076 C 
ATOM      6  C   UNL     1      -2.557  -0.480  -0.419  0.00  0.00    +0.169 C 
ATOM      7  O   UNL     1      -1.582  -1.000  -0.922  0.00  0.00    -0.292 OA
ATOM      8  C   UNL     1      -3.825  -1.267  -0.249  0.00  0.00    +0.086 C 
ATOM      9  C   UNL     1      -1.215   1.639   0.017  0.00  0.00    +0.056 C 
ATOM     10  C   UNL     1      -1.261   3.011   0.030  0.00  0.00    +0.095 C 
ATOM     11  C   UNL     1      -2.612   3.684   0.050  0.00  0.00    +0.245 C 
ATOM     12  O   UNL     1      -3.548   2.857   0.792  0.00  0.00    -0.482 OA
ATOM     13  C   UNL     1      -6.283  -1.171   0.034  0.00  0.00    +0.012 C 
ENDROOT
BRANCH  11  14
ATOM     14  C   UNL     1      -2.492   5.030   0.717  0.00  0.00    -0.000 A 
ATOM     15  C   UNL     1      -2.465   5.118   2.096  0.00  0.00    +0.008 A 
ATOM     16  C   UNL     1      -2.351   6.352   2.708  0.00  0.00    +0.003 A 
ATOM     17  C   UNL     1      -2.272   7.499   1.940  0.00  0.00    +0.033 A 
ATOM     18  C   UNL     1      -2.304   7.412   0.561  0.00  0.00    +0.127 A 
ATOM     19  C   UNL     1      -2.414   6.177  -0.051  0.00  0.00    +0.040 A 
BRANCH  18  20
ATOM     20  N   UNL     1      -2.220   8.640  -0.261  0.00  0.00    +0.056 N 
ATOM     21  O   UNL     1      -2.248   8.562  -1.476  0.00  0.00    -0.126 OA
ATOM     22  O   UNL     1      -2.123   9.728   0.278  0.00  0.00    -0.126 OA
ENDBRANCH  18  20
ENDBRANCH  11  14
BRANCH   9  23
ATOM     23  N   UNL     1      -0.011   0.966   0.007  0.00  0.00    -0.356 N 
ATOM     24  H   UNL     1       0.934   1.529   0.006  0.00  0.00    +0.142 HD
ATOM     25  H   UNL     1       0.004  -0.134   0.001  0.00  0.00    +0.142 HD
ENDBRANCH   9  23
BRANCH  10  26
ATOM     26  C   UNL     1      -0.056   3.785   0.021  0.00  0.00    +0.101 C 
ATOM     27  N   UNL     1       0.899   4.399   0.015  0.00  0.00    -0.191 NA
ENDBRANCH  10  26
TORSDOF 4
