REMARK  Name = ZINC20475264
REMARK  4 active torsions:
REMARK  status: ('A' for Active; 'I' for Inactive)
REMARK    1  A    between atoms: N_9  and  C_12
REMARK    2  A    between atoms: C_12  and  C_14
REMARK    3  A    between atoms: C_12  and  C_16
REMARK    4  A    between atoms: C_14  and  N_15
REMARK                            x       y       z     vdW  Elec       q    Type
REMARK                         _______ _______ _______ _____ _____    ______ ____
ROOT
ATOM      1  C   UNL     1      -2.594   1.202   0.021  0.00  0.00    +0.076 C 
ENDROOT
BRANCH   1  10
ATOM      2  C   UNL     1      -6.787   4.449   5.537  0.00  0.00    +0.120 A 
ATOM      3  C   UNL     1      -6.951   5.759   5.234  0.00  0.00    +0.068 A 
ATOM      4  S   UNL     1      -5.844   5.919   3.840  0.00  0.00    -0.061 S 
ATOM      5  C   UNL     1      -5.290   4.274   3.801  0.00  0.00    +0.161 A 
ATOM      6  N   UNL     1      -5.957   3.732   4.802  0.00  0.00    -0.233 NA
ATOM      7  N   UNL     1      -4.383   3.680   2.936  0.00  0.00    -0.307 N 
ATOM      8  C   UNL     1      -4.200   2.258   3.259  0.00  0.00    +0.122 C 
ATOM      9  C   UNL     1      -3.136   1.661   2.336  0.00  0.00    +0.104 C 
ATOM     10  N   UNL     1      -3.555   1.830   0.937  0.00  0.00    -0.294 NA
ATOM     11  C   UNL     1      -3.737   3.252   0.614  0.00  0.00    +0.104 C 
ATOM     12  C   UNL     1      -4.801   3.850   1.538  0.00  0.00    +0.122 C 
ENDBRANCH   1  10
BRANCH   1  13
ATOM     13  C   UNL     1      -2.778  -0.294   0.049  0.00  0.00    +0.006 A 
ATOM     14  C   UNL     1      -2.836  -1.167  -0.987  0.00  0.00    +0.028 A 
ATOM     15  C   UNL     1      -3.006  -2.513  -0.720  0.00  0.00    +0.025 A 
ATOM     16  C   UNL     1      -3.116  -2.919   0.569  0.00  0.00    +0.060 A 
ATOM     17  S   UNL     1      -2.978  -1.375   1.455  0.00  0.00    -0.099 S 
ATOM     18 BR   UNL     1      -3.085  -3.768  -2.132  0.00  0.00    -0.050 Br
ENDBRANCH   1  13
BRANCH   1  19
ATOM     19  C   UNL     1      -1.170   1.549   0.458  0.00  0.00    -0.062 C 
BRANCH  19  20
ATOM     20  N   UNL     1      -1.002   3.008   0.464  0.00  0.00    +0.379 N 
ATOM     21  H   UNL     1       0.023   3.258   0.778  0.00  0.00    -0.090 HD
ATOM     22  H   UNL     1      -1.720   3.457   1.166  0.00  0.00    -0.090 HD
ATOM     23  H   UNL     1      -1.181   3.402  -0.547  0.00  0.00    -0.090 HD
ENDBRANCH  19  20
ENDBRANCH   1  19
TORSDOF 4
