REMARK  Name = ZINC33821877
REMARK  10 active torsions:
REMARK  status: ('A' for Active; 'I' for Inactive)
REMARK    1  A    between atoms: C_1  and  C_2
REMARK    2  A    between atoms: C_5  and  C_8
REMARK    3  A    between atoms: C_8  and  C_10
REMARK    4  A    between atoms: C_12  and  C_31
REMARK    5  A    between atoms: C_14  and  C_26
REMARK    6  A    between atoms: C_14  and  C_28
REMARK    7  A    between atoms: C_34  and  O_39
REMARK    8  A    between atoms: C_35  and  O_37
REMARK    9  A    between atoms: O_37  and  C_38
REMARK   10  A    between atoms: O_39  and  C_40
REMARK                            x       y       z     vdW  Elec       q    Type
REMARK                         _______ _______ _______ _____ _____    ______ ____
ROOT
ATOM      1  C   UNL     1      -1.876   1.716   1.165  0.00  0.00    +0.155 C 
ATOM      2  C   UNL     1      -1.184   2.232  -0.121  0.00  0.00    +0.078 C 
ATOM      3  C   UNL     1      -2.128   1.815  -1.283  0.00  0.00    +0.163 C 
ATOM      4  C   UNL     1      -3.472   1.640  -0.557  0.00  0.00    +0.127 C 
ATOM      5  N   UNL     1      -3.058   0.985   0.712  0.00  0.00    -0.310 N 
ATOM      6  C   UNL     1      -4.139   0.854   1.548  0.00  0.00    +0.038 A 
ATOM      7  C   UNL     1      -4.097   1.118   2.903  0.00  0.00    +0.024 A 
ATOM      8  C   UNL     1      -5.237   0.966   3.671  0.00  0.00    +0.002 A 
ATOM      9  C   UNL     1      -6.424   0.550   3.093  0.00  0.00    +0.001 A 
ATOM     10  C   UNL     1      -6.485   0.278   1.740  0.00  0.00    +0.010 A 
ATOM     11  C   UNL     1      -5.347   0.423   0.957  0.00  0.00    -0.004 A 
ATOM     12  C   UNL     1      -5.359   0.128  -0.495  0.00  0.00    +0.007 C 
ATOM     13  C   UNL     1      -4.431   0.728  -1.262  0.00  0.00    -0.002 C 
ENDROOT
BRANCH   2  14
ATOM     14  C   UNL     1       0.167   1.584  -0.285  0.00  0.00    -0.036 A 
ATOM     15  C   UNL     1       0.272   0.206  -0.308  0.00  0.00    +0.008 A 
ATOM     16  C   UNL     1       1.508  -0.393  -0.464  0.00  0.00    +0.049 A 
ATOM     17  C   UNL     1       2.645   0.388  -0.598  0.00  0.00    +0.161 A 
ATOM     18  C   UNL     1       2.539   1.775  -0.574  0.00  0.00    +0.162 A 
ATOM     19  C   UNL     1       1.297   2.369  -0.417  0.00  0.00    +0.053 A 
BRANCH  18  20
ATOM     20  O   UNL     1       3.652   2.546  -0.704  0.00  0.00    -0.491 OA
ATOM     21  C   UNL     1       3.467   3.963  -0.671  0.00  0.00    +0.277 C 
ENDBRANCH  18  20
BRANCH  17  22
ATOM     22  O   UNL     1       3.862  -0.200  -0.751  0.00  0.00    -0.491 OA
ATOM     23  C   UNL     1       3.895  -1.629  -0.765  0.00  0.00    +0.277 C 
ENDBRANCH  17  22
ENDBRANCH   2  14
BRANCH   3  24
ATOM     24  C   UNL     1      -1.678   0.517  -1.903  0.00  0.00    +0.233 C 
ATOM     25  O   UNL     1      -2.277  -0.509  -1.663  0.00  0.00    -0.274 OA
ATOM     26  N   UNL     1      -0.609   0.497  -2.724  0.00  0.00    -0.328 N 
ATOM     27  H   UNL     1      -0.281  -0.450  -3.176  0.00  0.00    +0.145 HD
ATOM     28  H   UNL     1      -0.065   1.429  -2.942  0.00  0.00    +0.145 HD
ENDBRANCH   3  24
BRANCH   1  29
ATOM     29  C   UNL     1      -0.952   0.794   1.919  0.00  0.00    +0.184 C 
ATOM     30  O   UNL     1      -1.083  -0.407   1.824  0.00  0.00    -0.290 OA
BRANCH  29  35
ATOM     31  C   UNL     1       3.195   2.978   5.247  0.00  0.00    +0.044 C 
ATOM     32  C   UNL     1       2.108   2.405   4.375  0.00  0.00    -0.050 A 
ATOM     33  C   UNL     1       1.962   1.033   4.269  0.00  0.00    +0.004 A 
ATOM     34  C   UNL     1       0.969   0.502   3.472  0.00  0.00    +0.012 A 
ATOM     35  C   UNL     1       0.110   1.353   2.771  0.00  0.00    +0.019 A 
ATOM     36  C   UNL     1       0.268   2.739   2.879  0.00  0.00    +0.012 A 
ATOM     37  C   UNL     1       1.261   3.255   3.684  0.00  0.00    +0.004 A 
ENDBRANCH  29  35
ENDBRANCH   1  29
BRANCH   3  38
ATOM     38  C   UNL     1      -2.213   2.878  -2.298  0.00  0.00    +0.082 C 
ATOM     39  N   UNL     1      -2.279   3.699  -3.081  0.00  0.00    -0.195 NA
ENDBRANCH   3  38
TORSDOF 7
