REMARK  Name = ZINC09261512
REMARK  5 active torsions:
REMARK  status: ('A' for Active; 'I' for Inactive)
REMARK    1  A    between atoms: C_1  and  C_2
REMARK    2  A    between atoms: C_6  and  N_8
REMARK    3  A    between atoms: C_14  and  C_15
REMARK    4  A    between atoms: C_18  and  S_20
REMARK    5  A    between atoms: S_20  and  C_21
REMARK                            x       y       z     vdW  Elec       q    Type
REMARK                         _______ _______ _______ _____ _____    ______ ____
ROOT
ATOM      1  N   UNL     1      -0.137  -2.679   2.417  0.00  0.00    -0.226 NA
ATOM      2  C   UNL     1      -0.856  -3.774   2.541  0.00  0.00    +0.166 C 
ATOM      3  N   UNL     1      -0.800  -4.740   3.525  0.00  0.00    -0.260 N 
ATOM      4  C   UNL     1      -1.613  -5.781   3.478  0.00  0.00    +0.257 C 
ATOM      5  O   UNL     1      -1.574  -6.641   4.340  0.00  0.00    -0.269 OA
ATOM      6  C   UNL     1      -2.533  -5.875   2.399  0.00  0.00    +0.081 C 
ATOM      7  C   UNL     1      -3.469  -6.850   2.133  0.00  0.00    +0.066 C 
ATOM      8  S   UNL     1      -2.158  -4.387   1.483  0.00  0.00    -0.049 S 
ATOM      9  H   UNL     1      -0.164  -4.654   4.252  0.00  0.00    +0.157 HD
ENDROOT
BRANCH   1  15
ATOM     10  C   UNL     1      -0.716   1.875   0.717  0.00  0.00    +0.044 C 
ATOM     11  C   UNL     1      -0.639   0.387   0.497  0.00  0.00    -0.048 A 
ATOM     12  C   UNL     1      -0.785  -0.131  -0.778  0.00  0.00    +0.003 A 
ATOM     13  C   UNL     1      -0.715  -1.497  -0.990  0.00  0.00    +0.002 A 
ATOM     14  C   UNL     1      -0.500  -2.352   0.071  0.00  0.00    +0.028 A 
ATOM     15  C   UNL     1      -0.351  -1.837   1.360  0.00  0.00    +0.067 A 
ATOM     16  C   UNL     1      -0.417  -0.456   1.565  0.00  0.00    +0.031 A 
ENDBRANCH   1  15
BRANCH   7  17
ATOM     17  C   UNL     1      -3.707  -7.872   3.071  0.00  0.00    +0.131 A 
ATOM     18  C   UNL     1      -4.548  -8.958   2.897  0.00  0.00    +0.050 A 
ATOM     19  C   UNL     1      -4.480  -9.710   4.072  0.00  0.00    +0.057 A 
ATOM     20  C   UNL     1      -3.615  -9.070   4.912  0.00  0.00    +0.167 A 
ATOM     21  O   UNL     1      -3.151  -7.969   4.300  0.00  0.00    -0.449 OA
BRANCH  20  22
ATOM     22  S   UNL     1      -3.174  -9.605   6.532  0.00  0.00    -0.052 S 
BRANCH  22  23
ATOM     23  C   UNL     1      -1.688 -10.520   6.289  0.00  0.00    +0.016 A 
ATOM     24  C   UNL     1      -1.206 -10.737   5.004  0.00  0.00    +0.016 A 
ATOM     25  C   UNL     1      -0.041 -11.454   4.817  0.00  0.00    +0.021 A 
ATOM     26  C   UNL     1       0.647 -11.956   5.908  0.00  0.00    +0.041 A 
ATOM     27  C   UNL     1       0.170 -11.742   7.189  0.00  0.00    +0.021 A 
ATOM     28  C   UNL     1      -0.992 -11.020   7.383  0.00  0.00    +0.016 A 
ATOM     29 CL   UNL     1       2.111 -12.857   5.668  0.00  0.00    -0.084 Cl
ENDBRANCH  22  23
ENDBRANCH  20  22
ENDBRANCH   7  17
TORSDOF 4
