REMARK  Name = ZINC63513884
REMARK  11 active torsions:
REMARK  status: ('A' for Active; 'I' for Inactive)
REMARK    1  A    between atoms: C_1  and  C_2
REMARK    2  A    between atoms: C_4  and  C_12
REMARK    3  A    between atoms: C_12  and  C_13
REMARK    4  A    between atoms: C_13  and  N_14
REMARK    5  A    between atoms: C_15  and  C_17
REMARK    6  A    between atoms: C_17  and  N_28
REMARK    7  A    between atoms: C_18  and  C_19
REMARK    8  A    between atoms: C_23  and  N_25
REMARK    9  A    between atoms: C_29  and  C_31
REMARK   10  A    between atoms: C_34  and  O_37
REMARK   11  A    between atoms: O_37  and  C_38
REMARK                            x       y       z     vdW  Elec       q    Type
REMARK                         _______ _______ _______ _____ _____    ______ ____
ROOT
ATOM      1  C   UNL     1       1.149  -1.210  -7.333  0.00  0.00    +0.097 C 
ATOM      2  C   UNL     1       0.380  -0.155  -7.685  0.00  0.00    +0.036 C 
ENDROOT
BRANCH   2   3
ATOM      3  C   UNL     1       0.154   0.150  -9.106  0.00  0.00    -0.021 A 
ATOM      4  C   UNL     1       0.391  -0.825 -10.081  0.00  0.00    +0.008 A 
ATOM      5  C   UNL     1       0.178  -0.530 -11.411  0.00  0.00    +0.003 A 
ATOM      6  C   UNL     1      -0.269   0.726 -11.783  0.00  0.00    +0.033 A 
ATOM      7  C   UNL     1      -0.505   1.696 -10.824  0.00  0.00    +0.127 A 
ATOM      8  C   UNL     1      -0.303   1.415  -9.489  0.00  0.00    +0.040 A 
BRANCH   7   9
ATOM      9  N   UNL     1      -0.981   3.037 -11.233  0.00  0.00    +0.056 N 
ATOM     10  O   UNL     1      -1.164   3.283 -12.402  0.00  0.00    -0.126 OA
ATOM     11  O   UNL     1      -1.188   3.885 -10.397  0.00  0.00    -0.126 OA
ENDBRANCH   7   9
ENDBRANCH   2   3
BRANCH   1  13
ATOM     12  N   UNL     1       0.575  -0.924  -4.978  0.00  0.00    -0.310 N 
ATOM     13  C   UNL     1       1.250  -1.609  -5.922  0.00  0.00    +0.258 C 
ATOM     14  O   UNL     1       1.942  -2.559  -5.606  0.00  0.00    -0.269 OA
ATOM     15  H   UNL     1       0.023  -0.167  -5.230  0.00  0.00    +0.149 HD
BRANCH  12  16
ATOM     16  C   UNL     1       0.675  -1.321  -3.571  0.00  0.00    +0.109 C 
BRANCH  16  17
ATOM     17  C   UNL     1      -0.180  -0.386  -2.715  0.00  0.00    +0.052 C 
BRANCH  17  20
ATOM     18  C   UNL     1      -0.314   1.316   0.041  0.00  0.00    +0.035 C 
ATOM     19  C   UNL     1      -0.761  -0.142  -0.087  0.00  0.00    +0.103 C 
ATOM     20  C   UNL     1      -0.077  -0.795  -1.268  0.00  0.00    -0.037 C 
ATOM     21  C   UNL     1       0.646  -1.820  -0.762  0.00  0.00    -0.001 A 
ATOM     22  C   UNL     1       1.519  -2.823  -1.384  0.00  0.00    +0.010 A 
ATOM     23  C   UNL     1       2.120  -3.746  -0.599  0.00  0.00    +0.001 A 
ATOM     24  C   UNL     1       1.931  -3.768   0.789  0.00  0.00    +0.002 A 
ATOM     25  C   UNL     1       1.144  -2.880   1.433  0.00  0.00    +0.026 A 
ATOM     26  C   UNL     1       0.463  -1.865   0.706  0.00  0.00    +0.043 A 
ATOM     27  N   UNL     1      -0.344  -0.905   1.094  0.00  0.00    -0.378 N 
ATOM     28  H   UNL     1      -0.618  -0.729   2.007  0.00  0.00    +0.160 HD
ENDBRANCH  17  20
ENDBRANCH  16  17
ENDBRANCH  12  16
ENDBRANCH   1  13
BRANCH   1  29
ATOM     29  N   UNL     1       1.849  -1.922  -8.312  0.00  0.00    -0.277 N 
ATOM     30  C   UNL     1       1.649  -3.247  -8.454  0.00  0.00    +0.248 C 
ATOM     31  O   UNL     1       0.945  -3.844  -7.662  0.00  0.00    -0.270 OA
ATOM     32  H   UNL     1       2.478  -1.462  -8.889  0.00  0.00    +0.155 HD
BRANCH  30  33
ATOM     33  C   UNL     1       2.285  -3.974  -9.570  0.00  0.00    +0.037 A 
ATOM     34  C   UNL     1       3.186  -3.316 -10.411  0.00  0.00    +0.016 A 
ATOM     35  C   UNL     1       3.778  -3.998 -11.451  0.00  0.00    +0.046 A 
ATOM     36  C   UNL     1       3.479  -5.338 -11.665  0.00  0.00    +0.120 A 
ATOM     37  C   UNL     1       2.582  -5.996 -10.831  0.00  0.00    +0.046 A 
ATOM     38  C   UNL     1       1.991  -5.323  -9.786  0.00  0.00    +0.016 A 
BRANCH  36  39
ATOM     39  O   UNL     1       4.064  -6.007 -12.691  0.00  0.00    -0.495 OA
ATOM     40  C   UNL     1       3.712  -7.382 -12.854  0.00  0.00    +0.277 C 
ENDBRANCH  36  39
ENDBRANCH  30  33
ENDBRANCH   1  29
TORSDOF 9
