REMARK  Name = ZINC60345150
REMARK  7 active torsions:
REMARK  status: ('A' for Active; 'I' for Inactive)
REMARK    1  A    between atoms: C_1  and  C_2
REMARK    2  A    between atoms: C_2  and  C_3
REMARK    3  A    between atoms: C_2  and  C_4
REMARK    4  A    between atoms: C_2  and  C_5
REMARK    5  A    between atoms: C_12  and  C_14
REMARK    6  A    between atoms: C_23  and  O_25
REMARK    7  A    between atoms: O_25  and  C_26
REMARK                            x       y       z     vdW  Elec       q    Type
REMARK                         _______ _______ _______ _____ _____    ______ ____
ROOT
ATOM      1  C   UNL     1       0.652  -0.785  -1.358  0.00  0.00    -0.001 C 
ATOM      2  C   UNL     1       0.011   0.105  -2.427  0.00  0.00    +0.009 C 
ATOM      3  C   UNL     1       0.539  -0.320  -3.804  0.00  0.00    +0.043 C 
ATOM      4  C   UNL     1       2.033  -0.435  -3.725  0.00  0.00    -0.006 A 
ATOM      5  C   UNL     1       2.788  -0.489  -2.590  0.00  0.00    -0.036 A 
ATOM      6  C   UNL     1       4.161  -0.594  -2.760  0.00  0.00    +0.024 A 
ATOM      7  C   UNL     1       4.628  -0.633  -4.061  0.00  0.00    +0.075 A 
ATOM      8  S   UNL     1       3.113  -0.521  -4.995  0.00  0.00    -0.088 S 
ATOM      9  C   UNL     1       2.133  -0.436  -1.213  0.00  0.00    +0.040 C 
ENDROOT
BRANCH   7  10
ATOM     10  C   UNL     1       6.007  -0.739  -4.545  0.00  0.00    +0.253 C 
ATOM     11  O   UNL     1       6.933  -0.427  -3.819  0.00  0.00    -0.269 OA
ATOM     12  N   UNL     1       6.251  -1.181  -5.795  0.00  0.00    -0.296 N 
ATOM     13  C   UNL     1       5.101  -1.450  -6.658  0.00  0.00    +0.109 C 
ATOM     14  C   UNL     1       4.887  -0.240  -7.545  0.00  0.00    +0.038 C 
ATOM     15  C   UNL     1       5.751  -0.344  -8.805  0.00  0.00    +0.112 C 
ATOM     16  N   UNL     1       7.102  -0.853  -8.522  0.00  0.00    -0.266 N 
ATOM     17  C   UNL     1       7.897  -0.417  -7.388  0.00  0.00    +0.130 C 
ATOM     18  C   UNL     1       7.607  -1.349  -6.185  0.00  0.00    +0.127 C 
ATOM     19  C   UNL     1       7.628  -1.771  -9.358  0.00  0.00    +0.403 C 
ATOM     20  O   UNL     1       6.988  -2.157 -10.316  0.00  0.00    -0.226 OA
BRANCH  19  21
ATOM     21  O   UNL     1       8.862  -2.259  -9.131  0.00  0.00    -0.454 OA
ATOM     22  C   UNL     1       9.356  -3.229 -10.057  0.00  0.00    +0.282 C 
ENDBRANCH  19  21
ENDBRANCH   7  10
BRANCH   1  24
ATOM     23  C   UNL     1       0.081   0.904   0.392  0.00  0.00    +0.011 C 
ATOM     24  C   UNL     1      -0.057  -0.563  -0.020  0.00  0.00    -0.035 C 
ATOM     25  C   UNL     1       0.580  -1.454   1.049  0.00  0.00    +0.011 C 
ATOM     26  C   UNL     1      -1.538  -0.915  -0.162  0.00  0.00    +0.011 C 
ENDBRANCH   1  24
TORSDOF 3
