REMARK  Name = ZINC32906656
REMARK  9 active torsions:
REMARK  status: ('A' for Active; 'I' for Inactive)
REMARK    1  A    between atoms: C_1  and  N_2
REMARK    2  A    between atoms: N_2  and  C_3
REMARK    3  A    between atoms: N_2  and  C_24
REMARK    4  A    between atoms: C_3  and  C_4
REMARK    5  A    between atoms: C_9  and  N_10
REMARK    6  A    between atoms: N_10  and  C_11
REMARK    7  A    between atoms: C_11  and  C_12
REMARK    8  A    between atoms: N_14  and  C_15
REMARK    9  A    between atoms: C_15  and  C_22
REMARK                            x       y       z     vdW  Elec       q    Type
REMARK                         _______ _______ _______ _____ _____    ______ ____
ROOT
ATOM      1  C   UNL     1      -5.988   2.193   0.042  0.00  0.00    -0.043 A 
ATOM      2  C   UNL     1      -7.282   1.711   0.045  0.00  0.00    +0.003 A 
ATOM      3  C   UNL     1      -7.515   0.348   0.039  0.00  0.00    +0.000 A 
ATOM      4  C   UNL     1      -6.453  -0.537   0.029  0.00  0.00    +0.002 A 
ATOM      5  C   UNL     1      -5.156  -0.063   0.020  0.00  0.00    +0.023 A 
ATOM      6  C   UNL     1      -4.919   1.306   0.033  0.00  0.00    +0.029 A 
ENDROOT
BRANCH   6   7
ATOM      7  N   UNL     1      -3.608   1.789   0.029  0.00  0.00    -0.335 N 
ATOM      8  H   UNL     1      -3.422   2.873   0.034  0.00  0.00    +0.147 HD
BRANCH   7   9
ATOM      9  C   UNL     1      -2.482   0.853   0.018  0.00  0.00    +0.197 C 
BRANCH   9  10
ATOM     10  C   UNL     1      -1.187   1.624   0.017  0.00  0.00    +0.231 C 
ATOM     11  O   UNL     1      -1.204   2.837   0.023  0.00  0.00    -0.274 OA
ATOM     12  N   UNL     1      -0.011   0.966   0.007  0.00  0.00    -0.296 N 
ATOM     13  H   UNL     1       0.004  -0.134   0.006  0.00  0.00    +0.150 HD
BRANCH  12  14
ATOM     14  C   UNL     1       1.248   1.716  -0.001  0.00  0.00    +0.121 C 
ATOM     15  C   UNL     1       1.260   2.658  -1.221  0.00  0.00    +0.041 C 
ATOM     16  C   UNL     1       2.257   3.756  -0.968  0.00  0.00    +0.003 C 
ATOM     17  C   UNL     1       3.644   3.440  -1.558  0.00  0.00    +0.000 C 
ATOM     18  C   UNL     1       4.068   1.975  -1.338  0.00  0.00    +0.000 C 
ATOM     19  C   UNL     1       3.728   1.479   0.041  0.00  0.00    +0.003 C 
ATOM     20  C   UNL     1       2.357   0.774  -0.016  0.00  0.00    +0.041 C 
BRANCH  14  21
ATOM     21  C   UNL     1       1.327   2.526   1.226  0.00  0.00    +0.088 C 
ATOM     22  N   UNL     1       1.389   3.151   2.172  0.00  0.00    -0.194 NA
ENDBRANCH  14  21
ENDBRANCH  12  14
ENDBRANCH   9  10
ENDBRANCH   7   9
ENDBRANCH   6   7
BRANCH   1  23
ATOM     23  C   UNL     1      -5.735   3.678   0.050  0.00  0.00    -0.041 C 
BRANCH  23  25
ATOM     24  C   UNL     1      -6.585   3.977  -2.197  0.00  0.00    -0.095 C 
ATOM     25  N   UNL     1      -5.422   4.129  -1.312  0.00  0.00    +0.382 N 
ATOM     26  H   UNL     1      -4.615   3.492  -1.702  0.00  0.00    -0.081 HD
BRANCH  25  27
ATOM     27  C   UNL     1      -4.940   5.517  -1.310  0.00  0.00    -0.069 C 
ATOM     28  C   UNL     1      -6.063   6.446  -0.845  0.00  0.00    -0.015 C 
ATOM     29  C   UNL     1      -5.562   7.891  -0.842  0.00  0.00    -0.002 C 
ATOM     30  C   UNL     1      -5.129   8.283  -2.256  0.00  0.00    -0.000 C 
ATOM     31  C   UNL     1      -4.006   7.354  -2.722  0.00  0.00    -0.002 C 
ATOM     32  C   UNL     1      -4.508   5.909  -2.724  0.00  0.00    -0.015 C 
ENDBRANCH  25  27
ENDBRANCH  23  25
ENDBRANCH   1  23
TORSDOF 8
