REMARK  Name = ZINC13641157
REMARK  10 active torsions:
REMARK  status: ('A' for Active; 'I' for Inactive)
REMARK    1  A    between atoms: C_1  and  O_2
REMARK    2  A    between atoms: O_2  and  C_3
REMARK    3  A    between atoms: C_5  and  C_13
REMARK    4  A    between atoms: C_7  and  O_11
REMARK    5  A    between atoms: C_8  and  O_9
REMARK    6  A    between atoms: O_9  and  C_10
REMARK    7  A    between atoms: O_11  and  C_12
REMARK    8  A    between atoms: C_26  and  C_29
REMARK    9  A    between atoms: N_31  and  C_32
REMARK   10  A    between atoms: C_32  and  C_33
REMARK                            x       y       z     vdW  Elec       q    Type
REMARK                         _______ _______ _______ _____ _____    ______ ____
ROOT
ATOM      1  C   UNL     1      -9.185  -0.135  -3.431  0.00  0.00    +0.105 C 
ATOM      2  C   UNL     1     -10.547  -0.672  -2.984  0.00  0.00    +0.029 C 
ATOM      3  C   UNL     1     -11.525  -0.550  -4.186  0.00  0.00    +0.033 C 
ATOM      4  C   UNL     1     -11.981   0.894  -4.128  0.00  0.00    -0.030 C 
ATOM      5  C   UNL     1     -11.800   1.385  -2.927  0.00  0.00    -0.023 C 
ATOM      6  C   UNL     1     -11.191   0.344  -2.016  0.00  0.00    +0.049 C 
ATOM      7  C   UNL     1     -10.167   0.966  -1.113  0.00  0.00    -0.019 A 
ATOM      8  C   UNL     1     -10.616   1.779  -0.082  0.00  0.00    +0.006 A 
ATOM      9  C   UNL     1      -9.728   2.386   0.785  0.00  0.00    +0.001 A 
ATOM     10  C   UNL     1      -8.372   2.189   0.641  0.00  0.00    +0.015 A 
ATOM     11  C   UNL     1      -7.899   1.378  -0.391  0.00  0.00    +0.058 A 
ATOM     12  C   UNL     1      -8.807   0.758  -1.272  0.00  0.00    +0.044 A 
ATOM     13  N   UNL     1      -8.293  -0.049  -2.275  0.00  0.00    -0.336 N 
ATOM     14  H   UNL     1      -7.373   0.259  -2.550  0.00  0.00    +0.147 HD
ENDROOT
BRANCH   1  17
ATOM     15  C   UNL     1      -9.230   3.622  -3.838  0.00  0.00    +0.165 A 
ATOM     16  C   UNL     1      -9.072   2.360  -3.286  0.00  0.00    +0.055 A 
ATOM     17  C   UNL     1      -9.359   1.234  -4.035  0.00  0.00    -0.020 A 
ATOM     18  C   UNL     1      -9.801   1.362  -5.339  0.00  0.00    +0.055 A 
ATOM     19  C   UNL     1      -9.968   2.620  -5.896  0.00  0.00    +0.165 A 
ATOM     20  C   UNL     1      -9.679   3.754  -5.147  0.00  0.00    +0.204 A 
BRANCH  15  22
ATOM     21  C   UNL     1      -8.490   4.517  -1.763  0.00  0.00    +0.277 C 
ATOM     22  O   UNL     1      -8.946   4.729  -3.100  0.00  0.00    -0.491 OA
ENDBRANCH  15  22
BRANCH  20  23
ATOM     23  O   UNL     1      -9.835   4.991  -5.692  0.00  0.00    -0.488 OA
ATOM     24  C   UNL     1      -8.707   5.549  -6.369  0.00  0.00    +0.277 C 
ENDBRANCH  20  23
BRANCH  19  25
ATOM     25  O   UNL     1     -10.408   2.744  -7.177  0.00  0.00    -0.491 OA
ATOM     26  C   UNL     1     -10.685   1.536  -7.888  0.00  0.00    +0.277 C 
ENDBRANCH  19  25
ENDBRANCH   1  17
BRANCH  11  27
ATOM     27  C   UNL     1      -6.450   1.166  -0.557  0.00  0.00    +0.246 C 
ATOM     28  O   UNL     1      -6.043   0.366  -1.377  0.00  0.00    -0.270 OA
ATOM     29  N   UNL     1      -5.576   1.857   0.201  0.00  0.00    -0.309 N 
ATOM     30  H   UNL     1      -5.901   2.495   0.856  0.00  0.00    +0.149 HD
BRANCH  29  31
ATOM     31  C   UNL     1      -4.136   1.646   0.037  0.00  0.00    +0.136 C 
BRANCH  31  32
ATOM     32  C   UNL     1      -3.374   2.547   1.010  0.00  0.00    +0.135 C 
ATOM     33  C   UNL     1      -1.858   2.425   0.759  0.00  0.00    +0.035 C 
ATOM     34  C   UNL     1      -1.287   1.946   2.116  0.00  0.00    +0.031 C 
ATOM     35  C   UNL     1      -2.404   2.365   3.106  0.00  0.00    +0.160 C 
ATOM     36  O   UNL     1      -3.619   2.124   2.362  0.00  0.00    -0.375 OA
ENDBRANCH  31  32
ENDBRANCH  29  31
ENDBRANCH  11  27
TORSDOF 7
