REMARK  Name = ZINC09711920
REMARK  9 active torsions:
REMARK  status: ('A' for Active; 'I' for Inactive)
REMARK    1  A    between atoms: C_1  and  C_2
REMARK    2  A    between atoms: C_3  and  C_34
REMARK    3  A    between atoms: N_4  and  C_27
REMARK    4  A    between atoms: C_5  and  N_9
REMARK    5  A    between atoms: C_6  and  C_7
REMARK    6  A    between atoms: C_10  and  C_12
REMARK    7  A    between atoms: C_12  and  N_61
REMARK    8  A    between atoms: C_20  and  C_22
REMARK    9  A    between atoms: C_27  and  C_28
REMARK                            x       y       z     vdW  Elec       q    Type
REMARK                         _______ _______ _______ _____ _____    ______ ____
ROOT
ATOM      1  N   UNL     1      -1.411   3.963  -0.452  0.00  0.00    -0.272 N 
ATOM      2  C   UNL     1      -1.049   2.980  -1.299  0.00  0.00    +0.202 C 
ATOM      3  O   UNL     1       0.060   2.494  -1.226  0.00  0.00    -0.278 OA
ATOM      4  H   UNL     1      -2.323   4.293  -0.452  0.00  0.00    +0.156 HD
ENDROOT
BRANCH   1   9
ATOM      5  C   UNL     1       2.896   5.562   1.653  0.00  0.00    +0.047 C 
ATOM      6  C   UNL     1       1.447   5.236   1.401  0.00  0.00    -0.011 A 
ATOM      7  C   UNL     1       0.417   5.464   2.232  0.00  0.00    +0.022 A 
ATOM      8  N   UNL     1      -0.742   5.028   1.647  0.00  0.00    -0.329 N 
ATOM      9  C   UNL     1      -0.479   4.504   0.422  0.00  0.00    +0.123 A 
ATOM     10  C   UNL     1       0.887   4.607   0.198  0.00  0.00    +0.095 A 
ATOM     11  C   UNL     1       0.520   6.099   3.594  0.00  0.00    +0.064 C 
BRANCH  10  12
ATOM     12  C   UNL     1       1.604   4.181  -0.966  0.00  0.00    +0.103 C 
ATOM     13  N   UNL     1       2.173   3.844  -1.889  0.00  0.00    -0.191 NA
ENDBRANCH  10  12
BRANCH   8  14
ATOM     14  C   UNL     1      -2.072   5.111   2.256  0.00  0.00    +0.154 C 
BRANCH  14  15
ATOM     15  C   UNL     1      -2.674   6.490   1.981  0.00  0.00    +0.138 C 
ATOM     16  C   UNL     1      -4.078   6.611   2.627  0.00  0.00    +0.035 C 
ATOM     17  C   UNL     1      -4.743   7.704   1.754  0.00  0.00    +0.031 C 
ATOM     18  C   UNL     1      -3.924   7.695   0.449  0.00  0.00    +0.160 C 
ATOM     19  O   UNL     1      -2.936   6.659   0.571  0.00  0.00    -0.375 OA
ENDBRANCH  14  15
ENDBRANCH   8  14
ENDBRANCH   1   9
BRANCH   2  20
ATOM     20  C   UNL     1      -2.022   2.485  -2.338  0.00  0.00    +0.020 C 
BRANCH  20  29
ATOM     21  C   UNL     1      -1.129   0.234  -2.304  0.00  0.00    -0.072 C 
ATOM     22  C   UNL     1      -0.123  -0.669  -3.039  0.00  0.00    +0.024 C 
ATOM     23  C   UNL     1      -0.576  -0.794  -4.457  0.00  0.00    -0.010 A 
ATOM     24  C   UNL     1      -1.509  -0.024  -5.084  0.00  0.00    -0.046 A 
ATOM     25  C   UNL     1      -1.772  -0.328  -6.418  0.00  0.00    +0.010 A 
ATOM     26  C   UNL     1      -1.111  -1.342  -7.024  0.00  0.00    +0.045 A 
ATOM     27  S   UNL     1      -0.058  -1.935  -5.708  0.00  0.00    -0.101 S 
ATOM     28  C   UNL     1      -2.198   1.100  -4.316  0.00  0.00    +0.002 C 
ATOM     29  N   UNL     1      -1.361   1.436  -3.140  0.00  0.00    +0.393 N 
ATOM     30  H   UNL     1      -0.455   1.790  -3.469  0.00  0.00    -0.080 HD
BRANCH  28  31
ATOM     31  C   UNL     1      -2.310   2.318  -5.196  0.00  0.00    -0.019 A 
ATOM     32  C   UNL     1      -3.381   2.773  -5.891  0.00  0.00    +0.010 A 
ATOM     33  C   UNL     1      -3.254   3.930  -6.638  0.00  0.00    +0.008 A 
ATOM     34  C   UNL     1      -2.059   4.569  -6.660  0.00  0.00    +0.045 A 
ATOM     35  S   UNL     1      -1.066   3.533  -5.598  0.00  0.00    -0.103 S 
ENDBRANCH  28  31
ENDBRANCH  20  29
ENDBRANCH   2  20
TORSDOF 7
