REMARK  Name = ZINC58961473
REMARK  10 active torsions:
REMARK  status: ('A' for Active; 'I' for Inactive)
REMARK    1  A    between atoms: C_1  and  C_2
REMARK    2  A    between atoms: C_2  and  C_3
REMARK    3  A    between atoms: C_6  and  C_9
REMARK    4  A    between atoms: C_11  and  C_33
REMARK    5  A    between atoms: C_13  and  S_15
REMARK    6  A    between atoms: S_15  and  C_16
REMARK    7  A    between atoms: C_16  and  C_18
REMARK    8  A    between atoms: C_16  and  C_19
REMARK    9  A    between atoms: N_21  and  C_22
REMARK   10  A    between atoms: C_23  and  C_31
REMARK                            x       y       z     vdW  Elec       q    Type
REMARK                         _______ _______ _______ _____ _____    ______ ____
ROOT
ATOM      1  C   UNL     1      -5.401  -1.997   0.043  0.00  0.00    +0.076 A 
ATOM      2  C   UNL     1      -6.074  -2.247  -1.156  0.00  0.00    +0.060 A 
ATOM      3  C   UNL     1      -7.370  -2.726  -1.097  0.00  0.00    +0.148 A 
ATOM      4  N   UNL     1      -7.931  -2.932   0.084  0.00  0.00    -0.218 NA
ATOM      5  C   UNL     1      -7.269  -2.687   1.206  0.00  0.00    +0.190 A 
ATOM      6  N   UNL     1      -6.025  -2.233   1.194  0.00  0.00    -0.222 NA
ENDROOT
BRANCH   1  10
ATOM      7  C   UNL     1      -1.412  -0.526   0.013  0.00  0.00    -0.048 A 
ATOM      8  C   UNL     1      -2.049  -0.765   1.217  0.00  0.00    +0.004 A 
ATOM      9  C   UNL     1      -3.343  -1.243   1.233  0.00  0.00    +0.010 A 
ATOM     10  C   UNL     1      -4.009  -1.484   0.032  0.00  0.00    +0.001 A 
ATOM     11  C   UNL     1      -3.363  -1.240  -1.178  0.00  0.00    +0.010 A 
ATOM     12  C   UNL     1      -2.070  -0.758  -1.182  0.00  0.00    +0.004 A 
BRANCH   7  14
ATOM     13  C   UNL     1      -0.019   1.526   0.010  0.00  0.00    +0.009 C 
ATOM     14  C   UNL     1       0.002  -0.004   0.002  0.00  0.00    +0.032 C 
ENDBRANCH   7  14
ENDBRANCH   1  10
BRANCH   3  15
ATOM     15  C   UNL     1      -8.136  -3.009  -2.364  0.00  0.00    +0.434 C 
ATOM     16  F   UNL     1      -7.916  -4.334  -2.755  0.00  0.00    -0.164 F 
ATOM     17  F   UNL     1      -9.502  -2.810  -2.137  0.00  0.00    -0.164 F 
ATOM     18  F   UNL     1      -7.701  -2.146  -3.375  0.00  0.00    -0.164 F 
ENDBRANCH   3  15
BRANCH   5  19
ATOM     19  S   UNL     1      -8.062  -2.978   2.752  0.00  0.00    -0.074 S 
BRANCH  19  20
ATOM     20  C   UNL     1      -9.709  -3.585   2.293  0.00  0.00    +0.137 C 
ATOM     21  C   UNL     1     -10.479  -2.477   1.573  0.00  0.00    +0.029 C 
BRANCH  20  22
ATOM     22  C   UNL     1     -10.458  -3.993   3.536  0.00  0.00    +0.231 C 
ATOM     23  O   UNL     1     -10.173  -3.498   4.606  0.00  0.00    -0.274 OA
ATOM     24  N   UNL     1     -11.445  -4.907   3.458  0.00  0.00    -0.278 N 
ATOM     25  H   UNL     1     -11.673  -5.303   2.602  0.00  0.00    +0.155 HD
BRANCH  24  26
ATOM     26  C   UNL     1     -12.136  -5.282   4.602  0.00  0.00    +0.090 A 
ATOM     27  C   UNL     1     -13.165  -6.202   4.712  0.00  0.00    +0.084 A 
ATOM     28  C   UNL     1     -13.725  -6.418   6.035  0.00  0.00    -0.018 A 
ATOM     29  C   UNL     1     -13.152  -5.673   7.005  0.00  0.00    -0.004 A 
ATOM     30  S   UNL     1     -11.909  -4.731   6.172  0.00  0.00    -0.077 S 
ATOM     31  C   UNL     1     -13.504  -5.667   8.461  0.00  0.00    +0.043 C 
ATOM     32  C   UNL     1     -14.867  -6.354   8.629  0.00  0.00    +0.005 C 
ATOM     33  C   UNL     1     -14.859  -7.672   7.849  0.00  0.00    +0.005 C 
ATOM     34  C   UNL     1     -14.856  -7.387   6.345  0.00  0.00    +0.037 C 
BRANCH  27  35
ATOM     35  C   UNL     1     -13.658  -6.910   3.569  0.00  0.00    +0.102 C 
ATOM     36  N   UNL     1     -14.049  -7.471   2.662  0.00  0.00    -0.191 NA
ENDBRANCH  27  35
ENDBRANCH  24  26
ENDBRANCH  20  22
ENDBRANCH  19  20
ENDBRANCH   5  19
TORSDOF 8
