REMARK  Name = ZINC02996000
REMARK  5 active torsions:
REMARK  status: ('A' for Active; 'I' for Inactive)
REMARK    1  A    between atoms: C_6  and  N_7
REMARK    2  A    between atoms: N_7  and  C_8
REMARK    3  A    between atoms: C_8  and  C_9
REMARK    4  A    between atoms: N_11  and  N_12
REMARK    5  A    between atoms: C_13  and  C_14
REMARK                            x       y       z     vdW  Elec       q    Type
REMARK                         _______ _______ _______ _____ _____    ______ ____
ROOT
ATOM      1  C   UNL     1       2.406   0.752  -0.017  0.00  0.00    +0.249 C 
ATOM      2  O   UNL     1       2.201  -0.444  -0.021  0.00  0.00    -0.272 OA
ATOM      3  N   UNL     1       3.671   1.218  -0.026  0.00  0.00    -0.206 N 
ATOM      4  H   UNL     1       3.835   2.174  -0.023  0.00  0.00    +0.177 HD
ENDROOT
BRANCH   3   5
ATOM      5  N   UNL     1       4.748   0.323  -0.042  0.00  0.00    -0.188 NA
ATOM      6  C   UNL     1       5.965   0.772  -0.051  0.00  0.00    +0.139 C 
BRANCH   6   7
ATOM      7  C   UNL     1       7.099  -0.171  -0.067  0.00  0.00    +0.013 A 
ATOM      8  C   UNL     1       8.411   0.309  -0.077  0.00  0.00    +0.012 A 
ATOM      9  C   UNL     1       9.466  -0.578  -0.091  0.00  0.00    +0.021 A 
ATOM     10  C   UNL     1       9.229  -1.942  -0.097  0.00  0.00    +0.042 A 
ATOM     11  C   UNL     1       7.932  -2.426  -0.087  0.00  0.00    +0.040 A 
ATOM     12  C   UNL     1       6.865  -1.549  -0.066  0.00  0.00    +0.051 A 
ATOM     13 CL   UNL     1       5.239  -2.157  -0.046  0.00  0.00    -0.083 Cl
ATOM     14 CL   UNL     1      10.564  -3.052  -0.115  0.00  0.00    -0.083 Cl
ENDBRANCH   6   7
ENDBRANCH   3   5
BRANCH   1  15
ATOM     15  C   UNL     1       1.248   1.716  -0.001  0.00  0.00    +0.199 C 
BRANCH  15  16
ATOM     16  N   UNL     1      -0.011   0.966   0.007  0.00  0.00    -0.335 N 
ATOM     17  H   UNL     1       0.002  -0.004   0.002  0.00  0.00    +0.147 HD
BRANCH  16  23
ATOM     18  C   UNL     1      -1.251   3.037   0.030  0.00  0.00    +0.024 A 
ATOM     19  C   UNL     1      -2.458   3.708   0.033  0.00  0.00    +0.016 A 
ATOM     20  C   UNL     1      -3.645   2.999   0.035  0.00  0.00    +0.013 A 
ATOM     21  C   UNL     1      -3.628   1.615   0.028  0.00  0.00    +0.016 A 
ATOM     22  C   UNL     1      -2.425   0.938   0.019  0.00  0.00    +0.024 A 
ATOM     23  C   UNL     1      -1.230   1.648   0.017  0.00  0.00    +0.028 A 
ATOM     24  I   UNL     1      -5.474   4.021   0.049  0.00  0.00    -0.044 I 
ENDBRANCH  16  23
ENDBRANCH  15  16
ENDBRANCH   1  15
TORSDOF 5
