REMARK  Name = ZINC39936948
REMARK  11 active torsions:
REMARK  status: ('A' for Active; 'I' for Inactive)
REMARK    1  A    between atoms: C_1  and  C_2
REMARK    2  A    between atoms: C_2  and  N_3
REMARK    3  A    between atoms: N_6  and  C_7
REMARK    4  A    between atoms: C_7  and  C_8
REMARK    5  A    between atoms: C_8  and  C_9
REMARK    6  A    between atoms: C_9  and  N_10
REMARK    7  A    between atoms: N_10  and  C_11
REMARK    8  A    between atoms: N_10  and  C_12
REMARK    9  A    between atoms: C_13  and  C_15
REMARK   10  A    between atoms: N_33  and  C_35
REMARK   11  A    between atoms: C_35  and  C_36
REMARK                            x       y       z     vdW  Elec       q    Type
REMARK                         _______ _______ _______ _____ _____    ______ ____
ROOT
ATOM      1  C   UNL     1      -3.850  -0.270  -0.220  0.00  0.00    +0.060 C 
ATOM      2  C   UNL     1      -5.178   0.476  -0.066  0.00  0.00    +0.017 C 
ATOM      3  C   UNL     1      -4.913   1.986  -0.085  0.00  0.00    +0.003 C 
ATOM      4  C   UNL     1      -4.189   2.363  -1.372  0.00  0.00    -0.057 C 
ATOM      5  C   UNL     1      -3.878   3.863  -1.453  0.00  0.00    +0.018 C 
ATOM      6  C   UNL     1      -5.067   4.624  -0.943  0.00  0.00    -0.040 C 
ATOM      7  C   UNL     1      -5.264   5.868  -0.556  0.00  0.00    +0.111 C 
ATOM      8  N   UNL     1      -6.505   6.056  -0.048  0.00  0.00    -0.259 NA
ATOM      9  C   UNL     1      -7.177   4.964   0.062  0.00  0.00    +0.052 C 
ATOM     10  C   UNL     1      -6.431   3.953  -0.812  0.00  0.00    +0.091 C 
ATOM     11  C   UNL     1      -6.220   2.717   0.038  0.00  0.00    -0.055 C 
ATOM     12  C   UNL     1      -7.184   2.378   0.887  0.00  0.00    +0.000 C 
ATOM     13  C   UNL     1      -8.383   3.197   1.068  0.00  0.00    +0.002 C 
ATOM     14  C   UNL     1      -8.346   4.544   0.727  0.00  0.00    +0.024 C 
ATOM     15  N   UNL     1      -2.921   1.627  -1.470  0.00  0.00    +0.385 N 
ATOM     16  C   UNL     1      -3.165   0.182  -1.511  0.00  0.00    -0.065 C 
ATOM     17  H   UNL     1      -2.354   1.829  -0.660  0.00  0.00    -0.081 HD
ENDROOT
BRANCH   1  22
ATOM     18  N   UNL     1      -1.612  -0.928   0.526  0.00  0.00    -0.299 N 
ATOM     19  C   UNL     1      -2.080  -2.162   0.798  0.00  0.00    +0.309 C 
ATOM     20  O   UNL     1      -1.512  -2.862   1.613  0.00  0.00    -0.252 OA
ATOM     21  N   UNL     1      -3.179  -2.620   0.166  0.00  0.00    -0.226 N 
ATOM     22  C   UNL     1      -4.110  -1.754  -0.280  0.00  0.00    +0.224 C 
ATOM     23  O   UNL     1      -5.157  -2.167  -0.731  0.00  0.00    -0.275 OA
ATOM     24  H   UNL     1      -2.009  -0.405  -0.188  0.00  0.00    +0.150 HD
BRANCH  18  26
ATOM     25  C   UNL     1      -0.355   1.116   1.003  0.00  0.00    +0.024 C 
ATOM     26  C   UNL     1      -0.503  -0.376   1.308  0.00  0.00    +0.102 C 
ENDBRANCH  18  26
BRANCH  21  27
ATOM     27  C   UNL     1      -3.362  -4.059  -0.035  0.00  0.00    +0.116 C 
BRANCH  27  28
ATOM     28  C   UNL     1      -4.115  -4.650   1.159  0.00  0.00    +0.001 C 
BRANCH  28  29
ATOM     29  C   UNL     1      -4.306  -6.153   0.949  0.00  0.00    -0.078 C 
BRANCH  29  30
ATOM     30  N   UNL     1      -5.028  -6.720   2.095  0.00  0.00    +0.376 N 
ATOM     31  C   UNL     1      -5.317  -8.138   1.839  0.00  0.00    -0.097 C 
ATOM     32  C   UNL     1      -4.202  -6.599   3.303  0.00  0.00    -0.097 C 
ATOM     33  H   UNL     1      -5.894  -6.220   2.228  0.00  0.00    -0.083 HD
ENDBRANCH  29  30
ENDBRANCH  28  29
ENDBRANCH  27  28
ENDBRANCH  21  27
ENDBRANCH   1  22
BRANCH  15  34
ATOM     34  C   UNL     1      -2.205   2.049  -2.681  0.00  0.00    -0.051 C 
BRANCH  34  35
ATOM     35  C   UNL     1      -0.902   1.300  -2.781  0.00  0.00    -0.053 C 
ATOM     36  C   UNL     1      -0.644   0.571  -3.839  0.00  0.00    +0.002 C 
ENDBRANCH  34  35
ENDBRANCH  15  34
TORSDOF 8
