REMARK  Name = ZINC62330489
REMARK  10 active torsions:
REMARK  status: ('A' for Active; 'I' for Inactive)
REMARK    1  A    between atoms: C_1  and  C_2
REMARK    2  A    between atoms: C_2  and  C_3
REMARK    3  A    between atoms: C_2  and  C_4
REMARK    4  A    between atoms: C_4  and  C_6
REMARK    5  A    between atoms: C_4  and  C_14
REMARK    6  A    between atoms: C_9  and  O_12
REMARK    7  A    between atoms: O_12  and  C_13
REMARK    8  A    between atoms: N_16  and  C_17
REMARK    9  A    between atoms: C_23  and  C_27
REMARK   10  A    between atoms: C_23  and  C_28
REMARK                            x       y       z     vdW  Elec       q    Type
REMARK                         _______ _______ _______ _____ _____    ______ ____
ROOT
ATOM      1  C   UNL     1      -1.755  -0.067  -1.315  0.00  0.00    +0.225 C 
ATOM      2  O   UNL     1      -1.860  -0.874  -2.215  0.00  0.00    -0.275 OA
ATOM      3  N   UNL     1      -2.307   1.156  -1.438  0.00  0.00    -0.285 N 
ATOM      4  H   UNL     1      -2.251   1.790  -0.706  0.00  0.00    +0.155 HD
ENDROOT
BRANCH   3   5
ATOM      5  C   UNL     1      -2.962   1.512  -2.624  0.00  0.00    +0.034 A 
ATOM      6  C   UNL     1      -3.625   0.548  -3.372  0.00  0.00    +0.025 A 
ATOM      7  C   UNL     1      -4.271   0.895  -4.540  0.00  0.00    +0.025 A 
ATOM      8  C   UNL     1      -4.263   2.218  -4.978  0.00  0.00    +0.038 A 
ATOM      9  C   UNL     1      -3.598   3.176  -4.223  0.00  0.00    -0.010 A 
ATOM     10  C   UNL     1      -2.958   2.834  -3.054  0.00  0.00    +0.029 A 
ATOM     11  C   UNL     1      -3.772   4.488  -4.953  0.00  0.00    +0.068 C 
ATOM     12  C   UNL     1      -4.596   4.128  -6.170  0.00  0.00    +0.227 C 
ATOM     13  O   UNL     1      -4.971   4.888  -7.037  0.00  0.00    -0.275 OA
ATOM     14  N   UNL     1      -4.835   2.807  -6.109  0.00  0.00    -0.285 N 
ATOM     15  C   UNL     1      -4.522   5.493  -4.076  0.00  0.00    +0.025 C 
ATOM     16  C   UNL     1      -2.413   5.051  -5.373  0.00  0.00    +0.025 C 
ATOM     17  H   UNL     1      -5.347   2.318  -6.773  0.00  0.00    +0.155 HD
ENDBRANCH   3   5
BRANCH   1  18
ATOM     18  C   UNL     1      -1.006  -0.433  -0.059  0.00  0.00    +0.108 C 
BRANCH  18  19
ATOM     19  C   UNL     1      -0.889  -1.932   0.037  0.00  0.00    -0.035 A 
ATOM     20  C   UNL     1      -0.234  -2.639  -0.955  0.00  0.00    +0.008 A 
ATOM     21  C   UNL     1      -0.126  -4.013  -0.869  0.00  0.00    +0.046 A 
ATOM     22  C   UNL     1      -0.674  -4.685   0.214  0.00  0.00    +0.120 A 
ATOM     23  C   UNL     1      -1.331  -3.974   1.208  0.00  0.00    +0.046 A 
ATOM     24  C   UNL     1      -1.432  -2.599   1.120  0.00  0.00    +0.008 A 
BRANCH  22  25
ATOM     25  O   UNL     1      -0.569  -6.037   0.300  0.00  0.00    -0.495 OA
ATOM     26  C   UNL     1      -1.158  -6.662   1.443  0.00  0.00    +0.277 C 
ENDBRANCH  22  25
ENDBRANCH  18  19
BRANCH  18  28
ATOM     27  C   UNL     1       0.276   1.694  -0.333  0.00  0.00    +0.008 C 
ATOM     28  C   UNL     1       0.392   0.186  -0.100  0.00  0.00    -0.001 C 
ATOM     29  C   UNL     1       1.103  -0.071   1.230  0.00  0.00    +0.008 C 
ENDBRANCH  18  28
ENDBRANCH   1  18
TORSDOF 5
