REMARK  Name = ZINC45820772
REMARK  9 active torsions:
REMARK  status: ('A' for Active; 'I' for Inactive)
REMARK    1  A    between atoms: C_1  and  N_2
REMARK    2  A    between atoms: N_2  and  C_3
REMARK    3  A    between atoms: N_2  and  C_4
REMARK    4  A    between atoms: C_4  and  C_6
REMARK    5  A    between atoms: C_4  and  C_21
REMARK    6  A    between atoms: C_6  and  N_7
REMARK    7  A    between atoms: C_8  and  C_10
REMARK    8  A    between atoms: C_10  and  C_11
REMARK    9  A    between atoms: C_14  and  C_16
REMARK                            x       y       z     vdW  Elec       q    Type
REMARK                         _______ _______ _______ _____ _____    ______ ____
ROOT
ATOM      1  N   UNL     1      -1.766   1.531  -1.169  0.00  0.00    -0.316 N 
ATOM      2  C   UNL     1      -2.260   2.263  -2.188  0.00  0.00    +0.219 C 
ATOM      3  O   UNL     1      -2.935   1.732  -3.045  0.00  0.00    -0.275 OA
ATOM      4  H   UNL     1      -1.227   1.956  -0.484  0.00  0.00    +0.149 HD
ENDROOT
BRANCH   1   5
ATOM      5  C   UNL     1      -2.044   0.095  -1.098  0.00  0.00    +0.094 C 
BRANCH   5   6
ATOM      6  C   UNL     1      -1.280  -0.514   0.080  0.00  0.00    -0.014 C 
BRANCH   6   7
ATOM      7  C   UNL     1      -1.798   0.069   1.370  0.00  0.00    -0.022 A 
ATOM      8  C   UNL     1      -1.272   1.061   2.129  0.00  0.00    +0.009 A 
ATOM      9  C   UNL     1      -1.927   1.438   3.287  0.00  0.00    +0.008 A 
ATOM     10  C   UNL     1      -3.074   0.803   3.629  0.00  0.00    +0.045 A 
ATOM     11  S   UNL     1      -3.265  -0.362   2.290  0.00  0.00    -0.103 S 
ENDBRANCH   6   7
BRANCH   6  13
ATOM     12  C   UNL     1      -0.940  -2.543  -1.154  0.00  0.00    -0.096 C 
ATOM     13  N   UNL     1      -1.474  -1.970   0.089  0.00  0.00    +0.382 N 
ATOM     14  C   UNL     1      -0.769  -2.551   1.239  0.00  0.00    -0.096 C 
ATOM     15  H   UNL     1      -2.459  -2.178   0.159  0.00  0.00    -0.082 HD
ENDBRANCH   6  13
ENDBRANCH   5   6
ENDBRANCH   1   5
BRANCH   2  16
ATOM     16  C   UNL     1      -1.974   3.741  -2.262  0.00  0.00    +0.151 C 
BRANCH  16  17
ATOM     17  C   UNL     1      -2.635   4.320  -3.486  0.00  0.00    +0.058 A 
ATOM     18  C   UNL     1      -3.484   5.373  -3.366  0.00  0.00    +0.071 A 
ATOM     19  S   UNL     1      -3.946   5.622  -5.075  0.00  0.00    -0.075 S 
ATOM     20  C   UNL     1      -2.961   4.298  -5.763  0.00  0.00    +0.109 A 
ATOM     21  N   UNL     1      -2.388   3.809  -4.671  0.00  0.00    -0.243 NA
BRANCH  20  22
ATOM     22  C   UNL     1      -2.819   3.867  -7.169  0.00  0.00    +0.014 A 
ATOM     23  C   UNL     1      -3.506   4.523  -8.189  0.00  0.00    +0.018 A 
ATOM     24  C   UNL     1      -3.350   4.099  -9.463  0.00  0.00    +0.046 A 
ATOM     25  S   UNL     1      -2.212   2.737  -9.274  0.00  0.00    -0.104 S 
ATOM     26  C   UNL     1      -2.006   2.817  -7.503  0.00  0.00    +0.055 A 
ENDBRANCH  20  22
ENDBRANCH  16  17
ENDBRANCH   2  16
TORSDOF 7
