REMARK  Name = ZINC49389971
REMARK  5 active torsions:
REMARK  status: ('A' for Active; 'I' for Inactive)
REMARK    1  A    between atoms: C_1  and  C_2
REMARK    2  A    between atoms: C_2  and  C_4
REMARK    3  A    between atoms: C_2  and  N_11
REMARK    4  A    between atoms: N_11  and  C_12
REMARK    5  A    between atoms: C_13  and  C_18
REMARK                            x       y       z     vdW  Elec       q    Type
REMARK                         _______ _______ _______ _____ _____    ______ ____
ROOT
ATOM      1  N   UNL     1       0.688  -0.476  -1.203  0.00  0.00    -0.330 N 
ATOM      2  H   UNL     1       0.175  -0.710  -1.993  0.00  0.00    +0.147 HD
ENDROOT
BRANCH   1   3
ATOM      3  C   UNL     1       2.065  -0.590  -1.215  0.00  0.00    +0.105 A 
ATOM      4  C   UNL     1       2.895  -1.011  -2.256  0.00  0.00    +0.118 A 
ATOM      5  C   UNL     1       4.255  -1.011  -1.942  0.00  0.00    +0.157 A 
ATOM      6  N   UNL     1       4.594  -0.629  -0.743  0.00  0.00    -0.196 NA
ATOM      7  S   UNL     1       3.153  -0.248   0.015  0.00  0.00    +0.029 S 
ATOM      8 CL   UNL     1       5.449  -1.502  -3.103  0.00  0.00    -0.060 Cl
BRANCH   4   9
ATOM      9  C   UNL     1       2.393  -1.408  -3.537  0.00  0.00    +0.105 C 
ATOM     10  N   UNL     1       1.995  -1.724  -4.554  0.00  0.00    -0.191 NA
ENDBRANCH   4   9
ENDBRANCH   1   3
BRANCH   1  12
ATOM     11  C   UNL     1      -0.019   1.526   0.010  0.00  0.00    +0.033 C 
ATOM     12  C   UNL     1       0.002  -0.004   0.002  0.00  0.00    +0.098 C 
BRANCH  12  13
ATOM     13  C   UNL     1      -1.412  -0.526   0.013  0.00  0.00    -0.027 A 
ATOM     14  C   UNL     1      -2.141  -0.569  -1.161  0.00  0.00    +0.006 A 
ATOM     15  C   UNL     1      -3.438  -1.048  -1.151  0.00  0.00    +0.015 A 
ATOM     16  C   UNL     1      -4.005  -1.484   0.032  0.00  0.00    +0.018 A 
ATOM     17  C   UNL     1      -3.275  -1.440   1.206  0.00  0.00    +0.015 A 
ATOM     18  C   UNL     1      -1.977  -0.966   1.195  0.00  0.00    +0.006 A 
ATOM     19 BR   UNL     1      -5.779  -2.138   0.046  0.00  0.00    -0.050 Br
ENDBRANCH  12  13
ENDBRANCH   1  12
TORSDOF 4
