REMARK  Name = ZINC01723056
REMARK  1 active torsions:
REMARK  status: ('A' for Active; 'I' for Inactive)
REMARK    1  A    between atoms: C_7  and  N_13
REMARK                            x       y       z     vdW  Elec       q    Type
REMARK                         _______ _______ _______ _____ _____    ______ ____
ROOT
ATOM      1  C   UNL     1      -0.954  -0.973   0.007  0.00  0.00    +0.005 A 
ATOM      2  C   UNL     1      -0.591  -2.322  -0.005  0.00  0.00    +0.016 A 
ATOM      3  C   UNL     1       0.713  -2.728  -0.019  0.00  0.00    +0.026 A 
ATOM      4  C   UNL     1       1.725  -1.753  -0.024  0.00  0.00    -0.003 A 
ATOM      5  C   UNL     1       3.100  -2.039  -0.038  0.00  0.00    +0.012 A 
ATOM      6  C   UNL     1       3.988  -1.002  -0.040  0.00  0.00    +0.033 A 
ATOM      7  C   UNL     1       3.577   0.333  -0.029  0.00  0.00    +0.130 A 
ATOM      8  C   UNL     1       2.252   0.645  -0.016  0.00  0.00    -0.009 A 
ATOM      9  C   UNL     1       1.335  -0.402  -0.013  0.00  0.00    -0.008 A 
ATOM     10  C   UNL     1       0.002  -0.004   0.002  0.00  0.00    -0.039 A 
ATOM     11  C   UNL     1      -0.018   1.505   0.010  0.00  0.00    +0.040 C 
ATOM     12  C   UNL     1       1.465   1.933  -0.002  0.00  0.00    +0.043 C 
ATOM     13 BR   UNL     1       1.148  -4.568  -0.033  0.00  0.00    -0.050 Br
ENDROOT
BRANCH   7  14
ATOM     14  N   UNL     1       4.587   1.415  -0.033  0.00  0.00    +0.057 N 
ATOM     15  O   UNL     1       5.774   1.139  -0.045  0.00  0.00    -0.126 OA
ATOM     16  O   UNL     1       4.233   2.580  -0.023  0.00  0.00    -0.126 OA
ENDBRANCH   7  14
TORSDOF 1
