REMARK  Name = ZINC00868068
REMARK  10 active torsions:
REMARK  status: ('A' for Active; 'I' for Inactive)
REMARK    1  A    between atoms: C_1  and  O_2
REMARK    2  A    between atoms: O_2  and  C_3
REMARK    3  A    between atoms: C_5  and  C_13
REMARK    4  A    between atoms: C_7  and  O_11
REMARK    5  A    between atoms: C_8  and  O_9
REMARK    6  A    between atoms: O_9  and  C_10
REMARK    7  A    between atoms: O_11  and  C_12
REMARK    8  A    between atoms: N_14  and  N_15
REMARK    9  A    between atoms: C_16  and  C_18
REMARK   10  A    between atoms: C_20  and  C_24
REMARK                            x       y       z     vdW  Elec       q    Type
REMARK                         _______ _______ _______ _____ _____    ______ ____
ROOT
ATOM      1  N   UNL     1       0.814   4.233   0.017  0.00  0.00    -0.202 N 
ATOM      2  C   UNL     1       1.723   3.238   0.003  0.00  0.00    +0.281 C 
ATOM      3  O   UNL     1       2.911   3.500  -0.008  0.00  0.00    -0.267 OA
ATOM      4  H   UNL     1      -0.133   4.025   0.025  0.00  0.00    +0.178 HD
ENDROOT
BRANCH   2   5
ATOM      5  C   UNL     1       1.278   1.836  -0.000  0.00  0.00    +0.122 A 
ATOM      6  C   UNL     1       2.089   0.722  -0.014  0.00  0.00    +0.063 A 
ATOM      7  C   UNL     1       1.257  -0.409  -0.012  0.00  0.00    +0.100 A 
ATOM      8  N   UNL     1       0.002  -0.004   0.002  0.00  0.00    -0.173 NA
ATOM      9  N   UNL     1      -0.017   1.396   0.010  0.00  0.00    -0.272 N 
ATOM     10  H   UNL     1      -0.834   1.973   0.021  0.00  0.00    +0.189 HD
BRANCH   7  11
ATOM     11  C   UNL     1       1.711  -1.817  -0.025  0.00  0.00    +0.040 A 
ATOM     12  C   UNL     1       0.965  -2.964  -0.019  0.00  0.00    +0.019 A 
ATOM     13  C   UNL     1       1.616  -4.179  -0.038  0.00  0.00    +0.023 A 
ATOM     14  C   UNL     1       2.974  -4.201  -0.051  0.00  0.00    +0.056 A 
ATOM     15  S   UNL     1       3.376  -2.462  -0.044  0.00  0.00    -0.080 S 
ATOM     16 BR   UNL     1       4.138  -5.691  -0.071  0.00  0.00    -0.043 Br
ENDBRANCH   7  11
ENDBRANCH   2   5
BRANCH   1  18
ATOM     17  C   UNL     1       0.362   6.527   0.033  0.00  0.00    +0.138 C 
ATOM     18  N   UNL     1       1.238   5.569   0.019  0.00  0.00    -0.187 NA
BRANCH  17  21
ATOM     19  C   UNL     1       0.288  10.283   0.053  0.00  0.00    +0.166 A 
ATOM     20  C   UNL     1      -0.133   8.965   0.050  0.00  0.00    +0.059 A 
ATOM     21  C   UNL     1       0.808   7.933   0.036  0.00  0.00    +0.002 A 
ATOM     22  C   UNL     1       2.172   8.234   0.030  0.00  0.00    +0.059 A 
ATOM     23  C   UNL     1       2.587   9.554   0.028  0.00  0.00    +0.166 A 
ATOM     24  C   UNL     1       1.647  10.580   0.043  0.00  0.00    +0.204 A 
BRANCH  19  26
ATOM     25  C   UNL     1      -2.006  10.911   0.079  0.00  0.00    +0.277 C 
ATOM     26  O   UNL     1      -0.627  11.289   0.068  0.00  0.00    -0.491 OA
ENDBRANCH  19  26
BRANCH  24  27
ATOM     27  O   UNL     1       2.059  11.877   0.047  0.00  0.00    -0.488 OA
ATOM     28  C   UNL     1       2.267  12.487   1.322  0.00  0.00    +0.277 C 
ENDBRANCH  24  27
BRANCH  23  29
ATOM     29  O   UNL     1       3.915   9.848   0.018  0.00  0.00    -0.491 OA
ATOM     30  C   UNL     1       4.824   8.746   0.003  0.00  0.00    +0.277 C 
ENDBRANCH  23  29
ENDBRANCH  17  21
ENDBRANCH   1  18
TORSDOF 7
