REMARK  Name = ZINC59229248
REMARK  5 active torsions:
REMARK  status: ('A' for Active; 'I' for Inactive)
REMARK    1  A    between atoms: C_1  and  O_2
REMARK    2  A    between atoms: O_2  and  C_3
REMARK    3  A    between atoms: C_6  and  N_9
REMARK    4  A    between atoms: C_10  and  C_21
REMARK    5  A    between atoms: C_13  and  C_14
REMARK                            x       y       z     vdW  Elec       q    Type
REMARK                         _______ _______ _______ _____ _____    ______ ____
ROOT
ATOM      1  N   UNL     1      -5.098  -2.752   1.223  0.00  0.00    -0.219 N 
ATOM      2  C   UNL     1      -5.094  -3.938   0.524  0.00  0.00    +0.140 C 
ATOM      3  N   UNL     1      -6.207  -4.088  -0.145  0.00  0.00    -0.226 NA
ATOM      4  C   UNL     1      -7.011  -3.011   0.073  0.00  0.00    +0.132 C 
ATOM      5  C   UNL     1      -8.275  -2.794  -0.457  0.00  0.00    +0.079 C 
ATOM      6  C   UNL     1      -6.273  -2.128   0.987  0.00  0.00    +0.275 C 
ATOM      7  O   UNL     1      -6.642  -1.057   1.436  0.00  0.00    -0.268 OA
ENDROOT
BRANCH   2   8
ATOM      8  C   UNL     1      -3.982  -4.910   0.528  0.00  0.00    +0.016 A 
ATOM      9  C   UNL     1      -2.920  -4.756   1.422  0.00  0.00    +0.012 A 
ATOM     10  C   UNL     1      -1.885  -5.668   1.422  0.00  0.00    +0.016 A 
ATOM     11  C   UNL     1      -1.897  -6.733   0.537  0.00  0.00    +0.018 A 
ATOM     12  C   UNL     1      -2.946  -6.891  -0.352  0.00  0.00    +0.016 A 
ATOM     13  C   UNL     1      -3.990  -5.989  -0.358  0.00  0.00    +0.012 A 
ATOM     14 BR   UNL     1      -0.473  -7.977   0.542  0.00  0.00    -0.050 Br
ENDBRANCH   2   8
BRANCH   1  18
ATOM     15  C   UNL     1      -2.023  -1.338   3.661  0.00  0.00    +0.120 A 
ATOM     16  C   UNL     1      -1.925  -1.218   2.283  0.00  0.00    +0.047 A 
ATOM     17  C   UNL     1      -2.943  -1.686   1.475  0.00  0.00    +0.027 A 
ATOM     18  C   UNL     1      -4.064  -2.277   2.043  0.00  0.00    +0.043 A 
ATOM     19  C   UNL     1      -4.161  -2.397   3.423  0.00  0.00    +0.027 A 
ATOM     20  C   UNL     1      -3.140  -1.933   4.229  0.00  0.00    +0.047 A 
BRANCH  15  22
ATOM     21  C   UNL     1       0.100  -0.276   3.804  0.00  0.00    +0.277 C 
ATOM     22  O   UNL     1      -1.021  -0.877   4.456  0.00  0.00    -0.495 OA
ENDBRANCH  15  22
ENDBRANCH   1  18
BRANCH   5  23
ATOM     23  C   UNL     1      -8.937  -1.575  -0.218  0.00  0.00    +0.130 A 
ATOM     24  C   UNL     1     -10.239  -1.270  -0.577  0.00  0.00    +0.049 A 
ATOM     25  C   UNL     1     -10.475   0.041  -0.144  0.00  0.00    +0.042 A 
ATOM     26  C   UNL     1      -9.339   0.478   0.448  0.00  0.00    +0.195 A 
ATOM     27  O   UNL     1      -8.420  -0.496   0.406  0.00  0.00    -0.463 OA
ENDBRANCH   5  23
TORSDOF 4
