REMARK  Name = ZINC39710684
REMARK  12 active torsions:
REMARK  status: ('A' for Active; 'I' for Inactive)
REMARK    1  A    between atoms: C_1  and  C_2
REMARK    2  A    between atoms: C_7  and  C_14
REMARK    3  A    between atoms: C_14  and  C_16
REMARK    4  A    between atoms: C_14  and  N_26
REMARK    5  A    between atoms: N_21  and  C_22
REMARK    6  A    between atoms: C_22  and  C_23
REMARK    7  A    between atoms: C_22  and  C_24
REMARK    8  A    between atoms: C_22  and  C_25
REMARK    9  A    between atoms: N_26  and  C_27
REMARK   10  A    between atoms: N_26  and  C_33
REMARK   11  A    between atoms: C_27  and  C_28
REMARK   12  A    between atoms: C_33  and  C_34
REMARK                            x       y       z     vdW  Elec       q    Type
REMARK                         _______ _______ _______ _____ _____    ______ ____
ROOT
ATOM      1  C   UNL     1      -1.339  -6.310   2.142  0.00  0.00    -0.008 C 
ENDROOT
BRANCH   1   8
ATOM      2  C   UNL     1       1.650   0.003  -0.583  0.00  0.00    +0.044 C 
ATOM      3  C   UNL     1       1.280  -1.425  -0.275  0.00  0.00    -0.049 A 
ATOM      4  C   UNL     1       1.120  -2.318  -1.334  0.00  0.00    +0.004 A 
ATOM      5  C   UNL     1       0.786  -3.617  -1.120  0.00  0.00    +0.010 A 
ATOM      6  C   UNL     1       0.594  -4.078   0.256  0.00  0.00    -0.007 A 
ATOM      7  C   UNL     1       0.259  -5.373   0.519  0.00  0.00    -0.006 C 
ATOM      8  C   UNL     1       0.080  -5.763   1.973  0.00  0.00    +0.088 C 
ATOM      9  C   UNL     1       0.287  -4.684   3.013  0.00  0.00    +0.223 C 
ATOM     10  O   UNL     1       0.157  -4.942   4.194  0.00  0.00    -0.275 OA
ATOM     11  N   UNL     1       0.611  -3.460   2.632  0.00  0.00    -0.285 N 
ATOM     12  C   UNL     1       0.770  -3.113   1.355  0.00  0.00    +0.041 A 
ATOM     13  C   UNL     1       1.120  -1.791   1.024  0.00  0.00    +0.027 A 
ATOM     14  H   UNL     1       0.740  -2.783   3.314  0.00  0.00    +0.155 HD
ENDBRANCH   1   8
BRANCH   1  15
ATOM     15  C   UNL     1      -1.517  -7.546   1.258  0.00  0.00    +0.205 C 
ATOM     16  N   UNL     1      -0.260  -8.302   1.174  0.00  0.00    -0.152 NA
ATOM     17  N   UNL     1       0.106  -8.337  -0.002  0.00  0.00    -0.070 NA
ATOM     18  N   UNL     1      -0.763  -7.666  -0.862  0.00  0.00    -0.179 N 
ATOM     19  N   UNL     1      -1.806  -7.146  -0.136  0.00  0.00    -0.183 NA
ATOM     20  H   UNL     1      -0.649  -7.581  -1.821  0.00  0.00    +0.191 HD
BRANCH  19  21
ATOM     21  C   UNL     1      -3.091  -7.698  -0.586  0.00  0.00    +0.035 C 
ATOM     22  C   UNL     1      -4.211  -7.189   0.324  0.00  0.00    +0.029 C 
ATOM     23  C   UNL     1      -3.360  -7.253  -2.025  0.00  0.00    +0.029 C 
ATOM     24  C   UNL     1      -3.039  -9.226  -0.526  0.00  0.00    +0.029 C 
ENDBRANCH  19  21
ENDBRANCH   1  15
BRANCH   1  25
ATOM     25  N   UNL     1      -1.559  -6.677   3.547  0.00  0.00    +0.392 N 
ATOM     26  H   UNL     1      -1.372  -5.879   4.136  0.00  0.00    -0.080 HD
BRANCH  25  27
ATOM     27  C   UNL     1      -2.952  -7.104   3.729  0.00  0.00    -0.002 C 
BRANCH  27  28
ATOM     28  C   UNL     1      -3.225  -7.315   5.196  0.00  0.00    +0.089 A 
ATOM     29  C   UNL     1      -3.681  -6.383   6.053  0.00  0.00    +0.042 A 
ATOM     30  C   UNL     1      -3.792  -7.008   7.316  0.00  0.00    +0.041 A 
ATOM     31  C   UNL     1      -3.397  -8.284   7.156  0.00  0.00    +0.195 A 
ATOM     32  O   UNL     1      -3.061  -8.466   5.868  0.00  0.00    -0.470 OA
ENDBRANCH  27  28
ENDBRANCH  25  27
BRANCH  25  33
ATOM     33  C   UNL     1      -0.657  -7.777   3.913  0.00  0.00    -0.034 C 
BRANCH  33  34
ATOM     34  C   UNL     1       0.668  -7.214   4.357  0.00  0.00    -0.027 A 
ATOM     35  C   UNL     1       1.060  -6.831   5.597  0.00  0.00    +0.009 A 
ATOM     36  C   UNL     1       2.340  -6.338   5.773  0.00  0.00    +0.008 A 
ATOM     37  C   UNL     1       3.164  -6.252   4.701  0.00  0.00    +0.045 A 
ATOM     38  S   UNL     1       2.132  -6.886   3.389  0.00  0.00    -0.103 S 
ENDBRANCH  33  34
ENDBRANCH  25  33
ENDBRANCH   1  25
TORSDOF 8
