REMARK  Name = ZINC12713756
REMARK  12 active torsions:
REMARK  status: ('A' for Active; 'I' for Inactive)
REMARK    1  A    between atoms: C_1  and  C_2
REMARK    2  A    between atoms: C_2  and  C_3
REMARK    3  A    between atoms: C_6  and  N_9
REMARK    4  A    between atoms: N_9  and  C_10
REMARK    5  A    between atoms: C_10  and  C_12
REMARK    6  A    between atoms: C_10  and  C_19
REMARK    7  A    between atoms: N_21  and  C_22
REMARK    8  A    between atoms: C_22  and  C_23
REMARK    9  A    between atoms: C_22  and  C_24
REMARK   10  A    between atoms: C_22  and  C_25
REMARK   11  A    between atoms: C_26  and  C_28
REMARK   12  A    between atoms: C_28  and  N_29
REMARK                            x       y       z     vdW  Elec       q    Type
REMARK                         _______ _______ _______ _____ _____    ______ ____
ROOT
ATOM      1  N   UNL     1      -2.308   3.015   4.353  0.00  0.00    -0.254 N 
ATOM      2  C   UNL     1      -3.068   1.917   4.534  0.00  0.00    +0.242 C 
ATOM      3  O   UNL     1      -3.024   1.010   3.729  0.00  0.00    -0.273 OA
ENDROOT
BRANCH   1   7
ATOM      4  C   UNL     1      -0.200   3.528   0.796  0.00  0.00    -0.048 A 
ATOM      5  C   UNL     1      -0.006   4.407   1.846  0.00  0.00    +0.005 A 
ATOM      6  C   UNL     1      -0.707   4.242   3.024  0.00  0.00    +0.024 A 
ATOM      7  C   UNL     1      -1.600   3.188   3.158  0.00  0.00    +0.038 A 
ATOM      8  C   UNL     1      -1.789   2.304   2.104  0.00  0.00    +0.024 A 
ATOM      9  C   UNL     1      -1.089   2.476   0.926  0.00  0.00    +0.005 A 
BRANCH   4  11
ATOM     10  C   UNL     1      -0.240   4.609  -1.435  0.00  0.00    +0.009 C 
ATOM     11  C   UNL     1       0.563   3.713  -0.490  0.00  0.00    +0.032 C 
ENDBRANCH   4  11
ENDBRANCH   1   7
BRANCH   1  12
ATOM     12  C   UNL     1      -2.223   4.029   5.407  0.00  0.00    +0.200 C 
BRANCH  12  13
ATOM     13  C   UNL     1      -0.827   4.047   5.975  0.00  0.00    +0.017 A 
ATOM     14  C   UNL     1       0.218   3.493   5.260  0.00  0.00    +0.009 A 
ATOM     15  C   UNL     1       1.498   3.510   5.780  0.00  0.00    +0.001 A 
ATOM     16  C   UNL     1       1.735   4.082   7.016  0.00  0.00    +0.003 A 
ATOM     17  C   UNL     1       0.692   4.636   7.734  0.00  0.00    +0.039 A 
ATOM     18  C   UNL     1      -0.590   4.624   7.211  0.00  0.00    +0.129 A 
ATOM     19  F   UNL     1      -1.609   5.171   7.909  0.00  0.00    -0.205 F 
ENDBRANCH  12  13
BRANCH  12  20
ATOM     20  C   UNL     1      -2.548   5.382   4.830  0.00  0.00    +0.239 C 
ATOM     21  O   UNL     1      -2.757   5.501   3.642  0.00  0.00    -0.273 OA
ATOM     22  N   UNL     1      -2.607   6.462   5.635  0.00  0.00    -0.309 N 
ATOM     23  H   UNL     1      -2.440   6.367   6.586  0.00  0.00    +0.149 HD
BRANCH  22  24
ATOM     24  C   UNL     1      -2.923   7.778   5.074  0.00  0.00    +0.026 C 
ATOM     25  C   UNL     1      -4.303   7.733   4.415  0.00  0.00    +0.031 C 
ATOM     26  C   UNL     1      -2.926   8.822   6.193  0.00  0.00    +0.031 C 
ATOM     27  C   UNL     1      -1.871   8.153   4.029  0.00  0.00    +0.031 C 
ENDBRANCH  22  24
ENDBRANCH  12  20
ENDBRANCH   1  12
BRANCH   2  28
ATOM     28  C   UNL     1      -3.972   1.815   5.735  0.00  0.00    +0.242 C 
BRANCH  28  29
ATOM     29  N   UNL     1      -4.770   0.591   5.643  0.00  0.00    -0.235 N 
ATOM     30  C   UNL     1      -4.435  -0.649   6.134  0.00  0.00    +0.090 A 
ATOM     31  C   UNL     1      -3.337  -1.151   6.824  0.00  0.00    +0.029 A 
ATOM     32  C   UNL     1      -3.304  -2.469   7.182  0.00  0.00    +0.002 A 
ATOM     33  C   UNL     1      -4.358  -3.315   6.862  0.00  0.00    +0.002 A 
ATOM     34  C   UNL     1      -5.447  -2.848   6.185  0.00  0.00    +0.032 A 
ATOM     35  C   UNL     1      -5.505  -1.500   5.807  0.00  0.00    +0.113 A 
ATOM     36  N   UNL     1      -6.425  -0.766   5.149  0.00  0.00    -0.129 NA
ATOM     37  N   UNL     1      -6.031   0.454   5.042  0.00  0.00    -0.064 NA
ENDBRANCH  28  29
ENDBRANCH   2  28
TORSDOF 8
