REMARK  Name = ZINC09489379
REMARK  10 active torsions:
REMARK  status: ('A' for Active; 'I' for Inactive)
REMARK    1  A    between atoms: C_1  and  C_2
REMARK    2  A    between atoms: C_3  and  C_24
REMARK    3  A    between atoms: C_4  and  C_17
REMARK    4  A    between atoms: N_8  and  C_15
REMARK    5  A    between atoms: N_11  and  C_14
REMARK    6  A    between atoms: C_24  and  O_26
REMARK    7  A    between atoms: O_26  and  C_27
REMARK    8  A    between atoms: C_27  and  C_28
REMARK    9  A    between atoms: C_28  and  C_29
REMARK   10  A    between atoms: C_28  and  C_30
REMARK                            x       y       z     vdW  Elec       q    Type
REMARK                         _______ _______ _______ _____ _____    ______ ____
ROOT
ATOM      1  C   UNL     1       3.917   5.131  -2.327  0.00  0.00    +0.061 C 
ATOM      2  C   UNL     1       3.170   4.626  -1.120  0.00  0.00    +0.017 C 
ATOM      3  C   UNL     1       1.918   4.161  -1.263  0.00  0.00    +0.065 C 
ATOM      4  C   UNL     1       1.133   3.637  -0.094  0.00  0.00    +0.096 C 
ATOM      5  C   UNL     1       1.750   4.074   1.205  0.00  0.00    +0.067 A 
ATOM      6  C   UNL     1       3.026   4.551   1.253  0.00  0.00    +0.116 A 
ATOM      7  N   UNL     1       3.561   4.935   2.459  0.00  0.00    -0.284 N 
ATOM      8  C   UNL     1       2.830   4.847   3.586  0.00  0.00    +0.333 A 
ATOM      9  O   UNL     1       3.318   5.192   4.645  0.00  0.00    -0.246 OA
ATOM     10  N   UNL     1       1.567   4.384   3.558  0.00  0.00    -0.264 N 
ATOM     11  C   UNL     1       1.006   3.994   2.396  0.00  0.00    +0.262 A 
ATOM     12  O   UNL     1      -0.138   3.575   2.378  0.00  0.00    -0.267 OA
ATOM     13  C   UNL     1       0.796   4.302   4.800  0.00  0.00    +0.157 C 
ATOM     14  C   UNL     1       4.934   5.443   2.518  0.00  0.00    +0.155 C 
ATOM     15  N   UNL     1       3.777   4.649   0.106  0.00  0.00    -0.303 N 
ATOM     16  H   UNL     1       4.741   4.734   0.166  0.00  0.00    +0.153 HD
ENDROOT
BRANCH   4  17
ATOM     17  C   UNL     1       1.108   2.131  -0.149  0.00  0.00    -0.034 A 
ATOM     18  C   UNL     1      -0.099   1.463  -0.241  0.00  0.00    +0.004 A 
ATOM     19  C   UNL     1      -0.123   0.082  -0.292  0.00  0.00    +0.001 A 
ATOM     20  C   UNL     1       1.060  -0.631  -0.252  0.00  0.00    +0.015 A 
ATOM     21  C   UNL     1       2.268   0.036  -0.160  0.00  0.00    +0.018 A 
ATOM     22  C   UNL     1       2.291   1.419  -0.109  0.00  0.00    +0.019 A 
ATOM     23 BR   UNL     1       3.887  -0.940  -0.105  0.00  0.00    -0.050 Br
ENDBRANCH   4  17
BRANCH   3  24
ATOM     24  C   UNL     1       1.324   4.163  -2.546  0.00  0.00    +0.338 C 
ATOM     25  O   UNL     1       1.903   4.680  -3.483  0.00  0.00    -0.245 OA
BRANCH  24  26
ATOM     26  O   UNL     1       0.115   3.594  -2.731  0.00  0.00    -0.461 OA
BRANCH  26  27
ATOM     27  C   UNL     1      -0.425   3.633  -4.053  0.00  0.00    +0.235 C 
BRANCH  27  28
ATOM     28  C   UNL     1      -1.791   2.943  -4.067  0.00  0.00    +0.020 C 
ATOM     29  C   UNL     1      -2.424   3.094  -5.451  0.00  0.00    +0.010 C 
ATOM     30  C   UNL     1      -1.615   1.458  -3.745  0.00  0.00    +0.010 C 
ENDBRANCH  27  28
ENDBRANCH  26  27
ENDBRANCH  24  26
ENDBRANCH   3  24
TORSDOF 5
