REMARK  Name = ZINC10333773
REMARK  9 active torsions:
REMARK  status: ('A' for Active; 'I' for Inactive)
REMARK    1  A    between atoms: C_1  and  N_53
REMARK    2  A    between atoms: C_2  and  N_53
REMARK    3  A    between atoms: C_3  and  C_5
REMARK    4  A    between atoms: C_3  and  C_20
REMARK    5  A    between atoms: C_3  and  N_53
REMARK    6  A    between atoms: C_5  and  N_6
REMARK    7  A    between atoms: C_7  and  C_9
REMARK    8  A    between atoms: N_11  and  C_12
REMARK    9  A    between atoms: C_12  and  C_13
REMARK                            x       y       z     vdW  Elec       q    Type
REMARK                         _______ _______ _______ _____ _____    ______ ____
ROOT
ATOM      1  C   UNL     1       3.567   2.602  -1.089  0.00  0.00    +0.094 C 
ENDROOT
BRANCH   1   2
ATOM      2  N   UNL     1       4.611   1.599  -0.864  0.00  0.00    -0.309 N 
ATOM      3  C   UNL     1       5.044   0.836  -1.887  0.00  0.00    +0.299 C 
ATOM      4  O   UNL     1       4.570   0.980  -2.995  0.00  0.00    -0.265 OA
ATOM      5  H   UNL     1       4.989   1.483   0.022  0.00  0.00    +0.149 HD
BRANCH   3   6
ATOM      6  C   UNL     1       6.109  -0.188  -1.657  0.00  0.00    +0.299 C 
ATOM      7  O   UNL     1       6.583  -0.332  -0.549  0.00  0.00    -0.265 OA
ATOM      8  N   UNL     1       6.542  -0.951  -2.680  0.00  0.00    -0.303 N 
ATOM      9  H   UNL     1       6.163  -0.836  -3.565  0.00  0.00    +0.149 HD
BRANCH   8  10
ATOM     10  C   UNL     1       7.586  -1.954  -2.454  0.00  0.00    +0.141 C 
BRANCH  10  11
ATOM     11  C   UNL     1       7.887  -2.665  -3.748  0.00  0.00    -0.012 A 
ATOM     12  C   UNL     1       7.346  -3.913  -3.994  0.00  0.00    +0.006 A 
ATOM     13  C   UNL     1       7.619  -4.564  -5.182  0.00  0.00    +0.000 A 
ATOM     14  C   UNL     1       8.441  -3.970  -6.123  0.00  0.00    +0.001 A 
ATOM     15  C   UNL     1       8.986  -2.725  -5.877  0.00  0.00    +0.020 A 
ATOM     16  C   UNL     1       8.710  -2.071  -4.689  0.00  0.00    +0.046 A 
ATOM     17 CL   UNL     1       9.395  -0.507  -4.379  0.00  0.00    -0.083 Cl
ENDBRANCH  10  11
ENDBRANCH   8  10
ENDBRANCH   3   6
ENDBRANCH   1   2
BRANCH   1  18
ATOM     18  C   UNL     1       3.382   3.439   0.178  0.00  0.00    -0.020 C 
BRANCH  18  19
ATOM     19  C   UNL     1       2.217   4.377  -0.005  0.00  0.00    -0.052 A 
ATOM     20  C   UNL     1       2.435   5.699  -0.249  0.00  0.00    +0.003 A 
ATOM     21  C   UNL     1       1.371   6.582  -0.421  0.00  0.00    +0.001 A 
ATOM     22  C   UNL     1       0.082   6.148  -0.352  0.00  0.00    +0.008 A 
ATOM     23  C   UNL     1      -0.182   4.790  -0.103  0.00  0.00    -0.018 A 
ATOM     24  C   UNL     1       0.901   3.893   0.073  0.00  0.00    -0.016 A 
ATOM     25  C   UNL     1       0.637   2.535   0.322  0.00  0.00    +0.009 A 
ATOM     26  C   UNL     1      -0.651   2.101   0.390  0.00  0.00    +0.001 A 
ATOM     27  C   UNL     1      -1.716   2.983   0.212  0.00  0.00    +0.001 A 
ATOM     28  C   UNL     1      -1.498   4.305  -0.025  0.00  0.00    +0.008 A 
ENDBRANCH  18  19
BRANCH  18  31
ATOM     29  C   UNL     1       5.601   3.411   1.147  0.00  0.00    -0.096 C 
ATOM     30  C   UNL     1       5.156   4.754  -0.818  0.00  0.00    -0.096 C 
ATOM     31  N   UNL     1       4.595   4.239   0.450  0.00  0.00    +0.382 N 
ATOM     32  H   UNL     1       4.343   5.034   1.050  0.00  0.00    -0.082 HD
ENDBRANCH  18  31
ENDBRANCH   1  18
TORSDOF 7
