REMARK  Name = ZINC38687066
REMARK  11 active torsions:
REMARK  status: ('A' for Active; 'I' for Inactive)
REMARK    1  A    between atoms: C_1  and  C_2
REMARK    2  A    between atoms: C_6  and  C_37
REMARK    3  A    between atoms: C_7  and  C_11
REMARK    4  A    between atoms: C_11  and  O_13
REMARK    5  A    between atoms: O_13  and  C_14
REMARK    6  A    between atoms: C_21  and  N_36
REMARK    7  A    between atoms: C_22  and  C_34
REMARK    8  A    between atoms: C_23  and  C_25
REMARK    9  A    between atoms: C_28  and  C_31
REMARK   10  A    between atoms: C_31  and  C_32
REMARK   11  A    between atoms: C_31  and  C_33
REMARK                            x       y       z     vdW  Elec       q    Type
REMARK                         _______ _______ _______ _____ _____    ______ ____
ROOT
ATOM      1  C   UNL     1       0.148  -6.654   4.393  0.00  0.00    +0.136 A 
ATOM      2  C   UNL     1       0.237  -7.805   3.623  0.00  0.00    +0.047 A 
ATOM      3  C   UNL     1       0.291  -9.042   4.234  0.00  0.00    +0.012 A 
ATOM      4  C   UNL     1       0.256  -9.140   5.614  0.00  0.00    +0.008 A 
ATOM      5  C   UNL     1       0.167  -7.994   6.388  0.00  0.00    +0.138 A 
ATOM      6  C   UNL     1       0.119  -6.748   5.775  0.00  0.00    +0.093 A 
ATOM      7  O   UNL     1       0.132  -8.069   7.741  0.00  0.00    -0.441 OA
ATOM      8  C   UNL     1       0.560  -9.181   8.362  0.00  0.00    +0.199 C 
ATOM      9  C   UNL     1       0.670 -10.366   7.715  0.00  0.00    +0.098 C 
ATOM     10  C   UNL     1       0.314 -10.498   6.261  0.00  0.00    +0.098 C 
ENDROOT
BRANCH  10  11
ATOM     11  C   UNL     1      -1.029 -11.170   6.135  0.00  0.00    -0.035 A 
ATOM     12  C   UNL     1      -2.151 -10.579   6.684  0.00  0.00    +0.005 A 
ATOM     13  C   UNL     1      -3.384 -11.195   6.568  0.00  0.00    +0.004 A 
ATOM     14  C   UNL     1      -3.493 -12.402   5.902  0.00  0.00    -0.045 A 
ATOM     15  C   UNL     1      -2.371 -12.992   5.352  0.00  0.00    +0.004 A 
ATOM     16  C   UNL     1      -1.139 -12.374   5.465  0.00  0.00    +0.005 A 
BRANCH  14  17
ATOM     17  C   UNL     1      -4.836 -13.074   5.777  0.00  0.00    +0.013 C 
ATOM     18  C   UNL     1      -5.190 -13.233   4.297  0.00  0.00    +0.012 C 
ATOM     19  C   UNL     1      -4.781 -14.452   6.439  0.00  0.00    +0.012 C 
ENDBRANCH  14  17
ENDBRANCH  10  11
BRANCH   8  20
ATOM     20  N   UNL     1       0.897  -9.114   9.691  0.00  0.00    -0.328 N 
ATOM     21  H   UNL     1       0.825  -8.272  10.168  0.00  0.00    +0.145 HD
ATOM     22  H   UNL     1       1.209  -9.908  10.153  0.00  0.00    +0.145 HD
ENDBRANCH   8  20
BRANCH   9  23
ATOM     23  C   UNL     1       1.134 -11.515   8.431  0.00  0.00    +0.101 C 
ATOM     24  N   UNL     1       1.502 -12.428   9.000  0.00  0.00    -0.191 NA
ENDBRANCH   9  23
BRANCH   1  25
ATOM     25  O   UNL     1       0.095  -5.436   3.793  0.00  0.00    -0.420 OA
BRANCH  25  26
ATOM     26  C   UNL     1       1.216  -4.685   3.783  0.00  0.00    +0.380 C 
ATOM     27  O   UNL     1       2.206  -5.064   4.378  0.00  0.00    -0.241 OA
BRANCH  26  34
ATOM     28  C   UNL     1      -0.275   1.334  -0.269  0.00  0.00    +0.044 C 
ATOM     29  C   UNL     1       0.479   0.349   0.587  0.00  0.00    -0.047 A 
ATOM     30  C   UNL     1       1.797   0.610   0.937  0.00  0.00    +0.004 A 
ATOM     31  C   UNL     1       2.495  -0.271   1.712  0.00  0.00    +0.012 A 
ATOM     32  C   UNL     1       1.877  -1.443   2.157  0.00  0.00    +0.024 A 
ATOM     33  C   UNL     1       2.308  -2.575   2.976  0.00  0.00    +0.010 A 
ATOM     34  C   UNL     1       1.240  -3.411   3.055  0.00  0.00    +0.216 A 
ATOM     35  O   UNL     1       0.204  -2.893   2.362  0.00  0.00    -0.448 OA
ATOM     36  C   UNL     1       0.541  -1.713   1.806  0.00  0.00    +0.137 A 
ATOM     37  C   UNL     1      -0.151  -0.798   1.020  0.00  0.00    +0.050 A 
ATOM     38  C   UNL     1       3.663  -2.774   3.605  0.00  0.00    +0.048 C 
ENDBRANCH  26  34
ENDBRANCH  25  26
ENDBRANCH   1  25
TORSDOF 7
