REMARK  Name = ZINC04372897
REMARK  7 active torsions:
REMARK  status: ('A' for Active; 'I' for Inactive)
REMARK    1  A    between atoms: C_3  and  C_8
REMARK    2  A    between atoms: C_8  and  O_10
REMARK    3  A    between atoms: O_10  and  C_11
REMARK    4  A    between atoms: C_14  and  C_17
REMARK    5  A    between atoms: N_18  and  N_19
REMARK    6  A    between atoms: N_19  and  C_20
REMARK    7  A    between atoms: C_20  and  N_22
REMARK                            x       y       z     vdW  Elec       q    Type
REMARK                         _______ _______ _______ _____ _____    ______ ____
ROOT
ATOM      1  C   UNL     1      -1.092   7.331   0.017  0.00  0.00    +0.132 A 
ATOM      2  C   UNL     1       0.181   7.882  -0.061  0.00  0.00    +0.047 A 
ATOM      3  C   UNL     1       0.340   9.250  -0.096  0.00  0.00    +0.013 A 
ATOM      4  C   UNL     1      -0.780  10.084  -0.042  0.00  0.00    -0.005 A 
ATOM      5  C   UNL     1      -2.058   9.525   0.042  0.00  0.00    +0.013 A 
ATOM      6  C   UNL     1      -2.208   8.155   0.071  0.00  0.00    +0.047 A 
ENDROOT
BRANCH   4   7
ATOM      7  C   UNL     1      -0.615  11.548  -0.074  0.00  0.00    +0.138 C 
ATOM      8  N   UNL     1       0.573  12.065  -0.151  0.00  0.00    -0.188 NA
BRANCH   8   9
ATOM      9  N   UNL     1       0.731  13.457  -0.182  0.00  0.00    -0.219 N 
ATOM     10  H   UNL     1      -0.048  14.034  -0.144  0.00  0.00    +0.176 HD
BRANCH   9  11
ATOM     11  C   UNL     1       1.964  13.994  -0.262  0.00  0.00    +0.147 C 
ATOM     12  S   UNL     1       2.157  15.695  -0.299  0.00  0.00    -0.017 S 
BRANCH  11  13
ATOM     13  N   UNL     1       3.046  13.192  -0.314  0.00  0.00    -0.339 N 
ATOM     14  H   UNL     1       2.937  12.229  -0.293  0.00  0.00    +0.144 HD
ATOM     15  H   UNL     1       3.934  13.579  -0.372  0.00  0.00    +0.144 HD
ENDBRANCH  11  13
ENDBRANCH   9  11
ENDBRANCH   8   9
ENDBRANCH   4   7
BRANCH   1  16
ATOM     16  O   UNL     1      -1.244   5.981   0.046  0.00  0.00    -0.422 OA
BRANCH  16  17
ATOM     17  C   UNL     1      -1.648   5.387  -1.094  0.00  0.00    +0.344 C 
ATOM     18  O   UNL     1      -1.944   6.062  -2.060  0.00  0.00    -0.245 OA
BRANCH  17  21
ATOM     19  C   UNL     1      -2.226   1.919  -2.413  0.00  0.00    +0.002 A 
ATOM     20  C   UNL     1      -2.150   3.295  -2.349  0.00  0.00    +0.015 A 
ATOM     21  C   UNL     1      -1.732   3.914  -1.170  0.00  0.00    +0.060 A 
ATOM     22  C   UNL     1      -1.393   3.134  -0.061  0.00  0.00    +0.030 A 
ATOM     23  C   UNL     1      -1.479   1.759  -0.137  0.00  0.00    +0.019 A 
ATOM     24  C   UNL     1      -1.889   1.152  -1.312  0.00  0.00    +0.015 A 
ATOM     25 BR   UNL     1      -1.029   0.701   1.364  0.00  0.00    -0.050 Br
ENDBRANCH  17  21
ENDBRANCH  16  17
ENDBRANCH   1  16
TORSDOF 7
