REMARK  Name = ZINC64417478
REMARK  8 active torsions:
REMARK  status: ('A' for Active; 'I' for Inactive)
REMARK    1  A    between atoms: C_1  and  C_2
REMARK    2  A    between atoms: C_2  and  C_3
REMARK    3  A    between atoms: C_2  and  N_4
REMARK    4  A    between atoms: C_11  and  N_15
REMARK    5  A    between atoms: C_16  and  C_18
REMARK    6  A    between atoms: N_20  and  C_21
REMARK    7  A    between atoms: C_21  and  C_22
REMARK    8  A    between atoms: C_22  and  C_23
REMARK                            x       y       z     vdW  Elec       q    Type
REMARK                         _______ _______ _______ _____ _____    ______ ____
ROOT
ATOM      1  N   UNL     1       3.419  -1.850   2.573  0.00  0.00    -0.292 N 
ATOM      2  C   UNL     1       4.700  -1.462   2.726  0.00  0.00    +0.300 C 
ATOM      3  O   UNL     1       4.955  -0.314   3.028  0.00  0.00    -0.265 OA
ATOM      4  H   UNL     1       3.216  -2.768   2.332  0.00  0.00    +0.150 HD
ENDROOT
BRANCH   1  12
ATOM      5  N   UNL     1       0.711  -0.489   1.189  0.00  0.00    -0.267 N 
ATOM      6  C   UNL     1       0.134  -1.312   2.157  0.00  0.00    +0.042 A 
ATOM      7  C   UNL     1      -1.150  -1.846   2.251  0.00  0.00    +0.024 A 
ATOM      8  C   UNL     1      -1.490  -2.647   3.322  0.00  0.00    +0.002 A 
ATOM      9  C   UNL     1      -0.563  -2.926   4.309  0.00  0.00    +0.000 A 
ATOM     10  C   UNL     1       0.714  -2.400   4.222  0.00  0.00    +0.008 A 
ATOM     11  C   UNL     1       1.056  -1.600   3.154  0.00  0.00    +0.003 A 
ATOM     12  C   UNL     1       2.333  -0.887   2.771  0.00  0.00    +0.192 C 
ATOM     13  C   UNL     1       1.992  -0.198   1.468  0.00  0.00    +0.245 C 
ATOM     14  O   UNL     1       2.736   0.490   0.801  0.00  0.00    -0.273 OA
BRANCH   5  16
ATOM     15  C   UNL     1      -0.019   1.526   0.010  0.00  0.00    +0.028 C 
ATOM     16  C   UNL     1       0.002  -0.004   0.002  0.00  0.00    +0.075 C 
ATOM     17  C   UNL     1       0.718  -0.497  -1.257  0.00  0.00    +0.028 C 
ENDBRANCH   5  16
ENDBRANCH   1  12
BRANCH   2  18
ATOM     18  C   UNL     1       5.808  -2.444   2.523  0.00  0.00    +0.299 C 
ATOM     19  O   UNL     1       5.554  -3.592   2.221  0.00  0.00    -0.265 OA
ATOM     20  N   UNL     1       7.090  -2.056   2.676  0.00  0.00    -0.307 N 
ATOM     21  H   UNL     1       7.293  -1.139   2.917  0.00  0.00    +0.149 HD
BRANCH  20  22
ATOM     22  C   UNL     1       8.176  -3.019   2.477  0.00  0.00    +0.109 C 
BRANCH  22  23
ATOM     23  C   UNL     1       9.520  -2.326   2.710  0.00  0.00    +0.052 C 
BRANCH  23  24
ATOM     24  C   UNL     1      10.637  -3.317   2.506  0.00  0.00    -0.040 C 
ATOM     25  C   UNL     1      11.351  -3.516   1.374  0.00  0.00    +0.002 A 
ATOM     26  C   UNL     1      11.302  -2.894   0.046  0.00  0.00    +0.048 A 
ATOM     27  C   UNL     1      12.165  -3.314  -0.909  0.00  0.00    +0.124 A 
ATOM     28  C   UNL     1      13.103  -4.329  -0.659  0.00  0.00    +0.040 A 
ATOM     29  C   UNL     1      13.207  -4.947   0.536  0.00  0.00    +0.029 A 
ATOM     30  C   UNL     1      12.349  -4.583   1.611  0.00  0.00    +0.043 A 
ATOM     31  N   UNL     1      12.257  -5.027   2.841  0.00  0.00    -0.380 N 
ATOM     32  C   UNL     1      11.192  -4.285   3.526  0.00  0.00    +0.144 C 
ATOM     33  F   UNL     1      12.122  -2.744  -2.133  0.00  0.00    -0.205 F 
ATOM     34  H   UNL     1      12.803  -5.725   3.234  0.00  0.00    +0.160 HD
ENDBRANCH  23  24
ENDBRANCH  22  23
ENDBRANCH  20  22
ENDBRANCH   2  18
TORSDOF 6
