REMARK  Name = ZINC59813943
REMARK  6 active torsions:
REMARK  status: ('A' for Active; 'I' for Inactive)
REMARK    1  A    between atoms: C_1  and  C_2
REMARK    2  A    between atoms: C_9  and  C_11
REMARK    3  A    between atoms: C_11  and  S_12
REMARK    4  A    between atoms: S_12  and  C_13
REMARK    5  A    between atoms: N_18  and  N_19
REMARK    6  A    between atoms: C_20  and  C_21
REMARK                            x       y       z     vdW  Elec       q    Type
REMARK                         _______ _______ _______ _____ _____    ______ ____
ROOT
ATOM      1  C   UNL     1       2.969  -6.711   1.624  0.00  0.00    +0.211 A 
ATOM      2  N   UNL     1       3.902  -7.663   1.730  0.00  0.00    -0.186 NA
ATOM      3  C   UNL     1       3.328  -8.848   1.729  0.00  0.00    +0.232 A 
ATOM      4  N   UNL     1       1.994  -8.665   1.620  0.00  0.00    -0.245 N 
ATOM      5  N   UNL     1       1.788  -7.277   1.560  0.00  0.00    -0.144 NA
ATOM      6  N   UNL     1       3.975 -10.065   1.823  0.00  0.00    -0.205 N 
ATOM      7  H   UNL     1       3.463 -10.889   1.813  0.00  0.00    +0.177 HD
ATOM      8  H   UNL     1       1.313  -9.355   1.593  0.00  0.00    +0.192 HD
ENDROOT
BRANCH   6   9
ATOM      9  N   UNL     1       5.371 -10.109   1.931  0.00  0.00    -0.187 NA
ATOM     10  C   UNL     1       5.980 -11.253   2.019  0.00  0.00    +0.140 C 
BRANCH  10  11
ATOM     11  C   UNL     1       7.448 -11.300   2.133  0.00  0.00    +0.020 A 
ATOM     12  C   UNL     1       8.221 -12.414   2.226  0.00  0.00    +0.093 A 
ATOM     13  N   UNL     1       9.534 -12.057   2.316  0.00  0.00    -0.360 N 
ATOM     14  H   UNL     1      10.275 -12.679   2.391  0.00  0.00    +0.165 HD
ATOM     15  C   UNL     1       9.658 -10.684   2.284  0.00  0.00    +0.047 A 
ATOM     16  C   UNL     1       8.365 -10.147   2.162  0.00  0.00    +0.008 A 
ATOM     17  C   UNL     1       8.186  -8.767   2.098  0.00  0.00    +0.010 A 
ATOM     18  C   UNL     1       9.282  -7.934   2.152  0.00  0.00    +0.001 A 
ATOM     19  C   UNL     1      10.559  -8.463   2.269  0.00  0.00    +0.002 A 
ATOM     20  C   UNL     1      10.751  -9.825   2.342  0.00  0.00    +0.026 A 
ENDBRANCH  10  11
ENDBRANCH   6   9
BRANCH   1  21
ATOM     21  S   UNL     1       3.277  -4.976   1.585  0.00  0.00    -0.075 S 
BRANCH  21  22
ATOM     22  C   UNL     1       1.625  -4.241   1.440  0.00  0.00    +0.173 C 
BRANCH  22  30
ATOM     23  C   UNL     1      -0.019   1.526   0.010  0.00  0.00    +0.009 C 
ATOM     24  C   UNL     1       0.002  -0.004   0.002  0.00  0.00    +0.003 C 
ATOM     25  C   UNL     1      -1.433  -0.534   0.015  0.00  0.00    +0.006 C 
ATOM     26  C   UNL     1      -1.414  -2.064  -0.027  0.00  0.00    +0.019 C 
ATOM     27  C   UNL     1      -0.692  -2.596   1.215  0.00  0.00    +0.108 C 
ATOM     28  N   UNL     1       0.639  -1.977   1.288  0.00  0.00    -0.301 N 
ATOM     29  C   UNL     1       0.742  -0.512   1.244  0.00  0.00    +0.111 C 
ATOM     30  C   UNL     1       1.746  -2.740   1.395  0.00  0.00    +0.226 C 
ATOM     31  O   UNL     1       2.838  -2.217   1.455  0.00  0.00    -0.275 OA
ENDBRANCH  22  30
ENDBRANCH  21  22
ENDBRANCH   1  21
TORSDOF 5
