REMARK  Name = ZINC09486957
REMARK  6 active torsions:
REMARK  status: ('A' for Active; 'I' for Inactive)
REMARK    1  A    between atoms: C_1  and  O_2
REMARK    2  A    between atoms: O_2  and  C_3
REMARK    3  A    between atoms: C_6  and  C_9
REMARK    4  A    between atoms: C_24  and  S_36
REMARK    5  A    between atoms: C_27  and  C_29
REMARK    6  A    between atoms: S_36  and  C_37
REMARK                            x       y       z     vdW  Elec       q    Type
REMARK                         _______ _______ _______ _____ _____    ______ ____
ROOT
ATOM      1  C   UNL     1      -4.913  -2.674   0.077  0.00  0.00    +0.234 C 
ATOM      2  C   UNL     1      -5.275  -3.090   1.472  0.00  0.00    +0.025 C 
ATOM      3  C   UNL     1      -4.905  -4.297   1.948  0.00  0.00    +0.058 C 
ATOM      4  C   UNL     1      -4.143  -5.188   1.036  0.00  0.00    +0.042 A 
ATOM      5  C   UNL     1      -3.444  -6.288   1.513  0.00  0.00    +0.033 A 
ATOM      6  C   UNL     1      -2.746  -7.089   0.627  0.00  0.00    +0.042 A 
ATOM      7  C   UNL     1      -2.745  -6.796  -0.726  0.00  0.00    +0.023 A 
ATOM      8  C   UNL     1      -3.440  -5.702  -1.208  0.00  0.00    +0.048 A 
ATOM      9  C   UNL     1      -4.143  -4.892  -0.333  0.00  0.00    +0.131 A 
ATOM     10  O   UNL     1      -4.838  -3.818  -0.777  0.00  0.00    -0.479 OA
ATOM     11 CL   UNL     1      -1.869  -8.467   1.215  0.00  0.00    -0.084 Cl
ATOM     12  N   UNL     1      -5.215  -4.689   3.208  0.00  0.00    -0.326 N 
ATOM     13  C   UNL     1      -5.896  -3.958   4.065  0.00  0.00    +0.216 C 
ATOM     14  N   UNL     1      -6.284  -4.196   5.331  0.00  0.00    -0.192 NA
ATOM     15  C   UNL     1      -6.956  -3.166   5.805  0.00  0.00    +0.174 C 
ATOM     16  N   UNL     1      -7.029  -2.196   4.840  0.00  0.00    -0.239 N 
ATOM     17  N   UNL     1      -6.351  -2.699   3.727  0.00  0.00    -0.209 N 
ATOM     18  C   UNL     1      -6.062  -2.176   2.385  0.00  0.00    +0.159 C 
ATOM     19  H   UNL     1      -4.917  -5.565   3.496  0.00  0.00    +0.169 HD
ATOM     20  H   UNL     1      -7.465  -1.333   4.914  0.00  0.00    +0.172 HD
ENDROOT
BRANCH  18  21
ATOM     21  C   UNL     1      -5.293  -0.889   2.537  0.00  0.00    -0.021 A 
ATOM     22  C   UNL     1      -4.140  -0.859   3.299  0.00  0.00    +0.008 A 
ATOM     23  C   UNL     1      -3.434   0.321   3.439  0.00  0.00    +0.038 A 
ATOM     24  C   UNL     1      -3.882   1.473   2.816  0.00  0.00    +0.123 A 
ATOM     25  C   UNL     1      -5.038   1.442   2.053  0.00  0.00    +0.038 A 
ATOM     26  C   UNL     1      -5.739   0.260   1.911  0.00  0.00    +0.008 A 
ATOM     27  F   UNL     1      -3.193   2.627   2.952  0.00  0.00    -0.205 F 
ENDBRANCH  18  21
BRANCH   1  31
ATOM     28  C   UNL     1      -1.126  -0.696   0.128  0.00  0.00    +0.120 A 
ATOM     29  C   UNL     1      -1.196  -2.068   0.317  0.00  0.00    +0.046 A 
ATOM     30  C   UNL     1      -2.421  -2.706   0.301  0.00  0.00    +0.011 A 
ATOM     31  C   UNL     1      -3.578  -1.977   0.095  0.00  0.00    -0.003 A 
ATOM     32  C   UNL     1      -3.511  -0.609  -0.095  0.00  0.00    +0.011 A 
ATOM     33  C   UNL     1      -2.289   0.034  -0.072  0.00  0.00    +0.046 A 
BRANCH  28  35
ATOM     34  C   UNL     1       1.233  -0.881   0.356  0.00  0.00    +0.277 C 
ATOM     35  O   UNL     1       0.078  -0.067   0.145  0.00  0.00    -0.495 OA
ENDBRANCH  28  35
ENDBRANCH   1  31
BRANCH  15  36
ATOM     36  S   UNL     1      -7.649  -3.053   7.421  0.00  0.00    -0.092 S 
ATOM     37  C   UNL     1      -7.212  -4.634   8.197  0.00  0.00    +0.093 C 
ENDBRANCH  15  36
TORSDOF 4
