REMARK  Name = ZINC21220866
REMARK  7 active torsions:
REMARK  status: ('A' for Active; 'I' for Inactive)
REMARK    1  A    between atoms: C_1  and  C_2
REMARK    2  A    between atoms: C_2  and  O_3
REMARK    3  A    between atoms: O_3  and  C_4
REMARK    4  A    between atoms: C_5  and  C_12
REMARK    5  A    between atoms: C_9  and  O_10
REMARK    6  A    between atoms: O_10  and  C_11
REMARK    7  A    between atoms: C_17  and  C_22
REMARK                            x       y       z     vdW  Elec       q    Type
REMARK                         _______ _______ _______ _____ _____    ______ ____
ROOT
ATOM      1  C   UNL     1       1.206  -0.892   0.002  0.00  0.00    +0.140 C 
ATOM      2  C   UNL     1      -0.043  -0.044   0.016  0.00  0.00    +0.037 C 
ATOM      3  C   UNL     1      -0.085   1.300   0.022  0.00  0.00    +0.017 C 
ATOM      4  C   UNL     1      -1.417   2.029   0.028  0.00  0.00    +0.059 C 
ATOM      5  C   UNL     1      -2.455   1.212   0.796  0.00  0.00    +0.032 C 
ATOM      6  C   UNL     1      -2.594  -0.144   0.094  0.00  0.00    +0.088 C 
ATOM      7  C   UNL     1      -1.244  -0.793   0.037  0.00  0.00    +0.163 C 
ATOM      8  O   UNL     1      -1.178  -2.006   0.007  0.00  0.00    -0.292 OA
ATOM      9  N   UNL     1       1.007   2.106   0.010  0.00  0.00    -0.316 N 
ATOM     10  C   UNL     1       2.126   1.944   0.818  0.00  0.00    +0.052 A 
ATOM     11  C   UNL     1       2.517   2.899   1.740  0.00  0.00    +0.025 A 
ATOM     12  C   UNL     1       3.705   2.730   2.430  0.00  0.00    +0.002 A 
ATOM     13  C   UNL     1       4.493   1.616   2.201  0.00  0.00    +0.002 A 
ATOM     14  C   UNL     1       4.092   0.649   1.296  0.00  0.00    +0.025 A 
ATOM     15  C   UNL     1       2.894   0.807   0.617  0.00  0.00    +0.049 A 
ATOM     16  N   UNL     1       2.426  -0.162  -0.270  0.00  0.00    -0.331 N 
ATOM     17  H   UNL     1       1.050   2.963  -0.678  0.00  0.00    +0.152 HD
ATOM     18  H   UNL     1       2.997  -0.368  -1.187  0.00  0.00    +0.147 HD
ENDROOT
BRANCH   5  19
ATOM     19  C   UNL     1      -3.780   1.930   0.787  0.00  0.00    -0.043 A 
ATOM     20  C   UNL     1      -4.386   2.247  -0.414  0.00  0.00    +0.005 A 
ATOM     21  C   UNL     1      -5.604   2.900  -0.422  0.00  0.00    +0.020 A 
ATOM     22  C   UNL     1      -6.211   3.247   0.771  0.00  0.00    +0.041 A 
ATOM     23  C   UNL     1      -5.601   2.934   1.973  0.00  0.00    +0.020 A 
ATOM     24  C   UNL     1      -4.386   2.276   1.980  0.00  0.00    +0.005 A 
ATOM     25 CL   UNL     1      -7.738   4.073   0.761  0.00  0.00    -0.084 Cl
ENDBRANCH   5  19
BRANCH   1  27
ATOM     26  C   UNL     1       2.125  -2.701   1.473  0.00  0.00    +0.167 A 
ATOM     27  C   UNL     1       1.341  -1.565   1.343  0.00  0.00    +0.023 A 
ATOM     28  C   UNL     1       0.679  -1.054   2.443  0.00  0.00    +0.009 A 
ATOM     29  C   UNL     1       0.801  -1.669   3.675  0.00  0.00    +0.004 A 
ATOM     30  C   UNL     1       1.586  -2.798   3.813  0.00  0.00    +0.049 A 
ATOM     31  C   UNL     1       2.253  -3.316   2.714  0.00  0.00    +0.162 A 
BRANCH  31  32
ATOM     32  O   UNL     1       3.025  -4.428   2.847  0.00  0.00    -0.491 OA
ATOM     33  C   UNL     1       3.105  -5.010   4.150  0.00  0.00    +0.277 C 
ENDBRANCH  31  32
BRANCH  26  34
ATOM     34  O   UNL     1       2.773  -3.208   0.390  0.00  0.00    -0.488 OA
BRANCH  34  36
ATOM     35  C   UNL     1       4.659  -3.394  -1.110  0.00  0.00    +0.048 C 
ATOM     36  C   UNL     1       4.137  -2.823   0.210  0.00  0.00    +0.226 C 
ENDBRANCH  34  36
ENDBRANCH  26  34
ENDBRANCH   1  27
TORSDOF 5
