REMARK  Name = ZINC35316554
REMARK  8 active torsions:
REMARK  status: ('A' for Active; 'I' for Inactive)
REMARK    1  A    between atoms: C_1  and  C_2
REMARK    2  A    between atoms: C_5  and  C_25
REMARK    3  A    between atoms: C_7  and  N_8
REMARK    4  A    between atoms: C_9  and  C_11
REMARK    5  A    between atoms: C_11  and  C_12
REMARK    6  A    between atoms: C_13  and  C_24
REMARK    7  A    between atoms: C_19  and  C_23
REMARK    8  A    between atoms: C_21  and  C_22
REMARK                            x       y       z     vdW  Elec       q    Type
REMARK                         _______ _______ _______ _____ _____    ______ ____
ROOT
ATOM      1  N   UNL     1       0.025  -0.009   2.417  0.00  0.00    -0.285 N 
ATOM      2  C   UNL     1      -0.056  -0.685   3.580  0.00  0.00    +0.222 C 
ATOM      3  O   UNL     1      -0.040  -1.897   3.579  0.00  0.00    -0.275 OA
ATOM      4  H   UNL     1       0.078   0.960   2.422  0.00  0.00    +0.155 HD
ENDROOT
BRANCH   1  11
ATOM      5  C   UNL     1      -1.266   1.183   0.183  0.00  0.00    +0.045 C 
ATOM      6  C   UNL     1      -0.586  -0.158   0.085  0.00  0.00    -0.029 A 
ATOM      7  C   UNL     1      -0.575  -0.839  -1.117  0.00  0.00    +0.006 A 
ATOM      8  C   UNL     1       0.047  -2.068  -1.213  0.00  0.00    +0.010 A 
ATOM      9  C   UNL     1       0.665  -2.626  -0.096  0.00  0.00    +0.004 A 
ATOM     10  C   UNL     1       0.655  -1.941   1.116  0.00  0.00    +0.033 A 
ATOM     11  C   UNL     1       0.033  -0.704   1.203  0.00  0.00    +0.037 A 
BRANCH   9  12
ATOM     12  C   UNL     1       1.333  -3.948  -0.197  0.00  0.00    +0.102 A 
ATOM     13  C   UNL     1       1.467  -4.619  -1.383  0.00  0.00    +0.097 A 
ATOM     14  S   UNL     1       2.277  -6.011  -0.905  0.00  0.00    +0.029 S 
ATOM     15  N   UNL     1       2.411  -5.715   0.679  0.00  0.00    -0.110 NA
ATOM     16  N   UNL     1       1.852  -4.569   0.850  0.00  0.00    -0.141 NA
ENDBRANCH   9  12
ENDBRANCH   1  11
BRANCH   2  17
ATOM     17  C   UNL     1      -0.168   0.066   4.882  0.00  0.00    +0.133 C 
BRANCH  17  18
ATOM     18  C   UNL     1      -0.243  -0.915   6.023  0.00  0.00    -0.011 A 
ATOM     19  C   UNL     1      -1.359  -1.454   6.540  0.00  0.00    +0.018 A 
ATOM     20  N   UNL     1      -1.036  -2.301   7.565  0.00  0.00    -0.358 N 
ATOM     21  H   UNL     1      -1.675  -2.807   8.092  0.00  0.00    +0.166 HD
ATOM     22  C   UNL     1       0.330  -2.329   7.737  0.00  0.00    +0.050 A 
ATOM     23  C   UNL     1       0.887  -1.467   6.774  0.00  0.00    +0.004 A 
ATOM     24  C   UNL     1       2.271  -1.299   6.707  0.00  0.00    +0.013 A 
ATOM     25  C   UNL     1       3.079  -1.977   7.576  0.00  0.00    -0.050 A 
ATOM     26  C   UNL     1       2.535  -2.831   8.525  0.00  0.00    +0.008 A 
ATOM     27  C   UNL     1       1.171  -3.005   8.614  0.00  0.00    -0.026 A 
ATOM     28  C   UNL     1       0.594  -3.938   9.648  0.00  0.00    +0.046 C 
ATOM     29  C   UNL     1       4.573  -1.795   7.504  0.00  0.00    +0.044 C 
ATOM     30  C   UNL     1      -2.760  -1.168   6.063  0.00  0.00    +0.063 C 
ENDBRANCH  17  18
ENDBRANCH   2  17
TORSDOF 4
