REMARK  Name = ZINC21706214
REMARK  8 active torsions:
REMARK  status: ('A' for Active; 'I' for Inactive)
REMARK    1  A    between atoms: C_1  and  C_2
REMARK    2  A    between atoms: C_2  and  C_3
REMARK    3  A    between atoms: C_3  and  C_28
REMARK    4  A    between atoms: N_6  and  C_10
REMARK    5  A    between atoms: C_10  and  C_11
REMARK    6  A    between atoms: N_13  and  C_14
REMARK    7  A    between atoms: C_17  and  N_20
REMARK    8  A    between atoms: N_21  and  C_22
REMARK                            x       y       z     vdW  Elec       q    Type
REMARK                         _______ _______ _______ _____ _____    ______ ____
ROOT
ATOM      1  C   UNL     1       2.506   1.595  -0.029  0.00  0.00    +0.214 C 
ENDROOT
BRANCH   1   5
ATOM      2  C   UNL     1      -0.379   3.935   0.017  0.00  0.00    +0.138 C 
ATOM      3  C   UNL     1       1.110   3.652   0.038  0.00  0.00    +0.251 C 
ATOM      4  O   UNL     1       2.009   4.463   0.099  0.00  0.00    -0.272 OA
ATOM      5  N   UNL     1       1.227   2.311  -0.025  0.00  0.00    -0.215 N 
ATOM      6  C   UNL     1       0.031   1.713  -0.083  0.00  0.00    +0.310 C 
ATOM      7  O   UNL     1      -0.120   0.509  -0.145  0.00  0.00    -0.252 OA
ATOM      8  N   UNL     1      -0.985   2.595  -0.069  0.00  0.00    -0.281 N 
ATOM      9  H   UNL     1      -2.079   2.487  -0.108  0.00  0.00    +0.152 HD
BRANCH   2  10
ATOM     10  C   UNL     1      -0.745   4.759  -1.190  0.00  0.00    -0.015 A 
ATOM     11  C   UNL     1      -0.750   6.139  -1.109  0.00  0.00    +0.009 A 
ATOM     12  C   UNL     1      -1.080   6.896  -2.217  0.00  0.00    +0.039 A 
ATOM     13  C   UNL     1      -1.416   6.271  -3.406  0.00  0.00    +0.123 A 
ATOM     14  C   UNL     1      -1.416   4.889  -3.485  0.00  0.00    +0.039 A 
ATOM     15  C   UNL     1      -1.080   4.134  -2.377  0.00  0.00    +0.009 A 
ATOM     16  F   UNL     1      -1.745   7.010  -4.489  0.00  0.00    -0.205 F 
ENDBRANCH   2  10
BRANCH   2  18
ATOM     17  C   UNL     1      -0.476   3.764   2.508  0.00  0.00    +0.007 C 
ATOM     18  C   UNL     1      -0.810   4.645   1.302  0.00  0.00    +0.037 C 
ENDBRANCH   2  18
ENDBRANCH   1   5
BRANCH   1  19
ATOM     19  C   UNL     1       2.978   1.419  -1.449  0.00  0.00    +0.235 C 
ATOM     20  O   UNL     1       2.313   1.849  -2.367  0.00  0.00    -0.274 OA
ATOM     21  N   UNL     1       4.140   0.784  -1.699  0.00  0.00    -0.284 N 
ATOM     22  H   UNL     1       4.786   0.471  -0.865  0.00  0.00    +0.155 HD
BRANCH  21  23
ATOM     23  C   UNL     1       4.525   0.524  -3.015  0.00  0.00    +0.034 A 
ATOM     24  C   UNL     1       3.559   0.244  -3.977  0.00  0.00    +0.025 A 
ATOM     25  C   UNL     1       3.934  -0.008  -5.278  0.00  0.00    +0.031 A 
ATOM     26  C   UNL     1       5.288   0.007  -5.629  0.00  0.00    +0.086 A 
ATOM     27  C   UNL     1       6.255   0.283  -4.658  0.00  0.00    +0.031 A 
ATOM     28  C   UNL     1       5.872   0.540  -3.361  0.00  0.00    +0.025 A 
BRANCH  26  29
ATOM     29  N   UNL     1       5.663  -0.248  -6.916  0.00  0.00    -0.149 NA
ATOM     30  N   UNL     1       4.769  -0.503  -7.811  0.00  0.00    -0.149 NA
BRANCH  30  31
ATOM     31  C   UNL     1       5.146  -0.758  -9.100  0.00  0.00    +0.086 A 
ATOM     32  C   UNL     1       6.498  -0.739  -9.454  0.00  0.00    +0.029 A 
ATOM     33  C   UNL     1       6.870  -1.003 -10.755  0.00  0.00    +0.002 A 
ATOM     34  C   UNL     1       5.908  -1.276 -11.712  0.00  0.00    +0.000 A 
ATOM     35  C   UNL     1       4.567  -1.291 -11.370  0.00  0.00    +0.002 A 
ATOM     36  C   UNL     1       4.180  -1.035 -10.072  0.00  0.00    +0.029 A 
ENDBRANCH  30  31
ENDBRANCH  26  29
ENDBRANCH  21  23
ENDBRANCH   1  19
TORSDOF 7
