REMARK  Name = ZINC67373902
REMARK  4 active torsions:
REMARK  status: ('A' for Active; 'I' for Inactive)
REMARK    1  A    between atoms: C_6  and  C_7
REMARK    2  A    between atoms: C_7  and  C_9
REMARK    3  A    between atoms: C_7  and  O_24
REMARK    4  A    between atoms: N_12  and  C_15
REMARK                            x       y       z     vdW  Elec       q    Type
REMARK                         _______ _______ _______ _____ _____    ______ ____
ROOT
ATOM      1  C   UNL     1      -1.617  -1.243  -1.409  0.00  0.00    +0.025 C 
ATOM      2  C   UNL     1      -0.553  -2.241  -1.872  0.00  0.00    +0.025 C 
ATOM      3  C   UNL     1      -0.862  -2.682  -3.307  0.00  0.00    +0.105 C 
ATOM      4  N   UNL     1      -2.236  -3.198  -3.357  0.00  0.00    -0.326 N 
ATOM      5  C   UNL     1      -3.327  -2.354  -2.852  0.00  0.00    +0.105 C 
ATOM      6  C   UNL     1      -2.991  -1.917  -1.423  0.00  0.00    +0.025 C 
ENDROOT
BRANCH   4   7
ATOM      7  C   UNL     1      -2.503  -4.478  -3.881  0.00  0.00    +0.099 A 
ATOM      8  C   UNL     1      -2.533  -5.638  -3.178  0.00  0.00    +0.130 A 
ATOM      9  N   UNL     1      -2.825  -6.639  -4.051  0.00  0.00    -0.281 N 
ATOM     10  H   UNL     1      -2.913  -7.580  -3.833  0.00  0.00    +0.188 HD
ATOM     11  N   UNL     1      -2.976  -6.070  -5.322  0.00  0.00    -0.147 NA
ATOM     12  C   UNL     1      -2.790  -4.779  -5.220  0.00  0.00    +0.256 A 
ATOM     13  N   UNL     1      -2.865  -3.802  -6.330  0.00  0.00    +0.079 N 
ATOM     14  O   UNL     1      -2.671  -2.628  -6.117  0.00  0.00    -0.124 OA
ATOM     15  O   UNL     1      -3.122  -4.179  -7.450  0.00  0.00    -0.124 OA
ENDBRANCH   4   7
BRANCH   1  16
ATOM     16  C   UNL     1      -1.293  -0.775   0.011  0.00  0.00    +0.148 C 
BRANCH  16  22
ATOM     17  C   UNL     1      -0.017   1.378   0.010  0.00  0.00    +0.007 A 
ATOM     18  C   UNL     1       1.171   2.086   0.002  0.00  0.00    +0.020 A 
ATOM     19  C   UNL     1       2.378   1.410  -0.013  0.00  0.00    +0.041 A 
ATOM     20  C   UNL     1       2.396   0.027  -0.021  0.00  0.00    +0.020 A 
ATOM     21  C   UNL     1       1.208  -0.679  -0.013  0.00  0.00    +0.007 A 
ATOM     22  C   UNL     1       0.002  -0.004   0.002  0.00  0.00    -0.019 A 
ATOM     23 CL   UNL     1       3.870   2.298  -0.023  0.00  0.00    -0.084 Cl
ENDBRANCH  16  22
BRANCH  16  24
ATOM     24  O   UNL     1      -1.166  -1.910   0.869  0.00  0.00    -0.387 OA
ATOM     25  H   UNL     1      -0.469  -2.526   0.606  0.00  0.00    +0.210 HD
ENDBRANCH  16  24
ENDBRANCH   1  16
TORSDOF 4
