REMARK  Name = ZINC65572818
REMARK  10 active torsions:
REMARK  status: ('A' for Active; 'I' for Inactive)
REMARK    1  A    between atoms: C_1  and  C_2
REMARK    2  A    between atoms: C_7  and  N_11
REMARK    3  A    between atoms: C_12  and  C_14
REMARK    4  A    between atoms: N_16  and  C_17
REMARK    5  A    between atoms: C_17  and  C_18
REMARK    6  A    between atoms: C_18  and  C_19
REMARK    7  A    between atoms: C_18  and  C_20
REMARK    8  A    between atoms: C_18  and  N_21
REMARK    9  A    between atoms: C_23  and  C_28
REMARK   10  A    between atoms: C_25  and  C_27
REMARK                            x       y       z     vdW  Elec       q    Type
REMARK                         _______ _______ _______ _____ _____    ______ ____
ROOT
ATOM      1  C   UNL     1      -0.097  -8.143   1.364  0.00  0.00    +0.299 C 
ATOM      2  O   UNL     1      -0.091  -8.164   2.578  0.00  0.00    -0.265 OA
ATOM      3  N   UNL     1      -0.186  -9.296   0.672  0.00  0.00    -0.309 N 
ATOM      4  H   UNL     1      -0.191  -9.280  -0.298  0.00  0.00    +0.149 HD
ENDROOT
BRANCH   1   6
ATOM      5  N   UNL     1       0.085  -5.689   1.331  0.00  0.00    -0.278 N 
ATOM      6  C   UNL     1      -0.004  -6.842   0.639  0.00  0.00    +0.303 C 
ATOM      7  O   UNL     1      -0.010  -6.822  -0.575  0.00  0.00    -0.265 OA
ATOM      8  H   UNL     1       0.167  -5.709   2.298  0.00  0.00    +0.155 HD
BRANCH   5  15
ATOM      9  C   UNL     1       1.401   1.283  -0.440  0.00  0.00    +0.109 C 
ATOM     10  C   UNL     1       0.968  -0.154  -0.305  0.00  0.00    +0.194 A 
ATOM     11  N   UNL     1       0.165  -0.767  -1.121  0.00  0.00    -0.214 NA
ATOM     12  C   UNL     1      -0.004  -2.047  -0.693  0.00  0.00    +0.110 A 
ATOM     13  C   UNL     1      -0.740  -3.135  -1.168  0.00  0.00    +0.033 A 
ATOM     14  C   UNL     1      -0.705  -4.325  -0.499  0.00  0.00    +0.025 A 
ATOM     15  C   UNL     1       0.060  -4.465   0.657  0.00  0.00    +0.037 A 
ATOM     16  C   UNL     1       0.797  -3.395   1.142  0.00  0.00    +0.071 A 
ATOM     17  C   UNL     1       0.769  -2.183   0.471  0.00  0.00    +0.157 A 
ATOM     18  O   UNL     1       1.360  -0.985   0.674  0.00  0.00    -0.440 OA
ENDBRANCH   5  15
ENDBRANCH   1   6
BRANCH   3  19
ATOM     19  C   UNL     1      -0.277 -10.573   1.383  0.00  0.00    +0.092 C 
BRANCH  19  20
ATOM     20  C   UNL     1      -0.367 -11.716   0.371  0.00  0.00    -0.055 C 
ATOM     21  C   UNL     1      -0.462 -13.050   1.114  0.00  0.00    -0.008 C 
ATOM     22  C   UNL     1      -1.611 -11.529  -0.500  0.00  0.00    -0.008 C 
BRANCH  20  23
ATOM     23  N   UNL     1       0.831 -11.714  -0.480  0.00  0.00    +0.384 N 
ATOM     24  C   UNL     1       2.024 -11.885   0.358  0.00  0.00    -0.075 C 
ATOM     25  C   UNL     1       3.279 -11.801  -0.513  0.00  0.00    -0.031 C 
ATOM     26  C   UNL     1       3.234 -12.907  -1.572  0.00  0.00    +0.003 C 
ATOM     27  C   UNL     1       1.948 -12.763  -2.391  0.00  0.00    -0.031 C 
ATOM     28  C   UNL     1       0.742 -12.811  -1.451  0.00  0.00    -0.075 C 
ATOM     29  C   UNL     1       1.855 -13.909  -3.401  0.00  0.00    +0.005 C 
ATOM     30  C   UNL     1       4.521 -11.983   0.362  0.00  0.00    +0.005 C 
ATOM     31  H   UNL     1       0.891 -10.835  -0.971  0.00  0.00    -0.081 HD
ENDBRANCH  20  23
ENDBRANCH  19  20
ENDBRANCH   3  19
TORSDOF 5
