REMARK  Name = ZINC22053780
REMARK  15 active torsions:
REMARK  status: ('A' for Active; 'I' for Inactive)
REMARK    1  A    between atoms: C_1  and  C_2
REMARK    2  A    between atoms: C_2  and  C_3
REMARK    3  A    between atoms: C_3  and  C_4
REMARK    4  A    between atoms: C_5  and  C_35
REMARK    5  A    between atoms: C_7  and  C_9
REMARK    6  A    between atoms: C_9  and  O_11
REMARK    7  A    between atoms: O_11  and  C_12
REMARK    8  A    between atoms: C_12  and  C_13
REMARK    9  A    between atoms: N_15  and  C_16
REMARK   10  A    between atoms: N_15  and  C_18
REMARK   11  A    between atoms: C_16  and  C_17
REMARK   12  A    between atoms: C_19  and  N_34
REMARK   13  A    between atoms: N_20  and  C_27
REMARK   14  A    between atoms: C_27  and  C_28
REMARK   15  A    between atoms: C_35  and  C_36
REMARK                            x       y       z     vdW  Elec       q    Type
REMARK                         _______ _______ _______ _____ _____    ______ ____
ROOT
ATOM      1  C   UNL     1       0.358  -4.453   6.808  0.00  0.00    +0.258 C 
ATOM      2  O   UNL     1      -0.370  -4.787   5.897  0.00  0.00    -0.272 OA
ATOM      3  N   UNL     1       0.478  -5.240   7.898  0.00  0.00    -0.262 N 
ENDROOT
BRANCH   3   4
ATOM      4  C   UNL     1      -0.314  -6.401   8.021  0.00  0.00    +0.140 A 
ATOM      5  C   UNL     1      -1.688  -6.307   8.104  0.00  0.00    +0.128 A 
ATOM      6  N   UNL     1      -2.434  -7.457   8.217  0.00  0.00    -0.276 N 
ATOM      7  C   UNL     1      -1.831  -8.659   8.259  0.00  0.00    +0.331 A 
ATOM      8  O   UNL     1      -2.508  -9.663   8.364  0.00  0.00    -0.246 OA
ATOM      9  N   UNL     1      -0.493  -8.769   8.185  0.00  0.00    -0.273 N 
ATOM     10  H   UNL     1      -0.020  -9.762   8.221  0.00  0.00    +0.173 HD
ATOM     11  C   UNL     1       0.284  -7.674   8.067  0.00  0.00    +0.277 A 
ATOM     12  O   UNL     1       1.496  -7.786   8.001  0.00  0.00    -0.266 OA
BRANCH   5  13
ATOM     13  N   UNL     1      -2.304  -5.079   8.068  0.00  0.00    -0.343 N 
ATOM     14  H   UNL     1      -3.400  -5.011   8.134  0.00  0.00    +0.144 HD
ATOM     15  H   UNL     1      -1.702  -4.164   7.972  0.00  0.00    +0.144 HD
ENDBRANCH   5  13
BRANCH   6  16
ATOM     16  C   UNL     1      -3.895  -7.372   8.301  0.00  0.00    +0.163 C 
BRANCH  16  17
ATOM     17  C   UNL     1      -4.309  -7.251   9.744  0.00  0.00    -0.028 A 
ATOM     18  C   UNL     1      -4.569  -8.388  10.486  0.00  0.00    +0.005 A 
ATOM     19  C   UNL     1      -4.945  -8.277  11.812  0.00  0.00    +0.000 A 
ATOM     20  C   UNL     1      -5.071  -7.029  12.393  0.00  0.00    +0.000 A 
ATOM     21  C   UNL     1      -4.816  -5.892  11.649  0.00  0.00    +0.000 A 
ATOM     22  C   UNL     1      -4.435  -6.003  10.325  0.00  0.00    +0.005 A 
ENDBRANCH  16  17
ENDBRANCH   6  16
ENDBRANCH   3   4
BRANCH   3  23
ATOM     23  C   UNL     1       1.433  -4.889   8.953  0.00  0.00    +0.110 C 
ATOM     24  C   UNL     1       0.732  -4.035  10.011  0.00  0.00    +0.025 C 
ENDBRANCH   3  23
BRANCH   1  25
ATOM     25  C   UNL     1       1.127  -3.160   6.724  0.00  0.00    +0.328 C 
BRANCH  25  26
ATOM     26  O   UNL     1       0.829  -2.501   5.465  0.00  0.00    -0.451 OA
BRANCH  26  27
ATOM     27  C   UNL     1       1.442  -1.322   5.231  0.00  0.00    +0.346 C 
ATOM     28  O   UNL     1       2.204  -0.858   6.057  0.00  0.00    -0.244 OA
BRANCH  27  32
ATOM     29  C   UNL     1       0.420   0.322   1.600  0.00  0.00    -0.006 A 
ATOM     30  C   UNL     1       1.300   1.064   2.322  0.00  0.00    -0.037 A 
ATOM     31  C   UNL     1       1.710   0.610   3.550  0.00  0.00    +0.026 A 
ATOM     32  C   UNL     1       1.189  -0.601   3.982  0.00  0.00    +0.097 A 
ATOM     33  S   UNL     1       0.125  -1.048   2.621  0.00  0.00    -0.086 S 
BRANCH  30  34
ATOM     34  C   UNL     1       1.818   2.372   1.781  0.00  0.00    +0.032 C 
ATOM     35  C   UNL     1       0.830   3.490   2.116  0.00  0.00    +0.009 C 
ENDBRANCH  30  34
BRANCH  29  36
ATOM     36  C   UNL     1      -0.163   0.620   0.242  0.00  0.00    +0.042 C 
BRANCH  36  38
ATOM     37  C   UNL     1       0.147   0.329  -2.220  0.00  0.00    +0.004 C 
ATOM     38  C   UNL     1       0.739   0.026  -0.842  0.00  0.00    +0.002 C 
ENDBRANCH  36  38
ENDBRANCH  29  36
ENDBRANCH  27  32
ENDBRANCH  26  27
ENDBRANCH  25  26
ENDBRANCH   1  25
TORSDOF 12
