REMARK  Name = ZINC39503707
REMARK  7 active torsions:
REMARK  status: ('A' for Active; 'I' for Inactive)
REMARK    1  A    between atoms: C_1  and  C_2
REMARK    2  A    between atoms: C_2  and  O_3
REMARK    3  A    between atoms: O_3  and  C_4
REMARK    4  A    between atoms: C_10  and  C_13
REMARK    5  A    between atoms: C_13  and  C_14
REMARK    6  A    between atoms: N_20  and  C_22
REMARK    7  A    between atoms: C_27  and  O_28
REMARK                            x       y       z     vdW  Elec       q    Type
REMARK                         _______ _______ _______ _____ _____    ______ ____
ROOT
ATOM      1  C   UNL     1      -1.493  -1.815  -0.125  0.00  0.00    +0.137 C 
ATOM      2  C   UNL     1      -2.632  -2.441   0.725  0.00  0.00    +0.059 C 
ATOM      3  C   UNL     1      -2.813  -3.826   0.083  0.00  0.00    +0.038 C 
ATOM      4  C   UNL     1      -4.296  -4.218   0.071  0.00  0.00    +0.026 C 
ATOM      5  C   UNL     1      -4.410  -5.517   0.898  0.00  0.00    +0.006 C 
ATOM      6  C   UNL     1      -2.991  -6.136   0.832  0.00  0.00    -0.005 C 
ATOM      7  C   UNL     1      -2.070  -4.891   0.906  0.00  0.00    +0.029 C 
ATOM      8  N   UNL     1      -2.280  -3.764  -1.280  0.00  0.00    -0.319 N 
ATOM      9  C   UNL     1      -1.798  -2.392  -1.531  0.00  0.00    +0.137 C 
ENDROOT
BRANCH   8  10
ATOM     10  C   UNL     1      -2.235  -4.826  -2.190  0.00  0.00    +0.072 A 
ATOM     11  C   UNL     1      -1.187  -5.735  -2.147  0.00  0.00    +0.027 A 
ATOM     12  C   UNL     1      -1.145  -6.783  -3.046  0.00  0.00    +0.002 A 
ATOM     13  C   UNL     1      -2.144  -6.929  -3.990  0.00  0.00    +0.004 A 
ATOM     14  C   UNL     1      -3.191  -6.028  -4.040  0.00  0.00    +0.047 A 
ATOM     15  C   UNL     1      -3.244  -4.977  -3.138  0.00  0.00    +0.138 A 
BRANCH  15  16
ATOM     16  O   UNL     1      -4.276  -4.093  -3.182  0.00  0.00    -0.505 OA
ATOM     17  H   UNL     1      -4.152  -3.374  -3.817  0.00  0.00    +0.292 HD
ENDBRANCH  15  16
ENDBRANCH   8  10
BRANCH   1  18
ATOM     18  O   UNL     1      -1.580  -0.389  -0.127  0.00  0.00    -0.375 OA
BRANCH  18  20
ATOM     19  C   UNL     1      -0.541   1.785  -0.315  0.00  0.00    +0.034 C 
ATOM     20  C   UNL     1      -0.329   0.270  -0.332  0.00  0.00    +0.157 C 
ENDBRANCH  18  20
ENDBRANCH   1  18
BRANCH   6  21
ATOM     21  C   UNL     1      -2.749  -7.065   2.023  0.00  0.00    +0.038 C 
BRANCH  21  22
ATOM     22  C   UNL     1      -3.660  -8.261   1.920  0.00  0.00    -0.047 A 
ATOM     23  C   UNL     1      -4.917  -8.223   2.494  0.00  0.00    +0.003 A 
ATOM     24  C   UNL     1      -5.753  -9.321   2.399  0.00  0.00    +0.000 A 
ATOM     25  C   UNL     1      -5.331 -10.455   1.731  0.00  0.00    +0.000 A 
ATOM     26  C   UNL     1      -4.074 -10.492   1.157  0.00  0.00    +0.000 A 
ATOM     27  C   UNL     1      -3.240  -9.393   1.248  0.00  0.00    +0.003 A 
ENDBRANCH  21  22
ENDBRANCH   6  21
TORSDOF 6
