REMARK  Name = ZINC29356618
REMARK  5 active torsions:
REMARK  status: ('A' for Active; 'I' for Inactive)
REMARK    1  A    between atoms: C_1  and  C_2
REMARK    2  A    between atoms: C_13  and  C_15
REMARK    3  A    between atoms: C_15  and  S_16
REMARK    4  A    between atoms: S_16  and  C_17
REMARK    5  A    between atoms: N_26  and  C_27
REMARK                            x       y       z     vdW  Elec       q    Type
REMARK                         _______ _______ _______ _____ _____    ______ ____
ROOT
ATOM      1  C   UNL     1      -0.360   1.308   0.119  0.00  0.00    +0.028 C 
ATOM      2  C   UNL     1      -0.417  -0.205   0.341  0.00  0.00    +0.079 C 
ATOM      3  C   UNL     1      -0.096  -0.934  -0.971  0.00  0.00    +0.027 C 
ATOM      4  C   UNL     1      -0.228  -2.440  -0.743  0.00  0.00    +0.039 C 
ATOM      5  C   UNL     1       0.570  -2.863   0.462  0.00  0.00    -0.026 A 
ATOM      6  C   UNL     1       0.938  -4.193   0.590  0.00  0.00    +0.005 A 
ATOM      7  C   UNL     1       1.667  -4.612   1.685  0.00  0.00    +0.000 A 
ATOM      8  C   UNL     1       2.036  -3.706   2.662  0.00  0.00    +0.002 A 
ATOM      9  C   UNL     1       1.674  -2.379   2.543  0.00  0.00    +0.024 A 
ATOM     10  C   UNL     1       0.941  -1.954   1.440  0.00  0.00    +0.040 A 
ATOM     11  N   UNL     1       0.591  -0.601   1.334  0.00  0.00    -0.268 N 
ATOM     12  C   UNL     1       1.169   0.321   2.128  0.00  0.00    +0.230 C 
ATOM     13  O   UNL     1       2.139   0.026   2.794  0.00  0.00    -0.274 OA
ENDROOT
BRANCH  12  14
ATOM     14  C   UNL     1       0.611   1.720   2.189  0.00  0.00    +0.173 C 
BRANCH  14  15
ATOM     15  S   UNL     1       1.365   2.612   3.577  0.00  0.00    -0.078 S 
BRANCH  15  16
ATOM     16  C   UNL     1       0.619   4.207   3.514  0.00  0.00    +0.173 A 
ATOM     17  N   UNL     1      -0.272   4.472   2.580  0.00  0.00    -0.216 NA
ATOM     18  C   UNL     1      -0.850   5.664   2.508  0.00  0.00    +0.116 A 
ATOM     19  C   UNL     1      -0.546   6.698   3.415  0.00  0.00    +0.072 A 
ATOM     20  C   UNL     1      -1.269   7.938   3.194  0.00  0.00    +0.023 A 
ATOM     21  C   UNL     1      -2.145   8.015   2.181  0.00  0.00    +0.048 A 
ATOM     22  S   UNL     1      -2.060   6.397   1.437  0.00  0.00    -0.077 S 
ATOM     23  C   UNL     1       0.425   6.381   4.416  0.00  0.00    +0.263 A 
ATOM     24  O   UNL     1       0.751   7.214   5.245  0.00  0.00    -0.267 OA
ATOM     25  N   UNL     1       0.968   5.150   4.437  0.00  0.00    -0.290 N 
ATOM     26  C   UNL     1       1.958   4.819   5.465  0.00  0.00    +0.154 C 
ENDBRANCH  15  16
ENDBRANCH  14  15
ENDBRANCH  12  14
TORSDOF 3
