REMARK  Name = ZINC35004528
REMARK  13 active torsions:
REMARK  status: ('A' for Active; 'I' for Inactive)
REMARK    1  A    between atoms: C_1  and  C_2
REMARK    2  A    between atoms: C_2  and  C_3
REMARK    3  A    between atoms: C_3  and  C_4
REMARK    4  A    between atoms: C_4  and  N_5
REMARK    5  A    between atoms: C_13  and  C_15
REMARK    6  A    between atoms: C_16  and  C_18
REMARK    7  A    between atoms: C_18  and  C_20
REMARK    8  A    between atoms: C_18  and  N_25
REMARK    9  A    between atoms: C_20  and  C_22
REMARK   10  A    between atoms: C_20  and  C_23
REMARK   11  A    between atoms: C_23  and  C_24
REMARK   12  A    between atoms: N_28  and  C_29
REMARK   13  A    between atoms: C_34  and  C_35
REMARK                            x       y       z     vdW  Elec       q    Type
REMARK                         _______ _______ _______ _____ _____    ______ ____
ROOT
ATOM      1  C   UNL     1       3.136  -4.364  -8.492  0.00  0.00    +0.163 C 
ENDROOT
BRANCH   1  12
ATOM      2  N   UNL     1       1.833  -2.626  -2.204  0.00  0.00    -0.299 N 
ATOM      3  C   UNL     1       1.888  -3.942  -2.490  0.00  0.00    +0.303 C 
ATOM      4  O   UNL     1       1.541  -4.759  -1.659  0.00  0.00    -0.253 OA
ATOM      5  N   UNL     1       2.328  -4.351  -3.696  0.00  0.00    -0.280 N 
ATOM      6  C   UNL     1       2.874  -3.386  -4.660  0.00  0.00    +0.128 C 
ATOM      7  C   UNL     1       2.097  -3.516  -5.976  0.00  0.00    +0.127 C 
ATOM      8  N   UNL     1       2.041  -4.936  -6.350  0.00  0.00    -0.297 N 
ATOM      9  C   UNL     1       1.495  -5.902  -5.385  0.00  0.00    +0.130 C 
ATOM     10  C   UNL     1       2.277  -5.772  -4.067  0.00  0.00    +0.092 C 
ATOM     11  C   UNL     1       1.569  -6.566  -2.967  0.00  0.00    +0.030 C 
ATOM     12  C   UNL     1       2.481  -5.346  -7.556  0.00  0.00    +0.236 C 
ATOM     13  O   UNL     1       2.350  -6.505  -7.888  0.00  0.00    -0.274 OA
ATOM     14  H   UNL     1       2.178  -1.977  -2.837  0.00  0.00    +0.150 HD
BRANCH   2  15
ATOM     15  C   UNL     1       1.251  -2.175  -0.937  0.00  0.00    +0.106 C 
BRANCH  15  16
ATOM     16  C   UNL     1       1.311  -0.648  -0.863  0.00  0.00    +0.018 C 
BRANCH  16  18
ATOM     17  C   UNL     1       0.763   1.350   0.534  0.00  0.00    +0.004 C 
ATOM     18  C   UNL     1       0.704  -0.177   0.460  0.00  0.00    -0.002 C 
ENDBRANCH  16  18
ENDBRANCH  15  16
ENDBRANCH   2  15
ENDBRANCH   1  12
BRANCH   1  19
ATOM     19  N   UNL     1       2.998  -4.837  -9.872  0.00  0.00    -0.288 N 
ATOM     20  C   UNL     1       3.031  -3.958 -10.893  0.00  0.00    +0.304 C 
ATOM     21  O   UNL     1       3.176  -2.772 -10.669  0.00  0.00    -0.252 OA
ATOM     22  N   UNL     1       2.903  -4.393 -12.162  0.00  0.00    -0.269 N 
ATOM     23  H   UNL     1       2.881  -5.784 -10.051  0.00  0.00    +0.151 HD
ATOM     24  H   UNL     1       2.728  -5.331 -12.338  0.00  0.00    +0.156 HD
BRANCH  22  25
ATOM     25  C   UNL     1       3.023  -3.492 -13.226  0.00  0.00    +0.046 A 
ATOM     26  C   UNL     1       2.738  -2.147 -13.034  0.00  0.00    +0.024 A 
ATOM     27  C   UNL     1       2.858  -1.260 -14.086  0.00  0.00    +0.002 A 
ATOM     28  C   UNL     1       3.259  -1.711 -15.330  0.00  0.00    +0.001 A 
ATOM     29  C   UNL     1       3.543  -3.050 -15.525  0.00  0.00    +0.014 A 
ATOM     30  C   UNL     1       3.431  -3.941 -14.475  0.00  0.00    +0.076 A 
BRANCH  30  31
ATOM     31  C   UNL     1       3.746  -5.400 -14.686  0.00  0.00    +0.419 C 
ATOM     32  F   UNL     1       4.133  -5.605 -16.015  0.00  0.00    -0.166 F 
ATOM     33  F   UNL     1       4.788  -5.780 -13.834  0.00  0.00    -0.166 F 
ATOM     34  F   UNL     1       2.611  -6.167 -14.407  0.00  0.00    -0.166 F 
ENDBRANCH  30  31
ENDBRANCH  22  25
ENDBRANCH   1  19
BRANCH   1  35
ATOM     35  C   UNL     1       4.621  -4.239  -8.143  0.00  0.00    +0.015 C 
ATOM     36  C   UNL     1       5.325  -5.567  -8.428  0.00  0.00    +0.010 C 
BRANCH  35  37
ATOM     37  C   UNL     1       5.253  -3.134  -8.992  0.00  0.00    +0.002 C 
ATOM     38  C   UNL     1       4.648  -1.783  -8.602  0.00  0.00    +0.004 C 
ENDBRANCH  35  37
ENDBRANCH   1  35
TORSDOF 9
