REMARK  Name = ZINC38549937
REMARK  12 active torsions:
REMARK  status: ('A' for Active; 'I' for Inactive)
REMARK    1  A    between atoms: C_1  and  C_2
REMARK    2  A    between atoms: C_2  and  C_20
REMARK    3  A    between atoms: C_17  and  C_18
REMARK    4  A    between atoms: C_17  and  C_19
REMARK    5  A    between atoms: C_21  and  C_22
REMARK    6  A    between atoms: C_22  and  N_23
REMARK    7  A    between atoms: N_23  and  C_24
REMARK    8  A    between atoms: N_23  and  C_27
REMARK    9  A    between atoms: C_24  and  C_25
REMARK   10  A    between atoms: C_25  and  O_26
REMARK   11  A    between atoms: C_27  and  C_28
REMARK   12  A    between atoms: C_28  and  O_29
REMARK                            x       y       z     vdW  Elec       q    Type
REMARK                         _______ _______ _______ _____ _____    ______ ____
ROOT
ATOM      1  C   UNL     1       0.341   1.113   0.630  0.00  0.00    +0.056 C 
ATOM      2  C   UNL     1       0.123  -0.375   0.350  0.00  0.00    +0.127 C 
ATOM      3  C   UNL     1      -1.361  -0.627   0.082  0.00  0.00    +0.048 C 
ATOM      4  C   UNL     1      -2.181  -0.326   1.344  0.00  0.00    +0.014 C 
ATOM      5  C   UNL     1      -1.623  -1.174   2.485  0.00  0.00    +0.066 C 
ATOM      6  C   UNL     1      -0.144  -0.819   2.673  0.00  0.00    +0.161 C 
ATOM      7  O   UNL     1       0.562  -1.139   1.479  0.00  0.00    -0.353 OA
ATOM      8  C   UNL     1       0.390  -1.560   3.864  0.00  0.00    +0.023 A 
ATOM      9  C   UNL     1       1.750  -1.788   3.975  0.00  0.00    +0.010 A 
ATOM     10  C   UNL     1       2.257  -2.463   5.069  0.00  0.00    +0.001 A 
ATOM     11  C   UNL     1       1.402  -2.910   6.059  0.00  0.00    +0.004 A 
ATOM     12  C   UNL     1       0.045  -2.687   5.954  0.00  0.00    +0.046 A 
ATOM     13  C   UNL     1      -0.473  -2.012   4.852  0.00  0.00    +0.127 A 
ATOM     14  O   UNL     1      -1.817  -1.832   4.777  0.00  0.00    -0.486 OA
ATOM     15  C   UNL     1      -2.345  -0.904   3.803  0.00  0.00    +0.111 C 
ATOM     16  C   UNL     1      -3.847  -1.140   3.628  0.00  0.00    +0.056 C 
ATOM     17  C   UNL     1      -2.096   0.540   4.243  0.00  0.00    +0.056 C 
ENDROOT
BRANCH   2  18
ATOM     18  C   UNL     1       0.902  -0.767  -0.836  0.00  0.00    -0.070 C 
ATOM     19  C   UNL     1       1.523  -1.079  -1.782  0.00  0.00    -0.118 C 
BRANCH  19  20
ATOM     20  C   UNL     1       2.302  -1.471  -2.968  0.00  0.00    +0.012 C 
BRANCH  20  21
ATOM     21  N   UNL     1       2.095  -2.900  -3.240  0.00  0.00    +0.390 N 
ATOM     22  H   UNL     1       2.321  -3.435  -2.415  0.00  0.00    -0.080 HD
BRANCH  21  23
ATOM     23  C   UNL     1       0.691  -3.131  -3.604  0.00  0.00    -0.049 C 
BRANCH  23  24
ATOM     24  C   UNL     1       0.438  -4.634  -3.736  0.00  0.00    +0.137 C 
BRANCH  24  25
ATOM     25  O   UNL     1       0.641  -5.264  -2.470  0.00  0.00    -0.397 OA
ATOM     26  H   UNL     1       0.498  -6.221  -2.479  0.00  0.00    +0.209 HD
ENDBRANCH  24  25
ENDBRANCH  23  24
ENDBRANCH  21  23
BRANCH  21  27
ATOM     27  C   UNL     1       2.963  -3.318  -4.348  0.00  0.00    -0.049 C 
BRANCH  27  28
ATOM     28  C   UNL     1       4.427  -3.216  -3.916  0.00  0.00    +0.137 C 
BRANCH  28  29
ATOM     29  O   UNL     1       4.674  -4.132  -2.848  0.00  0.00    -0.397 OA
ATOM     30  H   UNL     1       5.562  -4.067  -2.471  0.00  0.00    +0.209 HD
ENDBRANCH  28  29
ENDBRANCH  27  28
ENDBRANCH  21  27
ENDBRANCH  20  21
ENDBRANCH  19  20
ENDBRANCH   2  18
TORSDOF 9
