REMARK  Name = ZINC36360679
REMARK  3 active torsions:
REMARK  status: ('A' for Active; 'I' for Inactive)
REMARK    1  A    between atoms: C_1  and  O_2
REMARK    2  A    between atoms: O_2  and  C_3
REMARK    3  A    between atoms: C_8  and  C_9
REMARK                            x       y       z     vdW  Elec       q    Type
REMARK                         _______ _______ _______ _____ _____    ______ ____
ROOT
ATOM      1  C   UNL     1       0.051  -2.828  -0.033  0.00  0.00    +0.071 C 
ATOM      2  C   UNL     1      -1.036  -3.740  -0.622  0.00  0.00    +0.109 C 
ATOM      3  C   UNL     1      -1.339  -4.875   0.314  0.00  0.00    +0.219 C 
ATOM      4  O   UNL     1      -2.490  -5.247   0.416  0.00  0.00    -0.275 OA
ATOM      5  N   UNL     1      -0.398  -5.500   1.044  0.00  0.00    -0.270 N 
ATOM      6  C   UNL     1       0.906  -4.943   1.095  0.00  0.00    +0.138 A 
ATOM      7  C   UNL     1       1.097  -3.690   0.583  0.00  0.00    +0.041 A 
ATOM      8  S   UNL     1       2.822  -3.422   0.853  0.00  0.00    -0.055 S 
ATOM      9  C   UNL     1       3.159  -4.891   1.608  0.00  0.00    +0.163 A 
ATOM     10  N   UNL     1       1.991  -5.505   1.613  0.00  0.00    -0.210 NA
ATOM     11  N   UNL     1       4.371  -5.346   2.103  0.00  0.00    -0.310 N 
ATOM     12  C   UNL     1       5.577  -4.512   2.010  0.00  0.00    +0.107 C 
ATOM     13  C   UNL     1       6.192  -4.377   3.406  0.00  0.00    +0.019 C 
ATOM     14  C   UNL     1       6.435  -5.771   3.990  0.00  0.00    +0.003 C 
ATOM     15  C   UNL     1       5.102  -6.511   4.118  0.00  0.00    +0.019 C 
ATOM     16  C   UNL     1       4.473  -6.668   2.735  0.00  0.00    +0.107 C 
ATOM     17  H   UNL     1      -0.606  -6.316   1.525  0.00  0.00    +0.156 HD
ENDROOT
BRANCH   1  23
ATOM     18  C   UNL     1       0.606  -0.607  -1.056  0.00  0.00    +0.124 A 
ATOM     19  C   UNL     1       1.173   0.161  -2.063  0.00  0.00    +0.046 A 
ATOM     20  C   UNL     1       1.786  -0.455  -3.136  0.00  0.00    +0.004 A 
ATOM     21  C   UNL     1       1.836  -1.835  -3.208  0.00  0.00    +0.001 A 
ATOM     22  C   UNL     1       1.271  -2.602  -2.207  0.00  0.00    +0.008 A 
ATOM     23  C   UNL     1       0.661  -1.991  -1.128  0.00  0.00    +0.003 A 
BRANCH  18  25
ATOM     24  C   UNL     1      -0.017   1.425   0.010  0.00  0.00    +0.277 C 
ATOM     25  O   UNL     1       0.002  -0.004   0.002  0.00  0.00    -0.495 OA
ENDBRANCH  18  25
ENDBRANCH   1  23
TORSDOF 2
