REMARK  Name = ZINC06177587
REMARK  6 active torsions:
REMARK  status: ('A' for Active; 'I' for Inactive)
REMARK    1  A    between atoms: C_1  and  C_2
REMARK    2  A    between atoms: C_3  and  C_27
REMARK    3  A    between atoms: C_4  and  N_17
REMARK    4  A    between atoms: C_14  and  C_15
REMARK    5  A    between atoms: N_17  and  C_18
REMARK    6  A    between atoms: C_27  and  C_28
REMARK                            x       y       z     vdW  Elec       q    Type
REMARK                         _______ _______ _______ _____ _____    ______ ____
ROOT
ATOM      1  C   UNL     1      -1.061   2.466   0.097  0.00  0.00    +0.045 C 
ATOM      2  C   UNL     1      -1.430   2.107   1.513  0.00  0.00    -0.023 A 
ATOM      3  C   UNL     1      -0.545   2.358   2.552  0.00  0.00    -0.000 A 
ATOM      4  C   UNL     1      -0.869   2.034   3.850  0.00  0.00    +0.113 A 
ATOM      5  N   UNL     1      -2.068   1.456   4.164  0.00  0.00    -0.279 N 
ATOM      6  C   UNL     1      -2.618   1.045   5.366  0.00  0.00    +0.075 A 
ATOM      7  C   UNL     1      -2.176   1.061   6.681  0.00  0.00    +0.028 A 
ATOM      8  C   UNL     1      -2.984   0.561   7.681  0.00  0.00    +0.002 A 
ATOM      9  C   UNL     1      -4.236   0.045   7.381  0.00  0.00    +0.002 A 
ATOM     10  C   UNL     1      -4.690   0.021   6.093  0.00  0.00    +0.030 A 
ATOM     11  C   UNL     1      -3.887   0.522   5.062  0.00  0.00    +0.090 A 
ATOM     12  N   UNL     1      -4.058   0.630   3.723  0.00  0.00    -0.226 NA
ATOM     13  C   UNL     1      -2.988   1.182   3.182  0.00  0.00    +0.158 A 
ATOM     14  C   UNL     1      -2.667   1.524   1.792  0.00  0.00    +0.098 A 
ENDROOT
BRANCH  14  15
ATOM     15  C   UNL     1      -3.602   1.259   0.740  0.00  0.00    +0.103 C 
ATOM     16  N   UNL     1      -4.344   1.049  -0.094  0.00  0.00    -0.191 NA
ENDBRANCH  14  15
BRANCH   4  17
ATOM     17  N   UNL     1       0.033   2.297   4.854  0.00  0.00    -0.298 N 
ATOM     18  H   UNL     1       0.817   1.736   4.961  0.00  0.00    +0.154 HD
BRANCH  17  19
ATOM     19  C   UNL     1      -0.180   3.374   5.721  0.00  0.00    +0.070 A 
ATOM     20  C   UNL     1      -0.926   4.470   5.301  0.00  0.00    +0.065 A 
ATOM     21  C   UNL     1      -1.138   5.530   6.162  0.00  0.00    +0.042 A 
ATOM     22  C   UNL     1      -0.601   5.507   7.437  0.00  0.00    +0.044 A 
ATOM     23  C   UNL     1       0.146   4.420   7.856  0.00  0.00    +0.042 A 
ATOM     24  C   UNL     1       0.358   3.354   7.002  0.00  0.00    +0.065 A 
ATOM     25 CL   UNL     1       1.295   1.991   7.529  0.00  0.00    -0.082 Cl
ATOM     26 CL   UNL     1      -0.865   6.843   8.513  0.00  0.00    -0.083 Cl
ATOM     27 CL   UNL     1      -1.594   4.503   3.700  0.00  0.00    -0.082 Cl
ENDBRANCH  17  19
ENDBRANCH   4  17
BRANCH   3  28
ATOM     28  C   UNL     1       0.789   2.993   2.255  0.00  0.00    +0.074 C 
BRANCH  28  29
ATOM     29  C   UNL     1       1.772   1.928   1.841  0.00  0.00    -0.043 A 
ATOM     30  C   UNL     1       2.470   1.222   2.802  0.00  0.00    +0.004 A 
ATOM     31  C   UNL     1       3.369   0.242   2.423  0.00  0.00    +0.000 A 
ATOM     32  C   UNL     1       3.575  -0.025   1.082  0.00  0.00    +0.000 A 
ATOM     33  C   UNL     1       2.881   0.686   0.121  0.00  0.00    +0.000 A 
ATOM     34  C   UNL     1       1.979   1.662   0.501  0.00  0.00    +0.004 A 
ENDBRANCH  28  29
ENDBRANCH   3  28
TORSDOF 5
