REMARK  Name = ZINC48816423
REMARK  4 active torsions:
REMARK  status: ('A' for Active; 'I' for Inactive)
REMARK    1  A    between atoms: C_6  and  O_7
REMARK    2  A    between atoms: O_7  and  C_8
REMARK    3  A    between atoms: C_11  and  N_17
REMARK    4  A    between atoms: C_13  and  C_14
REMARK                            x       y       z     vdW  Elec       q    Type
REMARK                         _______ _______ _______ _____ _____    ______ ____
ROOT
ATOM      1  C   UNL     1      -1.101  -2.051  -0.102  0.00  0.00    +0.141 A 
ATOM      2  C   UNL     1       0.130  -2.692  -0.111  0.00  0.00    +0.049 A 
ATOM      3  C   UNL     1       0.193  -4.066  -0.225  0.00  0.00    +0.036 A 
ATOM      4  C   UNL     1      -0.968  -4.815  -0.332  0.00  0.00    +0.127 A 
ATOM      5  C   UNL     1      -2.198  -4.195  -0.325  0.00  0.00    +0.049 A 
ATOM      6  C   UNL     1      -2.277  -2.805  -0.205  0.00  0.00    +0.081 A 
ENDROOT
BRANCH   6   7
ATOM      7  C   UNL     1      -3.592  -2.136  -0.191  0.00  0.00    +0.245 C 
ATOM      8  O   UNL     1      -3.657  -0.925  -0.091  0.00  0.00    -0.270 OA
ATOM      9  N   UNL     1      -4.721  -2.865  -0.290  0.00  0.00    -0.325 N 
ATOM     10  H   UNL     1      -4.669  -3.830  -0.370  0.00  0.00    +0.145 HD
ATOM     11  H   UNL     1      -5.585  -2.425  -0.281  0.00  0.00    +0.145 HD
ENDBRANCH   6   7
BRANCH   4  12
ATOM     12  N   UNL     1      -0.885  -6.288  -0.454  0.00  0.00    +0.056 N 
ATOM     13  O   UNL     1       0.193  -6.835  -0.461  0.00  0.00    -0.126 OA
ATOM     14  O   UNL     1      -1.897  -6.944  -0.548  0.00  0.00    -0.126 OA
ENDBRANCH   4  12
BRANCH   1  15
ATOM     15  O   UNL     1      -1.165  -0.701   0.010  0.00  0.00    -0.455 OA
BRANCH  15  21
ATOM     16  C   UNL     1       0.750   0.053  -1.184  0.00  0.00    +0.047 A 
ATOM     17  C   UNL     1       1.934   0.764  -1.209  0.00  0.00    +0.018 A 
ATOM     18  C   UNL     1       2.373   1.421  -0.074  0.00  0.00    +0.014 A 
ATOM     19  C   UNL     1       1.627   1.367   1.090  0.00  0.00    +0.018 A 
ATOM     20  C   UNL     1       0.443   0.657   1.121  0.00  0.00    +0.047 A 
ATOM     21  C   UNL     1       0.001  -0.002  -0.018  0.00  0.00    +0.129 A 
ATOM     22  I   UNL     1       4.169   2.498  -0.116  0.00  0.00    -0.044 I 
ENDBRANCH  15  21
ENDBRANCH   1  15
TORSDOF 4
