REMARK  Name = ZINC13064103
REMARK  14 active torsions:
REMARK  status: ('A' for Active; 'I' for Inactive)
REMARK    1  A    between atoms: C_1  and  C_2
REMARK    2  A    between atoms: C_2  and  C_3
REMARK    3  A    between atoms: C_3  and  C_5
REMARK    4  A    between atoms: C_3  and  N_71
REMARK    5  A    between atoms: N_9  and  C_10
REMARK    6  A    between atoms: C_10  and  C_11
REMARK    7  A    between atoms: C_17  and  C_18
REMARK    8  A    between atoms: C_17  and  N_71
REMARK    9  A    between atoms: C_21  and  O_24
REMARK   10  A    between atoms: O_24  and  C_25
REMARK   11  A    between atoms: C_26  and  C_27
REMARK   12  A    between atoms: C_26  and  N_71
REMARK   13  A    between atoms: C_31  and  O_39
REMARK   14  A    between atoms: O_39  and  C_40
REMARK                            x       y       z     vdW  Elec       q    Type
REMARK                         _______ _______ _______ _____ _____    ______ ____
ROOT
ATOM      1  N   UNL     1       4.052   0.823  -2.926  0.00  0.00    +0.392 N 
ATOM      2  H   UNL     1       4.696   0.730  -3.720  0.00  0.00    -0.080 HD
ENDROOT
BRANCH   1   3
ATOM      3  C   UNL     1       4.181   2.182  -2.359  0.00  0.00    +0.003 C 
BRANCH   3   4
ATOM      4  C   UNL     1       3.626   3.181  -3.341  0.00  0.00    +0.138 A 
ATOM      5  N   UNL     1       3.828   3.200  -4.636  0.00  0.00    -0.115 NA
ATOM      6  N   UNL     1       3.190   4.209  -5.123  0.00  0.00    -0.023 NA
ATOM      7  N   UNL     1       2.583   4.830  -4.172  0.00  0.00    -0.044 NA
ATOM      8  N   UNL     1       2.825   4.225  -3.059  0.00  0.00    -0.226 N 
BRANCH   8   9
ATOM      9  C   UNL     1       2.326   4.606  -1.735  0.00  0.00    +0.182 C 
BRANCH   9  10
ATOM     10  C   UNL     1       1.010   3.918  -1.477  0.00  0.00    -0.026 A 
ATOM     11  C   UNL     1       0.987   2.675  -0.873  0.00  0.00    +0.005 A 
ATOM     12  C   UNL     1      -0.220   2.044  -0.636  0.00  0.00    +0.000 A 
ATOM     13  C   UNL     1      -1.404   2.654  -1.009  0.00  0.00    +0.000 A 
ATOM     14  C   UNL     1      -1.381   3.899  -1.608  0.00  0.00    +0.000 A 
ATOM     15  C   UNL     1      -0.174   4.530  -1.845  0.00  0.00    +0.005 A 
ENDBRANCH   9  10
ENDBRANCH   8   9
ENDBRANCH   3   4
BRANCH   3  17
ATOM     16  C   UNL     1       5.808   3.832  -1.423  0.00  0.00    +0.002 C 
ATOM     17  C   UNL     1       5.663   2.475  -2.115  0.00  0.00    -0.011 C 
ENDBRANCH   3  17
ENDBRANCH   1   3
BRANCH   1  18
ATOM     18  C   UNL     1       2.669   0.604  -3.402  0.00  0.00    -0.042 C 
BRANCH  18  19
ATOM     19  C   UNL     1       2.664  -0.569  -4.348  0.00  0.00    -0.064 A 
ATOM     20  C   UNL     1       3.004  -0.385  -5.676  0.00  0.00    +0.005 A 
ATOM     21  C   UNL     1       3.006  -1.459  -6.545  0.00  0.00    +0.046 A 
ATOM     22  C   UNL     1       2.655  -2.721  -6.086  0.00  0.00    +0.120 A 
ATOM     23  C   UNL     1       2.309  -2.901  -4.755  0.00  0.00    +0.046 A 
ATOM     24  C   UNL     1       2.314  -1.825  -3.889  0.00  0.00    +0.005 A 
BRANCH  22  25
ATOM     25  O   UNL     1       2.651  -3.778  -6.940  0.00  0.00    -0.495 OA
ATOM     26  C   UNL     1       3.018  -3.518  -8.296  0.00  0.00    +0.277 C 
ENDBRANCH  22  25
ENDBRANCH  18  19
ENDBRANCH   1  18
BRANCH   1  27
ATOM     27  C   UNL     1       4.400  -0.186  -1.904  0.00  0.00    -0.036 C 
BRANCH  27  28
ATOM     28  C   UNL     1       3.532  -0.024  -0.683  0.00  0.00    +0.001 A 
ATOM     29  C   UNL     1       2.394  -0.752  -0.561  0.00  0.00    +0.017 A 
ATOM     30  C   UNL     1       1.572  -0.571   0.637  0.00  0.00    +0.002 A 
ATOM     31  C   UNL     1       0.389  -1.295   0.816  0.00  0.00    +0.055 A 
ATOM     32  C   UNL     1      -0.362  -1.101   1.958  0.00  0.00    +0.121 A 
ATOM     33  C   UNL     1       0.054  -0.190   2.926  0.00  0.00    +0.047 A 
ATOM     34  C   UNL     1       1.217   0.529   2.761  0.00  0.00    +0.030 A 
ATOM     35  C   UNL     1       1.989   0.348   1.617  0.00  0.00    +0.049 A 
ATOM     36  N   UNL     1       3.158   1.059   1.433  0.00  0.00    -0.322 N 
ATOM     37  H   UNL     1       3.443   1.692   2.109  0.00  0.00    +0.169 HD
ATOM     38  C   UNL     1       3.908   0.881   0.332  0.00  0.00    +0.251 A 
ATOM     39  O   UNL     1       4.938   1.522   0.205  0.00  0.00    -0.268 OA
BRANCH  32  40
ATOM     40  O   UNL     1      -1.513  -1.801   2.138  0.00  0.00    -0.495 OA
ATOM     41  C   UNL     1      -2.243  -1.552   3.341  0.00  0.00    +0.277 C 
ENDBRANCH  32  40
ENDBRANCH  27  28
ENDBRANCH   1  27
TORSDOF 11
