REMARK  Name = ZINC21222770
REMARK  8 active torsions:
REMARK  status: ('A' for Active; 'I' for Inactive)
REMARK    1  A    between atoms: C_1  and  C_2
REMARK    2  A    between atoms: C_2  and  O_3
REMARK    3  A    between atoms: O_3  and  C_4
REMARK    4  A    between atoms: C_6  and  C_12
REMARK    5  A    between atoms: C_9  and  O_10
REMARK    6  A    between atoms: C_17  and  C_22
REMARK    7  A    between atoms: C_27  and  O_28
REMARK    8  A    between atoms: O_28  and  C_29
REMARK                            x       y       z     vdW  Elec       q    Type
REMARK                         _______ _______ _______ _____ _____    ______ ____
ROOT
ATOM      1  C   UNL     1       3.143  -5.775   0.009  0.00  0.00    +0.136 C 
ATOM      2  C   UNL     1       1.924  -4.920  -0.238  0.00  0.00    +0.036 C 
ATOM      3  C   UNL     1       1.444  -4.560  -1.441  0.00  0.00    +0.017 C 
ATOM      4  C   UNL     1       0.200  -3.695  -1.546  0.00  0.00    +0.060 C 
ATOM      5  C   UNL     1       0.127  -2.739  -0.356  0.00  0.00    +0.035 C 
ATOM      6  C   UNL     1       0.081  -3.586   0.921  0.00  0.00    +0.088 C 
ATOM      7  C   UNL     1       1.284  -4.481   0.945  0.00  0.00    +0.163 C 
ATOM      8  O   UNL     1       1.724  -4.842   2.018  0.00  0.00    -0.292 OA
ATOM      9  N   UNL     1       1.987  -4.925  -2.630  0.00  0.00    -0.316 N 
ATOM     10  C   UNL     1       3.341  -4.866  -2.938  0.00  0.00    +0.052 A 
ATOM     11  C   UNL     1       3.843  -4.023  -3.915  0.00  0.00    +0.025 A 
ATOM     12  C   UNL     1       5.197  -4.049  -4.204  0.00  0.00    +0.002 A 
ATOM     13  C   UNL     1       6.038  -4.913  -3.527  0.00  0.00    +0.002 A 
ATOM     14  C   UNL     1       5.541  -5.743  -2.538  0.00  0.00    +0.025 A 
ATOM     15  C   UNL     1       4.190  -5.703  -2.230  0.00  0.00    +0.049 A 
ATOM     16  N   UNL     1       3.664  -6.436  -1.168  0.00  0.00    -0.331 N 
ATOM     17  H   UNL     1       1.341  -5.301  -3.437  0.00  0.00    +0.152 HD
ATOM     18  H   UNL     1       3.647  -7.534  -1.236  0.00  0.00    +0.147 HD
ENDROOT
BRANCH   1  21
ATOM     19  C   UNL     1       5.677  -4.316   2.403  0.00  0.00    +0.163 A 
ATOM     20  C   UNL     1       4.679  -5.119   1.872  0.00  0.00    +0.055 A 
ATOM     21  C   UNL     1       4.228  -4.901   0.584  0.00  0.00    -0.018 A 
ATOM     22  C   UNL     1       4.773  -3.886  -0.180  0.00  0.00    +0.029 A 
ATOM     23  C   UNL     1       5.765  -3.078   0.344  0.00  0.00    +0.086 A 
ATOM     24  C   UNL     1       6.222  -3.291   1.636  0.00  0.00    +0.177 A 
ATOM     25 CL   UNL     1       6.443  -1.800  -0.616  0.00  0.00    -0.080 Cl
BRANCH  24  26
ATOM     26  O   UNL     1       7.201  -2.501   2.152  0.00  0.00    -0.502 OA
ATOM     27  H   UNL     1       7.631  -1.691   1.545  0.00  0.00    +0.292 HD
ENDBRANCH  24  26
BRANCH  19  28
ATOM     28  O   UNL     1       6.122  -4.530   3.670  0.00  0.00    -0.489 OA
BRANCH  28  30
ATOM     29  C   UNL     1       6.142  -5.686   5.792  0.00  0.00    +0.048 C 
ATOM     30  C   UNL     1       5.516  -5.600   4.398  0.00  0.00    +0.226 C 
ENDBRANCH  28  30
ENDBRANCH  19  28
ENDBRANCH   1  21
BRANCH   5  31
ATOM     31  C   UNL     1      -1.117  -1.894  -0.455  0.00  0.00    -0.002 A 
ATOM     32  C   UNL     1      -2.361  -2.495  -0.470  0.00  0.00    +0.007 A 
ATOM     33  C   UNL     1      -3.503  -1.721  -0.561  0.00  0.00    +0.001 A 
ATOM     34  C   UNL     1      -3.403  -0.344  -0.636  0.00  0.00    +0.004 A 
ATOM     35  C   UNL     1      -2.162   0.262  -0.616  0.00  0.00    +0.046 A 
ATOM     36  C   UNL     1      -1.014  -0.513  -0.531  0.00  0.00    +0.124 A 
BRANCH  36  37
ATOM     37  O   UNL     1       0.209   0.080  -0.516  0.00  0.00    -0.495 OA
ATOM     38  C   UNL     1       0.238   1.506  -0.597  0.00  0.00    +0.277 C 
ENDBRANCH  36  37
ENDBRANCH   5  31
TORSDOF 6
