REMARK  Name = ZINC03038318
REMARK  7 active torsions:
REMARK  status: ('A' for Active; 'I' for Inactive)
REMARK    1  A    between atoms: C_4  and  C_7
REMARK    2  A    between atoms: C_7  and  C_8
REMARK    3  A    between atoms: C_7  and  C_14
REMARK    4  A    between atoms: C_7  and  O_32
REMARK    5  A    between atoms: N_16  and  N_17
REMARK    6  A    between atoms: C_18  and  C_19
REMARK    7  A    between atoms: C_22  and  C_24
REMARK                            x       y       z     vdW  Elec       q    Type
REMARK                         _______ _______ _______ _____ _____    ______ ____
ROOT
ATOM      1  C   UNL     1      -1.739   7.768  -4.032  0.00  0.00    +0.273 C 
ATOM      2  O   UNL     1      -1.681   6.647  -4.493  0.00  0.00    -0.270 OA
ATOM      3  N   UNL     1      -0.874   8.147  -3.071  0.00  0.00    -0.204 N 
ATOM      4  H   UNL     1      -0.919   9.043  -2.703  0.00  0.00    +0.177 HD
ENDROOT
BRANCH   3   5
ATOM      5  N   UNL     1       0.092   7.246  -2.603  0.00  0.00    -0.185 NA
ATOM      6  C   UNL     1       0.928   7.612  -1.674  0.00  0.00    +0.176 C 
BRANCH   6   7
ATOM      7  C   UNL     1       1.937   6.670  -1.185  0.00  0.00    +0.148 A 
ATOM      8  C   UNL     1       2.877   6.926  -0.211  0.00  0.00    +0.051 A 
ATOM      9  C   UNL     1       3.627   5.752  -0.055  0.00  0.00    +0.050 A 
ATOM     10  C   UNL     1       3.128   4.838  -0.936  0.00  0.00    +0.137 A 
ATOM     11  O   UNL     1       2.107   5.401  -1.609  0.00  0.00    -0.454 OA
BRANCH  10  12
ATOM     12  C   UNL     1       3.622   3.459  -1.116  0.00  0.00    +0.037 A 
ATOM     13  C   UNL     1       4.986   3.220  -1.303  0.00  0.00    +0.013 A 
ATOM     14  C   UNL     1       5.440   1.929  -1.471  0.00  0.00    +0.002 A 
ATOM     15  C   UNL     1       4.550   0.870  -1.455  0.00  0.00    +0.021 A 
ATOM     16  C   UNL     1       3.197   1.097  -1.270  0.00  0.00    +0.060 A 
ATOM     17  C   UNL     1       2.727   2.386  -1.100  0.00  0.00    +0.070 A 
ATOM     18 CL   UNL     1       1.029   2.671  -0.875  0.00  0.00    -0.081 Cl
ATOM     19 CL   UNL     1       2.089  -0.239  -1.251  0.00  0.00    -0.082 Cl
ENDBRANCH  10  12
ENDBRANCH   6   7
ENDBRANCH   3   5
BRANCH   1  20
ATOM     20  C   UNL     1      -2.777   8.737  -4.535  0.00  0.00    +0.194 C 
BRANCH  20  24
ATOM     21  C   UNL     1      -1.077  11.182  -7.599  0.00  0.00    +0.000 A 
ATOM     22  C   UNL     1      -1.928  11.739  -6.662  0.00  0.00    +0.000 A 
ATOM     23  C   UNL     1      -2.478  10.948  -5.671  0.00  0.00    +0.007 A 
ATOM     24  C   UNL     1      -2.178   9.600  -5.616  0.00  0.00    -0.003 A 
ATOM     25  C   UNL     1      -1.322   9.044  -6.549  0.00  0.00    +0.007 A 
ATOM     26  C   UNL     1      -0.776   9.834  -7.543  0.00  0.00    +0.000 A 
ENDBRANCH  20  24
BRANCH  20  27
ATOM     27  C   UNL     1      -3.949   7.972  -5.095  0.00  0.00    -0.003 A 
ATOM     28  C   UNL     1      -3.785   7.180  -6.216  0.00  0.00    +0.007 A 
ATOM     29  C   UNL     1      -4.858   6.475  -6.727  0.00  0.00    +0.000 A 
ATOM     30  C   UNL     1      -6.098   6.569  -6.123  0.00  0.00    +0.000 A 
ATOM     31  C   UNL     1      -6.263   7.365  -5.005  0.00  0.00    +0.000 A 
ATOM     32  C   UNL     1      -5.188   8.067  -4.491  0.00  0.00    +0.007 A 
ENDBRANCH  20  27
BRANCH  20  33
ATOM     33  O   UNL     1      -3.220   9.564  -3.457  0.00  0.00    -0.371 OA
ATOM     34  H   UNL     1      -3.618   9.075  -2.724  0.00  0.00    +0.212 HD
ENDBRANCH  20  33
ENDBRANCH   1  20
TORSDOF 7
