REMARK  Name = ZINC35258487
REMARK  13 active torsions:
REMARK  status: ('A' for Active; 'I' for Inactive)
REMARK    1  A    between atoms: C_1  and  C_2
REMARK    2  A    between atoms: C_2  and  O_3
REMARK    3  A    between atoms: O_3  and  C_4
REMARK    4  A    between atoms: C_7  and  C_11
REMARK    5  A    between atoms: C_11  and  N_12
REMARK    6  A    between atoms: N_12  and  C_13
REMARK    7  A    between atoms: C_13  and  C_14
REMARK    8  A    between atoms: C_14  and  C_16
REMARK    9  A    between atoms: C_14  and  N_19
REMARK   10  A    between atoms: C_16  and  C_17
REMARK   11  A    between atoms: C_16  and  C_18
REMARK   12  A    between atoms: N_19  and  C_20
REMARK   13  A    between atoms: N_19  and  C_21
REMARK                            x       y       z     vdW  Elec       q    Type
REMARK                         _______ _______ _______ _____ _____    ______ ____
ROOT
ATOM      1  C   UNL     1      -0.914  -5.609  -2.158  0.00  0.00    -0.047 C 
ENDROOT
BRANCH   1   5
ATOM      2  C   UNL     1      -2.912  -1.901  -1.427  0.00  0.00    +0.148 A 
ATOM      3  C   UNL     1      -1.624  -2.103  -0.950  0.00  0.00    +0.061 A 
ATOM      4  C   UNL     1      -0.981  -3.303  -1.188  0.00  0.00    +0.020 A 
ATOM      5  C   UNL     1      -1.618  -4.301  -1.900  0.00  0.00    -0.062 A 
ATOM      6  C   UNL     1      -2.901  -4.103  -2.377  0.00  0.00    +0.020 A 
ATOM      7  C   UNL     1      -3.551  -2.907  -2.137  0.00  0.00    +0.061 A 
ATOM      8 BR   UNL     1      -5.308  -2.639  -2.783  0.00  0.00    -0.046 Br
ATOM      9 BR   UNL     1      -0.751  -0.737   0.024  0.00  0.00    -0.046 Br
BRANCH   2  10
ATOM     10  O   UNL     1      -3.547  -0.722  -1.195  0.00  0.00    -0.490 OA
BRANCH  10  12
ATOM     11  C   UNL     1      -4.955   0.762   0.091  0.00  0.00    +0.048 C 
ATOM     12  C   UNL     1      -4.320  -0.627   0.003  0.00  0.00    +0.226 C 
ENDBRANCH  10  12
ENDBRANCH   2  10
ENDBRANCH   1   5
BRANCH   1  13
ATOM     13  N   UNL     1      -1.202  -6.544  -1.063  0.00  0.00    +0.383 N 
ATOM     14  H   UNL     1      -0.877  -6.153  -0.192  0.00  0.00    -0.085 HD
ATOM     15  H   UNL     1      -2.197  -6.703  -1.010  0.00  0.00    -0.085 HD
BRANCH  13  16
ATOM     16  C   UNL     1      -0.516  -7.819  -1.315  0.00  0.00    -0.063 C 
BRANCH  16  17
ATOM     17  C   UNL     1      -0.816  -8.793  -0.174  0.00  0.00    +0.042 C 
BRANCH  17  18
ATOM     18  C   UNL     1      -0.004 -10.075  -0.371  0.00  0.00    -0.002 C 
ATOM     19  C   UNL     1      -0.389 -11.093   0.704  0.00  0.00    +0.009 C 
ATOM     20  C   UNL     1      -0.297 -10.657  -1.755  0.00  0.00    +0.009 C 
ENDBRANCH  17  18
BRANCH  17  21
ATOM     21  N   UNL     1      -0.452  -8.175   1.108  0.00  0.00    -0.307 NA
ATOM     22  C   UNL     1      -1.190  -8.790   2.218  0.00  0.00    +0.104 C 
ATOM     23  C   UNL     1       0.998  -8.248   1.335  0.00  0.00    +0.104 C 
ENDBRANCH  17  21
ENDBRANCH  16  17
ENDBRANCH  13  16
ENDBRANCH   1  13
TORSDOF 8
