REMARK  Name = ZINC51055653
REMARK  10 active torsions:
REMARK  status: ('A' for Active; 'I' for Inactive)
REMARK    1  A    between atoms: C_1  and  C_2
REMARK    2  A    between atoms: C_2  and  C_3
REMARK    3  A    between atoms: C_3  and  C_4
REMARK    4  A    between atoms: C_4  and  C_6
REMARK    5  A    between atoms: C_4  and  N_7
REMARK    6  A    between atoms: C_8  and  C_10
REMARK    7  A    between atoms: N_15  and  C_17
REMARK    8  A    between atoms: C_17  and  C_18
REMARK    9  A    between atoms: N_20  and  C_21
REMARK   10  A    between atoms: C_24  and  C_28
REMARK                            x       y       z     vdW  Elec       q    Type
REMARK                         _______ _______ _______ _____ _____    ______ ____
ROOT
ATOM      1  C   UNL     1      -2.335  -4.276   0.993  0.00  0.00    +0.058 C 
ATOM      2  C   UNL     1      -2.707  -4.340   2.478  0.00  0.00    +0.009 C 
ATOM      3  C   UNL     1      -4.104  -4.950   2.618  0.00  0.00    -0.018 C 
ATOM      4  C   UNL     1      -4.122  -6.330   1.955  0.00  0.00    -0.078 C 
ATOM      5  N   UNL     1      -3.784  -6.197   0.533  0.00  0.00    +0.386 N 
ATOM      6  C   UNL     1      -2.418  -5.680   0.390  0.00  0.00    -0.065 C 
ATOM      7  H   UNL     1      -4.431  -5.561   0.092  0.00  0.00    -0.081 HD
ENDROOT
BRANCH   1   9
ATOM      8  N   UNL     1      -0.620  -2.522   1.314  0.00  0.00    -0.313 N 
ATOM      9  C   UNL     1      -0.931  -3.748   0.849  0.00  0.00    +0.215 C 
ATOM     10  O   UNL     1      -0.080  -4.428   0.314  0.00  0.00    -0.276 OA
ATOM     11  H   UNL     1      -1.301  -1.979   1.741  0.00  0.00    +0.149 HD
BRANCH   8  12
ATOM     12  C   UNL     1       0.745  -2.009   1.173  0.00  0.00    +0.070 C 
ATOM     13  C   UNL     1       1.599  -2.507   2.340  0.00  0.00    +0.028 C 
BRANCH  12  14
ATOM     14  C   UNL     1       0.718  -0.479   1.177  0.00  0.00    +0.022 C 
BRANCH  14  16
ATOM     15  C   UNL     1      -0.059   1.550  -0.055  0.00  0.00    +0.004 C 
ATOM     16  C   UNL     1      -0.032   0.021  -0.059  0.00  0.00    -0.002 C 
ENDBRANCH  14  16
ENDBRANCH  12  14
ENDBRANCH   8  12
ENDBRANCH   1   9
BRANCH   5  17
ATOM     17  C   UNL     1      -3.878  -7.512  -0.116  0.00  0.00    +0.019 C 
BRANCH  17  18
ATOM     18  C   UNL     1      -5.308  -7.986  -0.087  0.00  0.00    +0.201 C 
ATOM     19  O   UNL     1      -6.165  -7.295   0.423  0.00  0.00    -0.278 OA
ATOM     20  N   UNL     1      -5.636  -9.176  -0.628  0.00  0.00    -0.286 N 
ATOM     21  H   UNL     1      -4.963  -9.698  -1.093  0.00  0.00    +0.155 HD
BRANCH  20  22
ATOM     22  C   UNL     1      -6.945  -9.658  -0.519  0.00  0.00    +0.052 A 
ATOM     23  C   UNL     1      -8.016  -8.775  -0.548  0.00  0.00    +0.025 A 
ATOM     24  C   UNL     1      -9.307  -9.254  -0.441  0.00  0.00    +0.005 A 
ATOM     25  C   UNL     1      -9.534 -10.611  -0.304  0.00  0.00    -0.049 A 
ATOM     26  C   UNL     1      -8.470 -11.494  -0.275  0.00  0.00    +0.025 A 
ATOM     27  C   UNL     1      -7.176 -11.022  -0.387  0.00  0.00    +0.062 A 
ATOM     28 CL   UNL     1      -5.841 -12.131  -0.357  0.00  0.00    -0.082 Cl
ATOM     29  C   UNL     1     -10.944 -11.130  -0.186  0.00  0.00    +0.044 C 
ENDBRANCH  20  22
ENDBRANCH  17  18
ENDBRANCH   5  17
TORSDOF 7
