REMARK  Name = ZINC06601753
REMARK  7 active torsions:
REMARK  status: ('A' for Active; 'I' for Inactive)
REMARK    1  A    between atoms: C_1  and  C_2
REMARK    2  A    between atoms: C_2  and  C_4
REMARK    3  A    between atoms: C_2  and  N_12
REMARK    4  A    between atoms: C_13  and  C_15
REMARK    5  A    between atoms: C_19  and  S_21
REMARK    6  A    between atoms: S_21  and  N_24
REMARK    7  A    between atoms: N_24  and  C_25
REMARK                            x       y       z     vdW  Elec       q    Type
REMARK                         _______ _______ _______ _____ _____    ______ ____
ROOT
ATOM      1  N   UNL     1      -0.099   1.351   2.570  0.00  0.00    -0.305 N 
ATOM      2  C   UNL     1       0.984   2.069   2.929  0.00  0.00    +0.245 C 
ATOM      3  O   UNL     1       1.438   2.905   2.173  0.00  0.00    -0.270 OA
ATOM      4  H   UNL     1      -0.461   0.684   3.174  0.00  0.00    +0.150 HD
ENDROOT
BRANCH   2   5
ATOM      5  C   UNL     1       1.619   1.839   4.244  0.00  0.00    +0.039 A 
ATOM      6  C   UNL     1       1.097   0.884   5.118  0.00  0.00    +0.013 A 
ATOM      7  C   UNL     1       1.698   0.671   6.341  0.00  0.00    +0.003 A 
ATOM      8  C   UNL     1       2.809   1.409   6.708  0.00  0.00    +0.028 A 
ATOM      9  C   UNL     1       3.329   2.361   5.849  0.00  0.00    +0.106 A 
ATOM     10  C   UNL     1       2.741   2.580   4.620  0.00  0.00    +0.041 A 
BRANCH   9  11
ATOM     11  S   UNL     1       4.745   3.296   6.325  0.00  0.00    +0.058 S 
ATOM     12  O   UNL     1       5.435   2.521   7.296  0.00  0.00    -0.153 OA
ATOM     13  O   UNL     1       5.362   3.739   5.124  0.00  0.00    -0.153 OA
BRANCH  11  14
ATOM     14  N   UNL     1       4.197   4.652   7.103  0.00  0.00    -0.193 NA
ATOM     15  C   UNL     1       3.483   4.527   8.376  0.00  0.00    +0.127 C 
ATOM     16  H   UNL     1       4.349   5.528   6.716  0.00  0.00    +0.148 HD
ENDBRANCH  11  14
ENDBRANCH   9  11
ENDBRANCH   2   5
BRANCH   1  18
ATOM     17  C   UNL     1      -0.045   0.709   0.210  0.00  0.00    +0.033 C 
ATOM     18  C   UNL     1      -0.729   1.579   1.267  0.00  0.00    +0.102 C 
BRANCH  18  19
ATOM     19  C   UNL     1      -2.190   1.218   1.345  0.00  0.00    -0.009 A 
ATOM     20  C   UNL     1      -2.620   0.275   2.259  0.00  0.00    +0.008 A 
ATOM     21  C   UNL     1      -3.960  -0.057   2.332  0.00  0.00    +0.020 A 
ATOM     22  C   UNL     1      -4.871   0.555   1.489  0.00  0.00    +0.042 A 
ATOM     23  C   UNL     1      -4.441   1.500   0.575  0.00  0.00    +0.040 A 
ATOM     24  C   UNL     1      -3.101   1.836   0.507  0.00  0.00    +0.047 A 
ATOM     25 CL   UNL     1      -2.561   3.026  -0.635  0.00  0.00    -0.083 Cl
ATOM     26 CL   UNL     1      -6.554   0.139   1.580  0.00  0.00    -0.083 Cl
ENDBRANCH  18  19
ENDBRANCH   1  18
TORSDOF 5
