REMARK  Name = ZINC04026577
REMARK  8 active torsions:
REMARK  status: ('A' for Active; 'I' for Inactive)
REMARK    1  A    between atoms: C_1  and  C_2
REMARK    2  A    between atoms: C_2  and  C_4
REMARK    3  A    between atoms: C_6  and  N_30
REMARK    4  A    between atoms: C_11  and  C_29
REMARK    5  A    between atoms: C_21  and  C_28
REMARK    6  A    between atoms: C_24  and  O_27
REMARK    7  A    between atoms: N_30  and  C_31
REMARK    8  A    between atoms: N_30  and  C_32
REMARK                            x       y       z     vdW  Elec       q    Type
REMARK                         _______ _______ _______ _____ _____    ______ ____
ROOT
ATOM      1  C   UNL     1       0.197   0.004  -1.605  0.00  0.00    +0.048 C 
ATOM      2  C   UNL     1      -1.303  -0.171  -1.938  0.00  0.00    -0.058 C 
ATOM      3  C   UNL     1      -1.734  -1.518  -1.327  0.00  0.00    -0.010 C 
ATOM      4  C   UNL     1      -0.482  -2.089  -0.607  0.00  0.00    -0.002 C 
ATOM      5  C   UNL     1       0.685  -1.437  -1.371  0.00  0.00    -0.021 C 
ATOM      6  C   UNL     1       1.997  -1.492  -0.624  0.00  0.00    +0.008 C 
ATOM      7  C   UNL     1       1.849  -0.917   0.782  0.00  0.00    +0.005 C 
ATOM      8  C   UNL     1       0.804  -1.744   1.545  0.00  0.00    +0.003 C 
ATOM      9  C   UNL     1      -0.566  -1.617   0.849  0.00  0.00    +0.000 C 
ATOM     10  C   UNL     1      -1.593  -2.504   1.568  0.00  0.00    +0.031 C 
ATOM     11  C   UNL     1      -1.596  -2.203   3.035  0.00  0.00    -0.027 C 
ATOM     12  C   UNL     1      -0.605  -1.647   3.656  0.00  0.00    -0.065 C 
ATOM     13  C   UNL     1       0.715  -1.201   2.967  0.00  0.00    -0.008 C 
ATOM     14  C   UNL     1       0.846   0.320   2.983  0.00  0.00    +0.014 C 
ATOM     15  C   UNL     1       0.114   0.895   4.195  0.00  0.00    +0.032 C 
ATOM     16  C   UNL     1       0.206  -0.048   5.393  0.00  0.00    +0.119 C 
ATOM     17  C   UNL     1      -0.713  -1.360   5.145  0.00  0.00    +0.062 C 
ATOM     18  C   UNL     1       1.884  -1.775   3.771  0.00  0.00    +0.016 C 
ATOM     19  C   UNL     1       0.857  -2.136  -2.721  0.00  0.00    +0.012 C 
ENDROOT
BRANCH   2  20
ATOM     20  N   UNL     1      -2.082   0.924  -1.345  0.00  0.00    +0.378 N 
ATOM     21  C   UNL     1      -1.519   2.212  -1.772  0.00  0.00    -0.096 C 
ATOM     22  C   UNL     1      -3.478   0.828  -1.790  0.00  0.00    -0.096 C 
ATOM     23  H   UNL     1      -2.044   0.857  -0.339  0.00  0.00    -0.082 HD
ENDBRANCH   2  20
BRANCH   1  25
ATOM     24  C   UNL     1       1.613   1.667  -0.175  0.00  0.00    +0.086 C 
ATOM     25  C   UNL     1       0.371   0.833  -0.359  0.00  0.00    +0.132 C 
ATOM     26  O   UNL     1      -0.485   0.830   0.493  0.00  0.00    -0.297 OA
ENDBRANCH   1  25
BRANCH  16  27
ATOM     27  O   UNL     1       1.565  -0.446   5.582  0.00  0.00    -0.391 OA
ATOM     28  H   UNL     1       1.714  -0.970   6.381  0.00  0.00    +0.210 HD
ENDBRANCH  16  27
TORSDOF 3
