REMARK  Name = ZINC15839542
REMARK  10 active torsions:
REMARK  status: ('A' for Active; 'I' for Inactive)
REMARK    1  A    between atoms: C_1  and  C_2
REMARK    2  A    between atoms: C_2  and  C_4
REMARK    3  A    between atoms: C_4  and  N_5
REMARK    4  A    between atoms: C_13  and  S_15
REMARK    5  A    between atoms: S_15  and  C_16
REMARK    6  A    between atoms: C_16  and  C_17
REMARK    7  A    between atoms: N_19  and  C_20
REMARK    8  A    between atoms: C_20  and  C_21
REMARK    9  A    between atoms: C_27  and  C_35
REMARK   10  A    between atoms: C_27  and  C_36
REMARK                            x       y       z     vdW  Elec       q    Type
REMARK                         _______ _______ _______ _____ _____    ______ ____
ROOT
ATOM      1  N   UNL     1       0.580  -4.281   7.121  0.00  0.00    -0.226 N 
ATOM      2  C   UNL     1       0.480  -5.609   6.837  0.00  0.00    +0.237 A 
ATOM      3  N   UNL     1       0.413  -6.673   7.622  0.00  0.00    -0.211 NA
ATOM      4  C   UNL     1       0.318  -7.899   7.106  0.00  0.00    +0.084 A 
ATOM      5  C   UNL     1       0.285  -8.072   5.726  0.00  0.00    +0.049 A 
ATOM      6  C   UNL     1       0.358  -6.946   4.904  0.00  0.00    +0.266 A 
ATOM      7  O   UNL     1       0.336  -7.061   3.689  0.00  0.00    -0.267 OA
ATOM      8  N   UNL     1       0.456  -5.728   5.479  0.00  0.00    -0.222 N 
ATOM      9  C   UNL     1       0.542  -4.465   4.936  0.00  0.00    +0.198 A 
ATOM     10  N   UNL     1       0.622  -3.595   5.901  0.00  0.00    -0.142 NA
ATOM     11  C   UNL     1       0.168  -9.450   5.139  0.00  0.00    +0.001 C 
ATOM     12  C   UNL     1       0.936 -10.462   5.985  0.00  0.00    +0.047 C 
ATOM     13  C   UNL     1       0.548 -10.345   7.434  0.00  0.00    -0.037 A 
ATOM     14  C   UNL     1       0.251  -9.094   7.978  0.00  0.00    +0.004 A 
ATOM     15  C   UNL     1      -0.102  -8.982   9.319  0.00  0.00    +0.010 A 
ATOM     16  C   UNL     1      -0.161 -10.114  10.108  0.00  0.00    +0.001 A 
ATOM     17  C   UNL     1       0.130 -11.353   9.565  0.00  0.00    +0.000 A 
ATOM     18  C   UNL     1       0.483 -11.468   8.232  0.00  0.00    +0.004 A 
ATOM     19  C   UNL     1      -1.307  -9.853   5.087  0.00  0.00    +0.016 C 
ATOM     20  C   UNL     1       0.740  -9.443   3.720  0.00  0.00    +0.016 C 
ENDROOT
BRANCH   1  21
ATOM     21  C   UNL     1       0.640  -3.682   8.457  0.00  0.00    +0.177 C 
BRANCH  21  23
ATOM     22  C   UNL     1       2.750  -4.757   9.555  0.00  0.00    +0.040 C 
ATOM     23  C   UNL     1       2.077  -3.579   8.898  0.00  0.00    -0.058 C 
ATOM     24  C   UNL     1       2.742  -2.466   8.710  0.00  0.00    +0.009 C 
ENDBRANCH  21  23
ENDBRANCH   1  21
BRANCH   9  25
ATOM     25  S   UNL     1       0.551  -4.088   3.215  0.00  0.00    -0.076 S 
BRANCH  25  26
ATOM     26  C   UNL     1       0.684  -2.284   3.288  0.00  0.00    +0.173 C 
BRANCH  26  27
ATOM     27  C   UNL     1       0.710  -1.725   1.889  0.00  0.00    +0.224 C 
ATOM     28  O   UNL     1       0.644  -2.473   0.936  0.00  0.00    -0.275 OA
ATOM     29  N   UNL     1       0.805  -0.395   1.696  0.00  0.00    -0.311 N 
ATOM     30  H   UNL     1       0.857   0.203   2.458  0.00  0.00    +0.149 HD
BRANCH  29  31
ATOM     31  C   UNL     1       0.830   0.149   0.336  0.00  0.00    +0.139 C 
BRANCH  31  32
ATOM     32  C   UNL     1       0.941   1.650   0.397  0.00  0.00    -0.030 A 
ATOM     33  C   UNL     1      -0.203   2.427   0.432  0.00  0.00    +0.005 A 
ATOM     34  C   UNL     1      -0.101   3.804   0.493  0.00  0.00    +0.000 A 
ATOM     35  C   UNL     1       1.144   4.405   0.509  0.00  0.00    +0.000 A 
ATOM     36  C   UNL     1       2.287   3.629   0.468  0.00  0.00    +0.000 A 
ATOM     37  C   UNL     1       2.185   2.252   0.412  0.00  0.00    +0.005 A 
ENDBRANCH  31  32
ENDBRANCH  29  31
ENDBRANCH  26  27
ENDBRANCH  25  26
ENDBRANCH   9  25
TORSDOF 7
