REMARK  Name = ZINC12604481
REMARK  8 active torsions:
REMARK  status: ('A' for Active; 'I' for Inactive)
REMARK    1  A    between atoms: C_1  and  N_2
REMARK    2  A    between atoms: C_6  and  C_7
REMARK    3  A    between atoms: C_7  and  C_9
REMARK    4  A    between atoms: C_7  and  N_16
REMARK    5  A    between atoms: C_17  and  C_19
REMARK    6  A    between atoms: N_22  and  S_25
REMARK    7  A    between atoms: S_25  and  C_28
REMARK    8  A    between atoms: C_31  and  C_34
REMARK                            x       y       z     vdW  Elec       q    Type
REMARK                         _______ _______ _______ _____ _____    ______ ____
ROOT
ATOM      1  N   UNL     1       1.500  -2.656  -2.184  0.00  0.00    -0.301 N 
ATOM      2  C   UNL     1       0.828  -1.999  -1.218  0.00  0.00    +0.217 C 
ATOM      3  O   UNL     1       0.219  -2.621  -0.373  0.00  0.00    -0.275 OA
ATOM      4  H   UNL     1       1.986  -2.158  -2.860  0.00  0.00    +0.150 HD
ENDROOT
BRANCH   2   5
ATOM      5  C   UNL     1       0.834  -0.492  -1.186  0.00  0.00    +0.077 C 
ATOM      6  C   UNL     1       0.002  -0.004   0.002  0.00  0.00    +0.030 C 
ATOM      7  C   UNL     1      -0.019   1.528   0.010  0.00  0.00    +0.110 C 
ATOM      8  N   UNL     1       1.366   2.019  -0.000  0.00  0.00    -0.177 NA
ATOM      9  C   UNL     1       2.277   1.541  -1.048  0.00  0.00    +0.110 C 
ATOM     10  C   UNL     1       2.272   0.009  -1.045  0.00  0.00    +0.030 C 
BRANCH   8  11
ATOM     11  S   UNL     1       1.889   3.092   1.148  0.00  0.00    +0.061 S 
ATOM     12  O   UNL     1       2.997   3.781   0.585  0.00  0.00    -0.153 OA
ATOM     13  O   UNL     1       0.735   3.768   1.628  0.00  0.00    -0.153 OA
BRANCH  11  14
ATOM     14  C   UNL     1       2.517   2.147   2.496  0.00  0.00    +0.106 A 
ATOM     15  C   UNL     1       1.674   1.776   3.529  0.00  0.00    +0.030 A 
ATOM     16  C   UNL     1       2.157   1.032   4.585  0.00  0.00    +0.021 A 
ATOM     17  C   UNL     1       3.503   0.662   4.615  0.00  0.00    +0.052 A 
ATOM     18  C   UNL     1       4.350   1.045   3.573  0.00  0.00    +0.021 A 
ATOM     19  C   UNL     1       3.852   1.784   2.520  0.00  0.00    +0.030 A 
BRANCH  17  20
ATOM     20  C   UNL     1       4.014  -0.106   5.711  0.00  0.00    +0.099 C 
ATOM     21  N   UNL     1       4.418  -0.715   6.580  0.00  0.00    -0.191 NA
ENDBRANCH  17  20
ENDBRANCH  11  14
ENDBRANCH   8  11
ENDBRANCH   2   5
BRANCH   1  22
ATOM     22  C   UNL     1       1.494  -4.120  -2.215  0.00  0.00    +0.169 C 
BRANCH  22  23
ATOM     23  C   UNL     1       2.726  -4.612  -2.929  0.00  0.00    -0.020 A 
ATOM     24  C   UNL     1       3.175  -3.959  -4.062  0.00  0.00    +0.007 A 
ATOM     25  C   UNL     1       4.308  -4.407  -4.715  0.00  0.00    +0.020 A 
ATOM     26  C   UNL     1       4.987  -5.515  -4.241  0.00  0.00    +0.041 A 
ATOM     27  C   UNL     1       4.534  -6.172  -3.111  0.00  0.00    +0.020 A 
ATOM     28  C   UNL     1       3.404  -5.720  -2.455  0.00  0.00    +0.007 A 
ATOM     29 CL   UNL     1       6.406  -6.083  -5.065  0.00  0.00    -0.084 Cl
ENDBRANCH  22  23
BRANCH  22  35
ATOM     30  C   UNL     1      -0.388  -6.415  -1.327  0.00  0.00    +0.150 C 
ATOM     31  N   UNL     1      -0.544  -5.606  -2.538  0.00  0.00    -0.336 N 
ATOM     32  C   UNL     1      -1.539  -5.724  -3.471  0.00  0.00    +0.106 A 
ATOM     33  C   UNL     1      -1.298  -4.795  -4.416  0.00  0.00    +0.130 A 
ATOM     34  N   UNL     1      -0.190  -4.125  -4.067  0.00  0.00    -0.238 NA
ATOM     35  C   UNL     1       0.265  -4.603  -2.941  0.00  0.00    +0.134 A 
ENDBRANCH  22  35
ENDBRANCH   1  22
TORSDOF 7
