REMARK  Name = ZINC37442806
REMARK  10 active torsions:
REMARK  status: ('A' for Active; 'I' for Inactive)
REMARK    1  A    between atoms: C_1  and  C_2
REMARK    2  A    between atoms: C_5  and  C_37
REMARK    3  A    between atoms: N_8  and  C_10
REMARK    4  A    between atoms: C_10  and  C_11
REMARK    5  A    between atoms: C_11  and  C_12
REMARK    6  A    between atoms: C_12  and  N_13
REMARK    7  A    between atoms: C_22  and  C_23
REMARK    8  A    between atoms: C_22  and  C_24
REMARK    9  A    between atoms: N_26  and  C_27
REMARK   10  A    between atoms: C_30  and  C_33
REMARK                            x       y       z     vdW  Elec       q    Type
REMARK                         _______ _______ _______ _____ _____    ______ ____
ROOT
ATOM      1  N   UNL     1       2.188   0.178   6.270  0.00  0.00    -0.281 N 
ATOM      2  C   UNL     1       2.510   1.371   6.823  0.00  0.00    +0.264 C 
ATOM      3  O   UNL     1       3.370   2.088   6.346  0.00  0.00    -0.268 OA
ATOM      4  C   UNL     1       1.763   1.752   8.028  0.00  0.00    +0.106 A 
ATOM      5  C   UNL     1       1.721   2.933   8.709  0.00  0.00    +0.048 A 
ATOM      6  C   UNL     1       0.841   2.761   9.771  0.00  0.00    +0.038 A 
ATOM      7  C   UNL     1       0.332   1.454   9.753  0.00  0.00    +0.057 A 
ATOM      8  N   UNL     1       0.926   0.842   8.664  0.00  0.00    -0.333 N 
ATOM      9  C   UNL     1       0.776  -0.535   8.188  0.00  0.00    +0.157 C 
ATOM     10  C   UNL     1       1.001  -0.567   6.673  0.00  0.00    +0.128 C 
ATOM     11  C   UNL     1      -0.221   0.035   5.974  0.00  0.00    +0.043 C 
ATOM     12  C   UNL     1      -0.578   1.143  10.774  0.00  0.00    +0.034 A 
ATOM     13  C   UNL     1      -0.909   2.073  11.694  0.00  0.00    +0.048 A 
ATOM     14  S   UNL     1       0.052   3.487  11.184  0.00  0.00    -0.095 S 
ENDROOT
BRANCH  10  15
ATOM     15  C   UNL     1       1.152  -2.000   6.232  0.00  0.00    +0.238 C 
ATOM     16  O   UNL     1       0.238  -2.560   5.665  0.00  0.00    -0.273 OA
ATOM     17  N   UNL     1       2.304  -2.660   6.469  0.00  0.00    -0.311 N 
ATOM     18  H   UNL     1       3.006  -2.238   6.989  0.00  0.00    +0.149 HD
BRANCH  17  19
ATOM     19  C   UNL     1       2.494  -4.013   5.942  0.00  0.00    +0.073 C 
ATOM     20  C   UNL     1       1.817  -5.022   6.870  0.00  0.00    +0.022 C 
ATOM     21  C   UNL     1       2.436  -4.927   8.266  0.00  0.00    +0.005 C 
ATOM     22  C   UNL     1       3.932  -5.236   8.183  0.00  0.00    -0.014 C 
ATOM     23  C   UNL     1       4.610  -4.226   7.254  0.00  0.00    +0.005 C 
ATOM     24  C   UNL     1       3.991  -4.322   5.859  0.00  0.00    +0.022 C 
ATOM     25  C   UNL     1       4.551  -5.141   9.579  0.00  0.00    +0.007 C 
ENDBRANCH  17  19
ENDBRANCH  10  15
BRANCH   1  26
ATOM     26  C   UNL     1       3.056  -0.380   5.230  0.00  0.00    +0.107 C 
BRANCH  26  27
ATOM     27  C   UNL     1       2.681   0.222   3.875  0.00  0.00    +0.000 C 
BRANCH  27  28
ATOM     28  C   UNL     1       3.505  -0.448   2.773  0.00  0.00    -0.077 C 
BRANCH  28  34
ATOM     29  C   UNL     1       1.332   1.823  -0.043  0.00  0.00    +0.005 C 
ATOM     30  C   UNL     1       1.231   0.298  -0.118  0.00  0.00    -0.031 C 
ATOM     31  C   UNL     1       2.123  -0.218  -1.251  0.00  0.00    +0.003 C 
ATOM     32  C   UNL     1       3.582   0.123  -0.935  0.00  0.00    -0.031 C 
ATOM     33  C   UNL     1       3.959  -0.479   0.420  0.00  0.00    -0.076 C 
ATOM     34  N   UNL     1       3.089   0.074   1.464  0.00  0.00    +0.380 N 
ATOM     35  C   UNL     1       1.695  -0.311   1.207  0.00  0.00    -0.076 C 
ATOM     36  C   UNL     1       4.489  -0.455  -2.023  0.00  0.00    +0.005 C 
ATOM     37  H   UNL     1       3.164   1.080   1.466  0.00  0.00    -0.082 HD
ENDBRANCH  28  34
ENDBRANCH  27  28
ENDBRANCH  26  27
ENDBRANCH   1  26
TORSDOF 6
