REMARK  Name = ZINC04941198
REMARK  3 active torsions:
REMARK  status: ('A' for Active; 'I' for Inactive)
REMARK    1  A    between atoms: C_5  and  C_6
REMARK    2  A    between atoms: N_8  and  C_9
REMARK    3  A    between atoms: C_9  and  C_10
REMARK                            x       y       z     vdW  Elec       q    Type
REMARK                         _______ _______ _______ _____ _____    ______ ____
ROOT
ATOM      1  C   UNL     1      -0.635   0.741  -2.427  0.00  0.00    +0.138 C 
ENDROOT
BRANCH   1   2
ATOM      2  C   UNL     1      -0.823   1.629  -1.196  0.00  0.00    +0.164 C 
ATOM      3  C   UNL     1      -0.013   1.086   0.008  0.00  0.00    +0.196 C 
ATOM      4  O   UNL     1      -0.745   1.579   1.148  0.00  0.00    -0.346 OA
ATOM      5  C   UNL     1      -2.079   1.870   0.698  0.00  0.00    +0.171 C 
ATOM      6  O   UNL     1      -2.180   1.547  -0.698  0.00  0.00    -0.342 OA
ATOM      7  C   UNL     1      -3.083   1.030   1.488  0.00  0.00    +0.065 C 
ATOM      8  C   UNL     1      -4.500   1.340   1.001  0.00  0.00    +0.005 C 
ATOM      9  C   UNL     1      -4.797   2.826   1.208  0.00  0.00    +0.000 C 
ATOM     10  C   UNL     1      -3.793   3.663   0.412  0.00  0.00    +0.005 C 
ATOM     11  C   UNL     1      -2.375   3.357   0.899  0.00  0.00    +0.065 C 
ENDBRANCH   1   2
BRANCH   1  14
ATOM     12  C   UNL     1      -1.286   0.736  -4.776  0.00  0.00    +0.279 C 
ATOM     13  O   UNL     1      -0.693  -0.319  -4.907  0.00  0.00    -0.267 OA
ATOM     14  N   UNL     1      -1.316   1.347  -3.575  0.00  0.00    -0.306 N 
ATOM     15  H   UNL     1      -1.788   2.187  -3.470  0.00  0.00    +0.149 HD
BRANCH  12  20
ATOM     16  C   UNL     1      -2.010   0.834  -7.191  0.00  0.00    +0.056 A 
ATOM     17  C   UNL     1      -2.765   1.732  -7.960  0.00  0.00    +0.058 A 
ATOM     18  C   UNL     1      -3.139   2.742  -7.140  0.00  0.00    +0.171 A 
ATOM     19  O   UNL     1      -2.656   2.502  -5.914  0.00  0.00    -0.444 OA
ATOM     20  C   UNL     1      -1.967   1.342  -5.923  0.00  0.00    +0.191 A 
ATOM     21 BR   UNL     1      -4.174   4.242  -7.643  0.00  0.00    -0.008 Br
ENDBRANCH  12  20
ENDBRANCH   1  14
TORSDOF 3
