REMARK  Name = ZINC67479065
REMARK  7 active torsions:
REMARK  status: ('A' for Active; 'I' for Inactive)
REMARK    1  A    between atoms: C_1  and  O_2
REMARK    2  A    between atoms: O_2  and  C_3
REMARK    3  A    between atoms: C_8  and  N_11
REMARK    4  A    between atoms: N_14  and  C_15
REMARK    5  A    between atoms: C_15  and  C_16
REMARK    6  A    between atoms: N_21  and  C_22
REMARK    7  A    between atoms: C_22  and  C_23
REMARK                            x       y       z     vdW  Elec       q    Type
REMARK                         _______ _______ _______ _____ _____    ______ ____
ROOT
ATOM      1  N   UNL     1      -1.052  -5.575   2.319  0.00  0.00    -0.296 N 
ATOM      2  C   UNL     1      -0.557  -6.697   2.878  0.00  0.00    +0.300 C 
ATOM      3  O   UNL     1       0.644  -6.890   2.891  0.00  0.00    -0.253 OA
ATOM      4  N   UNL     1      -1.391  -7.604   3.422  0.00  0.00    -0.301 N 
ATOM      5  H   UNL     1      -2.010  -5.420   2.309  0.00  0.00    +0.151 HD
ATOM      6  H   UNL     1      -2.349  -7.450   3.411  0.00  0.00    +0.150 HD
ENDROOT
BRANCH   1  12
ATOM      7  C   UNL     1       0.620  -0.613   1.032  0.00  0.00    +0.403 C 
ATOM      8  O   UNL     1       1.129   0.051   1.913  0.00  0.00    -0.226 OA
ATOM      9  N   UNL     1       0.674  -1.958   1.085  0.00  0.00    -0.267 N 
ATOM     10  C   UNL     1       0.069  -2.775   0.024  0.00  0.00    +0.113 C 
ATOM     11  C   UNL     1      -0.892  -3.781   0.664  0.00  0.00    +0.041 C 
ATOM     12  C   UNL     1      -0.145  -4.588   1.728  0.00  0.00    +0.077 C 
ATOM     13  C   UNL     1       0.365  -3.645   2.821  0.00  0.00    +0.041 C 
ATOM     14  C   UNL     1       1.345  -2.637   2.203  0.00  0.00    +0.113 C 
BRANCH   7  16
ATOM     15  C   UNL     1      -0.017   1.425   0.010  0.00  0.00    +0.282 C 
ATOM     16  O   UNL     1       0.002  -0.004   0.002  0.00  0.00    -0.454 OA
ENDBRANCH   7  16
ENDBRANCH   1  12
BRANCH   4  17
ATOM     17  C   UNL     1      -0.853  -8.824   4.029  0.00  0.00    +0.090 C 
BRANCH  17  18
ATOM     18  C   UNL     1      -2.003  -9.677   4.567  0.00  0.00    -0.051 C 
ATOM     19  C   UNL     1      -1.464 -11.037   5.056  0.00  0.00    -0.016 C 
ATOM     20  C   UNL     1      -2.573 -12.030   4.620  0.00  0.00    -0.020 C 
ATOM     21  C   UNL     1      -3.034 -11.414   3.275  0.00  0.00    -0.078 C 
ATOM     22  N   UNL     1      -2.972  -9.949   3.490  0.00  0.00    +0.383 N 
ATOM     23  H   UNL     1      -2.674  -9.493   2.641  0.00  0.00    -0.081 HD
BRANCH  22  24
ATOM     24  C   UNL     1      -4.297  -9.447   3.878  0.00  0.00    -0.075 C 
BRANCH  24  25
ATOM     25  C   UNL     1      -5.270  -9.619   2.710  0.00  0.00    -0.028 C 
ATOM     26  C   UNL     1      -4.828  -8.733   1.544  0.00  0.00    +0.002 C 
ATOM     27  C   UNL     1      -5.801  -8.905   0.376  0.00  0.00    +0.000 C 
ATOM     28  C   UNL     1      -7.208  -8.499   0.820  0.00  0.00    +0.000 C 
ATOM     29  C   UNL     1      -7.650  -9.385   1.987  0.00  0.00    +0.000 C 
ATOM     30  C   UNL     1      -6.677  -9.213   3.155  0.00  0.00    +0.002 C 
ENDBRANCH  24  25
ENDBRANCH  22  24
ENDBRANCH  17  18
ENDBRANCH   4  17
TORSDOF 6
