REMARK  Name = ZINC06802822
REMARK  7 active torsions:
REMARK  status: ('A' for Active; 'I' for Inactive)
REMARK    1  A    between atoms: C_1  and  C_2
REMARK    2  A    between atoms: C_4  and  C_28
REMARK    3  A    between atoms: N_8  and  C_13
REMARK    4  A    between atoms: C_13  and  C_14
REMARK    5  A    between atoms: N_16  and  C_17
REMARK    6  A    between atoms: C_22  and  C_27
REMARK    7  A    between atoms: C_24  and  C_26
REMARK                            x       y       z     vdW  Elec       q    Type
REMARK                         _______ _______ _______ _____ _____    ______ ____
ROOT
ATOM      1  C   UNL     1       2.466   0.980   0.118  0.00  0.00    +0.046 C 
ATOM      2  C   UNL     1       1.192   1.781   0.000  0.00  0.00    -0.025 A 
ATOM      3  C   UNL     1      -0.013   1.076   0.008  0.00  0.00    +0.028 A 
ATOM      4  C   UNL     1      -1.208   1.757   0.045  0.00  0.00    +0.040 A 
ATOM      5  N   UNL     1      -1.222   3.076   0.066  0.00  0.00    -0.244 NA
ATOM      6  C   UNL     1      -0.108   3.779   0.032  0.00  0.00    +0.119 A 
ATOM      7  C   UNL     1       1.158   3.160  -0.051  0.00  0.00    +0.072 A 
ATOM      8  N   UNL     1       2.267   3.975  -0.230  0.00  0.00    -0.259 N 
ATOM      9  C   UNL     1       2.478   5.147   0.372  0.00  0.00    +0.231 C 
ATOM     10  O   UNL     1       3.603   5.590   0.406  0.00  0.00    -0.274 OA
ATOM     11  C   UNL     1       1.367   5.938   1.010  0.00  0.00    +0.172 C 
ATOM     12  S   UNL     1      -0.174   5.543   0.123  0.00  0.00    -0.095 S 
ATOM     13  C   UNL     1      -2.508   0.994   0.061  0.00  0.00    +0.065 C 
ENDROOT
BRANCH   8  14
ATOM     14  C   UNL     1       3.266   3.619  -1.241  0.00  0.00    +0.209 C 
BRANCH  14  15
ATOM     15  C   UNL     1       2.897   4.254  -2.557  0.00  0.00    +0.231 C 
ATOM     16  O   UNL     1       1.897   4.935  -2.643  0.00  0.00    -0.274 OA
ATOM     17  N   UNL     1       3.677   4.064  -3.640  0.00  0.00    -0.311 N 
ATOM     18  H   UNL     1       4.476   3.518  -3.572  0.00  0.00    +0.149 HD
BRANCH  17  19
ATOM     19  C   UNL     1       3.318   4.680  -4.919  0.00  0.00    +0.076 C 
ATOM     20  C   UNL     1       2.325   3.780  -5.658  0.00  0.00    +0.022 C 
ATOM     21  C   UNL     1       1.950   4.424  -6.995  0.00  0.00    +0.002 C 
ATOM     22  C   UNL     1       3.209   4.603  -7.846  0.00  0.00    +0.003 C 
ATOM     23  C   UNL     1       4.201   5.503  -7.107  0.00  0.00    -0.009 C 
ATOM     24  C   UNL     1       4.577   4.859  -5.771  0.00  0.00    +0.009 C 
ATOM     25  C   UNL     1       5.218   3.493  -6.025  0.00  0.00    +0.009 C 
ATOM     26  C   UNL     1       5.460   5.681  -7.958  0.00  0.00    +0.008 C 
ENDBRANCH  17  19
ENDBRANCH  14  15
ENDBRANCH   8  14
TORSDOF 3
