REMARK  Name = ZINC39531140
REMARK  11 active torsions:
REMARK  status: ('A' for Active; 'I' for Inactive)
REMARK    1  A    between atoms: C_1  and  C_2
REMARK    2  A    between atoms: C_2  and  O_3
REMARK    3  A    between atoms: O_3  and  N_4
REMARK    4  A    between atoms: N_4  and  C_5
REMARK    5  A    between atoms: C_5  and  C_6
REMARK    6  A    between atoms: C_6  and  C_8
REMARK    7  A    between atoms: C_6  and  N_21
REMARK    8  A    between atoms: C_11  and  C_14
REMARK    9  A    between atoms: C_14  and  C_15
REMARK   10  A    between atoms: C_25  and  S_28
REMARK   11  A    between atoms: S_28  and  C_29
REMARK                            x       y       z     vdW  Elec       q    Type
REMARK                         _______ _______ _______ _____ _____    ______ ____
ROOT
ATOM      1  C   UNL     1       1.555  -3.877   2.523  0.00  0.00    -0.021 C 
ENDROOT
BRANCH   1   2
ATOM      2  N   UNL     1       2.037  -4.399   1.237  0.00  0.00    +0.387 N 
ATOM      3  C   UNL     1       1.188  -3.888   0.152  0.00  0.00    -0.062 C 
ATOM      4  C   UNL     1       1.702  -4.416  -1.189  0.00  0.00    +0.063 C 
ATOM      5  N   UNL     1       1.677  -5.885  -1.175  0.00  0.00    -0.308 NA
ATOM      6  C   UNL     1       2.502  -6.411  -0.079  0.00  0.00    +0.095 C 
ATOM      7  C   UNL     1       1.982  -5.866   1.254  0.00  0.00    -0.048 C 
ATOM      8  H   UNL     1       0.731  -6.231  -1.113  0.00  0.00    +0.123 HD
ATOM      9  H   UNL     1       2.989  -4.099   1.088  0.00  0.00    -0.081 HD
BRANCH   6  10
ATOM     10  S   UNL     1       2.413  -8.223  -0.069  0.00  0.00    -0.147 S 
ATOM     11  C   UNL     1       1.707  -8.636  -1.688  0.00  0.00    +0.086 C 
ENDBRANCH   6  10
ENDBRANCH   1   2
BRANCH   1  12
ATOM     12  C   UNL     1       2.327  -4.518   3.647  0.00  0.00    -0.060 A 
ATOM     13  C   UNL     1       3.688  -4.725   3.520  0.00  0.00    +0.002 A 
ATOM     14  C   UNL     1       4.396  -5.313   4.551  0.00  0.00    +0.004 A 
ATOM     15  C   UNL     1       3.744  -5.694   5.709  0.00  0.00    -0.043 A 
ATOM     16  C   UNL     1       2.383  -5.486   5.836  0.00  0.00    +0.004 A 
ATOM     17  C   UNL     1       1.675  -4.894   4.806  0.00  0.00    +0.002 A 
BRANCH  15  18
ATOM     18  C   UNL     1       4.516  -6.336   6.832  0.00  0.00    +0.070 C 
BRANCH  18  19
ATOM     19  C   UNL     1       5.022  -5.269   7.769  0.00  0.00    -0.043 A 
ATOM     20  C   UNL     1       6.258  -4.689   7.553  0.00  0.00    +0.004 A 
ATOM     21  C   UNL     1       6.722  -3.710   8.411  0.00  0.00    +0.000 A 
ATOM     22  C   UNL     1       5.949  -3.311   9.486  0.00  0.00    +0.000 A 
ATOM     23  C   UNL     1       4.713  -3.890   9.702  0.00  0.00    +0.000 A 
ATOM     24  C   UNL     1       4.247  -4.866   8.840  0.00  0.00    +0.004 A 
ENDBRANCH  18  19
ENDBRANCH  15  18
ENDBRANCH   1  12
BRANCH   1  25
ATOM     25  C   UNL     1       1.756  -2.360   2.565  0.00  0.00    +0.100 C 
BRANCH  25  26
ATOM     26  N   UNL     1       0.874  -1.721   1.580  0.00  0.00    -0.202 NA
ATOM     27  H   UNL     1      -0.089  -1.976   1.738  0.00  0.00    +0.154 HD
BRANCH  26  28
ATOM     28  O   UNL     1       1.040  -0.268   1.593  0.00  0.00    -0.300 OA
BRANCH  28  30
ATOM     29  C   UNL     1       0.466   1.925   0.756  0.00  0.00    +0.036 C 
ATOM     30  C   UNL     1       0.210   0.420   0.655  0.00  0.00    +0.182 C 
ENDBRANCH  28  30
ENDBRANCH  26  28
ENDBRANCH  25  26
ENDBRANCH   1  25
TORSDOF 9
