REMARK  Name = ZINC04902327
REMARK  6 active torsions:
REMARK  status: ('A' for Active; 'I' for Inactive)
REMARK    1  A    between atoms: C_4  and  C_7
REMARK    2  A    between atoms: C_10  and  C_12
REMARK    3  A    between atoms: N_14  and  C_15
REMARK    4  A    between atoms: C_20  and  N_21
REMARK    5  A    between atoms: C_22  and  C_24
REMARK    6  A    between atoms: C_27  and  C_29
REMARK                            x       y       z     vdW  Elec       q    Type
REMARK                         _______ _______ _______ _____ _____    ______ ____
ROOT
ATOM      1  C   UNL     1       2.044  -2.692  -4.261  0.00  0.00    +0.055 A 
ATOM      2  C   UNL     1       0.893  -1.933  -4.117  0.00  0.00    +0.025 A 
ATOM      3  C   UNL     1      -0.144  -2.072  -5.021  0.00  0.00    +0.002 A 
ATOM      4  C   UNL     1      -0.037  -2.967  -6.069  0.00  0.00    +0.002 A 
ATOM      5  C   UNL     1       1.106  -3.728  -6.220  0.00  0.00    +0.025 A 
ATOM      6  C   UNL     1       2.154  -3.591  -5.321  0.00  0.00    +0.055 A 
ENDROOT
BRANCH   1   9
ATOM      7  C   UNL     1       3.244  -1.403  -2.659  0.00  0.00    +0.221 C 
ATOM      8  O   UNL     1       2.528  -0.454  -2.904  0.00  0.00    -0.275 OA
ATOM      9  N   UNL     1       3.096  -2.553  -3.347  0.00  0.00    -0.284 N 
ATOM     10  H   UNL     1       3.719  -3.284  -3.208  0.00  0.00    +0.155 HD
BRANCH   7  13
ATOM     11  C   UNL     1       4.415   0.036  -0.843  0.00  0.00    +0.032 C 
ATOM     12  C   UNL     1       3.822  -1.185  -0.137  0.00  0.00    +0.022 C 
ATOM     13  C   UNL     1       4.298  -1.295  -1.587  0.00  0.00    +0.083 C 
BRANCH  11  17
ATOM     14  C   UNL     1       1.731   3.164  -1.965  0.00  0.00    +0.000 A 
ATOM     15  C   UNL     1       3.096   3.352  -2.075  0.00  0.00    +0.000 A 
ATOM     16  C   UNL     1       3.965   2.340  -1.712  0.00  0.00    +0.004 A 
ATOM     17  C   UNL     1       3.468   1.140  -1.238  0.00  0.00    -0.044 A 
ATOM     18  C   UNL     1       2.103   0.953  -1.126  0.00  0.00    +0.004 A 
ATOM     19  C   UNL     1       1.234   1.964  -1.491  0.00  0.00    +0.000 A 
ENDBRANCH  11  17
ENDBRANCH   7  13
ENDBRANCH   1   9
BRANCH   6  20
ATOM     20  N   UNL     1       3.316  -4.357  -5.475  0.00  0.00    -0.284 N 
ATOM     21  C   UNL     1       3.266  -5.534  -6.130  0.00  0.00    +0.221 C 
ATOM     22  O   UNL     1       2.199  -5.979  -6.497  0.00  0.00    -0.275 OA
ATOM     23  H   UNL     1       4.158  -4.041  -5.111  0.00  0.00    +0.155 HD
BRANCH  21  24
ATOM     24  C   UNL     1       4.535  -6.299  -6.405  0.00  0.00    +0.083 C 
ATOM     25  C   UNL     1       4.743  -7.617  -5.655  0.00  0.00    +0.022 C 
ATOM     26  C   UNL     1       4.411  -7.629  -7.150  0.00  0.00    +0.032 C 
BRANCH  26  27
ATOM     27  C   UNL     1       5.518  -7.997  -8.105  0.00  0.00    -0.044 A 
ATOM     28  C   UNL     1       6.812  -8.139  -7.641  0.00  0.00    +0.004 A 
ATOM     29  C   UNL     1       7.827  -8.477  -8.517  0.00  0.00    +0.000 A 
ATOM     30  C   UNL     1       7.547  -8.674  -9.856  0.00  0.00    +0.000 A 
ATOM     31  C   UNL     1       6.252  -8.533 -10.320  0.00  0.00    +0.000 A 
ATOM     32  C   UNL     1       5.237  -8.199  -9.443  0.00  0.00    +0.004 A 
ENDBRANCH  26  27
ENDBRANCH  21  24
ENDBRANCH   6  20
TORSDOF 6
