REMARK  Name = ZINC65182672
REMARK  8 active torsions:
REMARK  status: ('A' for Active; 'I' for Inactive)
REMARK    1  A    between atoms: C_1  and  C_2
REMARK    2  A    between atoms: C_7  and  C_13
REMARK    3  A    between atoms: C_9  and  C_12
REMARK    4  A    between atoms: C_16  and  C_19
REMARK    5  A    between atoms: C_19  and  C_20
REMARK    6  A    between atoms: C_20  and  N_21
REMARK    7  A    between atoms: N_21  and  C_22
REMARK    8  A    between atoms: C_23  and  C_25
REMARK                            x       y       z     vdW  Elec       q    Type
REMARK                         _______ _______ _______ _____ _____    ______ ____
ROOT
ATOM      1  C   UNL     1       1.978  -5.451   1.000  0.00  0.00    +0.318 C 
ATOM      2  N   UNL     1       1.755  -6.784   0.418  0.00  0.00    -0.291 N 
ATOM      3  C   UNL     1       1.753  -7.680   1.462  0.00  0.00    +0.139 C 
ATOM      4  N   UNL     1       1.940  -7.092   2.587  0.00  0.00    -0.072 NA
ATOM      5  O   UNL     1       2.095  -5.693   2.412  0.00  0.00    -0.367 OA
ATOM      6  H   UNL     1       1.633  -6.992  -0.522  0.00  0.00    +0.151 HD
ENDROOT
BRANCH   1  13
ATOM      7  C   UNL     1       1.282   1.107  -1.522  0.00  0.00    +0.044 C 
ATOM      8  C   UNL     1       1.091  -0.374  -1.325  0.00  0.00    -0.050 A 
ATOM      9  C   UNL     1       0.795  -1.178  -2.434  0.00  0.00    +0.005 A 
ATOM     10  C   UNL     1       0.610  -2.512  -2.340  0.00  0.00    +0.026 A 
ATOM     11  C   UNL     1       0.711  -3.164  -1.081  0.00  0.00    +0.043 A 
ATOM     12  N   UNL     1       0.576  -4.422  -0.736  0.00  0.00    -0.373 N 
ATOM     13  C   UNL     1       0.787  -4.535   0.712  0.00  0.00    +0.168 C 
ATOM     14  C   UNL     1       1.075  -3.133   1.200  0.00  0.00    -0.036 C 
ATOM     15  C   UNL     1       1.022  -2.338   0.107  0.00  0.00    -0.001 A 
ATOM     16  C   UNL     1       1.215  -0.895  -0.083  0.00  0.00    +0.013 A 
ATOM     17  C   UNL     1       1.361  -2.708   2.617  0.00  0.00    +0.042 C 
ATOM     18  H   UNL     1       0.370  -5.155  -1.337  0.00  0.00    +0.160 HD
ENDBRANCH   1  13
BRANCH   3  19
ATOM     19  C   UNL     1       1.555  -9.165   1.304  0.00  0.00    +0.094 C 
BRANCH  19  20
ATOM     20  C   UNL     1       1.614  -9.836   2.677  0.00  0.00    +0.115 C 
BRANCH  20  21
ATOM     21  N   UNL     1       1.421 -11.281   2.524  0.00  0.00    -0.298 N 
ATOM     22  C   UNL     1       2.578 -12.156   2.318  0.00  0.00    +0.132 C 
ATOM     23  C   UNL     1       0.180 -11.804   2.572  0.00  0.00    +0.282 C 
ATOM     24  O   UNL     1      -0.788 -11.069   2.646  0.00  0.00    -0.267 OA
BRANCH  23  25
ATOM     25  C   UNL     1      -0.004 -13.257   2.535  0.00  0.00    +0.191 A 
ATOM     26  C   UNL     1      -1.200 -13.913   2.456  0.00  0.00    +0.056 A 
ATOM     27  C   UNL     1      -0.909 -15.285   2.448  0.00  0.00    +0.058 A 
ATOM     28  C   UNL     1       0.437 -15.407   2.522  0.00  0.00    +0.171 A 
ATOM     29  O   UNL     1       0.978 -14.182   2.569  0.00  0.00    -0.444 OA
ATOM     30 BR   UNL     1       1.395 -17.037   2.547  0.00  0.00    -0.008 Br
ENDBRANCH  23  25
ENDBRANCH  20  21
ENDBRANCH  19  20
ENDBRANCH   3  19
TORSDOF 5
