REMARK  Name = ZINC57881923
REMARK  8 active torsions:
REMARK  status: ('A' for Active; 'I' for Inactive)
REMARK    1  A    between atoms: C_1  and  C_2
REMARK    2  A    between atoms: C_2  and  N_3
REMARK    3  A    between atoms: C_7  and  C_9
REMARK    4  A    between atoms: C_9  and  N_10
REMARK    5  A    between atoms: N_10  and  C_11
REMARK    6  A    between atoms: C_11  and  C_13
REMARK    7  A    between atoms: C_11  and  C_19
REMARK    8  A    between atoms: C_22  and  C_25
REMARK                            x       y       z     vdW  Elec       q    Type
REMARK                         _______ _______ _______ _____ _____    ______ ____
ROOT
ATOM      1  C   UNL     1       3.003  -6.021  -5.201  0.00  0.00    +0.115 C 
ENDROOT
BRANCH   1   2
ATOM      2  C   UNL     1       3.549  -7.397  -4.919  0.00  0.00    -0.026 A 
ATOM      3  C   UNL     1       2.802  -8.300  -4.185  0.00  0.00    +0.006 A 
ATOM      4  C   UNL     1       3.302  -9.562  -3.927  0.00  0.00    +0.004 A 
ATOM      5  C   UNL     1       4.549  -9.923  -4.404  0.00  0.00    -0.050 A 
ATOM      6  C   UNL     1       5.295  -9.021  -5.139  0.00  0.00    +0.004 A 
ATOM      7  C   UNL     1       4.793  -7.759  -5.400  0.00  0.00    +0.006 A 
ATOM      8  C   UNL     1       5.094 -11.299  -4.122  0.00  0.00    +0.044 C 
ENDBRANCH   1   2
BRANCH   1   9
ATOM      9  C   UNL     1       2.024  -6.092  -6.344  0.00  0.00    -0.026 A 
ATOM     10  C   UNL     1       0.728  -6.516  -6.118  0.00  0.00    +0.005 A 
ATOM     11  C   UNL     1      -0.170  -6.582  -7.167  0.00  0.00    +0.000 A 
ATOM     12  C   UNL     1       0.228  -6.223  -8.441  0.00  0.00    +0.000 A 
ATOM     13  C   UNL     1       1.524  -5.798  -8.667  0.00  0.00    +0.000 A 
ATOM     14  C   UNL     1       2.421  -5.729  -7.617  0.00  0.00    +0.005 A 
ENDBRANCH   1   9
BRANCH   1  15
ATOM     15  N   UNL     1       2.322  -5.510  -4.004  0.00  0.00    -0.298 NA
ATOM     16  H   UNL     1       2.749  -5.871  -3.163  0.00  0.00    +0.123 HD
BRANCH  15  17
ATOM     17  C   UNL     1       2.302  -4.041  -3.995  0.00  0.00    +0.178 C 
BRANCH  17  22
ATOM     18  N   UNL     1       0.688  -0.476  -1.203  0.00  0.00    -0.299 N 
ATOM     19  C   UNL     1       0.827  -1.799  -1.425  0.00  0.00    +0.306 C 
ATOM     20  O   UNL     1       0.383  -2.599  -0.625  0.00  0.00    -0.252 OA
ATOM     21  N   UNL     1       1.458  -2.233  -2.534  0.00  0.00    -0.239 N 
ATOM     22  C   UNL     1       1.597  -3.555  -2.756  0.00  0.00    +0.234 C 
ATOM     23  O   UNL     1       1.154  -4.354  -1.958  0.00  0.00    -0.274 OA
ATOM     24  H   UNL     1       1.042   0.162  -1.842  0.00  0.00    +0.150 HD
ATOM     25  H   UNL     1       1.812  -1.595  -3.172  0.00  0.00    +0.159 HD
BRANCH  18  27
ATOM     26  C   UNL     1      -0.019   1.526   0.010  0.00  0.00    +0.024 C 
ATOM     27  C   UNL     1       0.002  -0.004   0.002  0.00  0.00    +0.102 C 
ENDBRANCH  18  27
ENDBRANCH  17  22
ENDBRANCH  15  17
ENDBRANCH   1  15
TORSDOF 6
