REMARK  Name = ZINC15220957
REMARK  13 active torsions:
REMARK  status: ('A' for Active; 'I' for Inactive)
REMARK    1  A    between atoms: C_1  and  C_2
REMARK    2  A    between atoms: C_4  and  C_35
REMARK    3  A    between atoms: C_6  and  N_8
REMARK    4  A    between atoms: C_12  and  C_13
REMARK    5  A    between atoms: C_16  and  O_19
REMARK    6  A    between atoms: O_19  and  C_20
REMARK    7  A    between atoms: C_22  and  S_23
REMARK    8  A    between atoms: S_23  and  C_24
REMARK    9  A    between atoms: C_24  and  C_25
REMARK   10  A    between atoms: N_30  and  C_31
REMARK   11  A    between atoms: C_31  and  C_32
REMARK   12  A    between atoms: C_32  and  C_33
REMARK   13  A    between atoms: C_32  and  C_34
REMARK                            x       y       z     vdW  Elec       q    Type
REMARK                         _______ _______ _______ _____ _____    ______ ____
ROOT
ATOM      1  N   UNL     1       1.193  -0.497  -0.065  0.00  0.00    -0.214 N 
ATOM      2  C   UNL     1       2.107   0.497  -0.012  0.00  0.00    +0.275 C 
ATOM      3  O   UNL     1       3.318   0.383   0.040  0.00  0.00    -0.268 OA
ATOM      4  C   UNL     1       1.328   1.748  -0.031  0.00  0.00    +0.129 C 
ATOM      5  C   UNL     1       1.817   3.023   0.006  0.00  0.00    +0.041 C 
ATOM      6  N   UNL     1       0.015   1.372  -0.093  0.00  0.00    -0.220 NA
ATOM      7  C   UNL     1      -0.059   0.067  -0.113  0.00  0.00    +0.169 C 
ENDROOT
BRANCH   1  13
ATOM      8  C   UNL     1       0.927  -4.881   2.149  0.00  0.00    +0.044 C 
ATOM      9  C   UNL     1       1.357  -4.018   0.991  0.00  0.00    -0.048 A 
ATOM     10  C   UNL     1       2.029  -4.581  -0.079  0.00  0.00    +0.006 A 
ATOM     11  C   UNL     1       2.425  -3.792  -1.143  0.00  0.00    -0.048 A 
ATOM     12  C   UNL     1       2.149  -2.439  -1.141  0.00  0.00    +0.027 A 
ATOM     13  C   UNL     1       1.474  -1.871  -0.069  0.00  0.00    +0.044 A 
ATOM     14  C   UNL     1       1.084  -2.664   1.001  0.00  0.00    +0.027 A 
ATOM     15  C   UNL     1       3.157  -4.410  -2.306  0.00  0.00    +0.044 C 
ENDBRANCH   1  13
BRANCH   5  16
ATOM     16  C   UNL     1       0.898   4.159   0.126  0.00  0.00    -0.023 A 
ATOM     17  C   UNL     1       1.384   5.470   0.033  0.00  0.00    +0.011 A 
ATOM     18  C   UNL     1       0.515   6.532   0.139  0.00  0.00    +0.046 A 
ATOM     19  C   UNL     1      -0.841   6.306   0.351  0.00  0.00    +0.120 A 
ATOM     20  C   UNL     1      -1.328   5.007   0.450  0.00  0.00    +0.046 A 
ATOM     21  C   UNL     1      -0.469   3.937   0.339  0.00  0.00    +0.011 A 
BRANCH  19  22
ATOM     22  O   UNL     1      -1.692   7.357   0.461  0.00  0.00    -0.495 OA
ATOM     23  C   UNL     1      -1.127   8.665   0.350  0.00  0.00    +0.277 C 
ENDBRANCH  19  22
ENDBRANCH   5  16
BRANCH   7  24
ATOM     24  S   UNL     1      -1.563  -0.846  -0.190  0.00  0.00    -0.080 S 
BRANCH  24  25
ATOM     25  C   UNL     1      -2.756   0.515  -0.227  0.00  0.00    +0.173 C 
BRANCH  25  26
ATOM     26  C   UNL     1      -4.154  -0.044  -0.295  0.00  0.00    +0.231 C 
ATOM     27  O   UNL     1      -4.327  -1.244  -0.317  0.00  0.00    -0.274 OA
ATOM     28  N   UNL     1      -5.212   0.790  -0.332  0.00  0.00    -0.240 N 
ATOM     29  C   UNL     1      -6.462   0.290  -0.393  0.00  0.00    +0.306 C 
ATOM     30  O   UNL     1      -6.635  -0.913  -0.415  0.00  0.00    -0.252 OA
ATOM     31  N   UNL     1      -7.520   1.124  -0.430  0.00  0.00    -0.299 N 
ATOM     32  H   UNL     1      -5.074   1.750  -0.314  0.00  0.00    +0.159 HD
ATOM     33  H   UNL     1      -7.382   2.084  -0.412  0.00  0.00    +0.150 HD
BRANCH  31  34
ATOM     34  C   UNL     1      -8.879   0.581  -0.497  0.00  0.00    +0.108 C 
BRANCH  34  35
ATOM     35  C   UNL     1      -9.887   1.731  -0.527  0.00  0.00    -0.000 C 
ATOM     36  C   UNL     1      -9.708   2.532  -1.819  0.00  0.00    +0.009 C 
ATOM     37  C   UNL     1     -11.308   1.166  -0.471  0.00  0.00    +0.009 C 
ENDBRANCH  34  35
ENDBRANCH  31  34
ENDBRANCH  25  26
ENDBRANCH  24  25
ENDBRANCH   7  24
TORSDOF 8
