REMARK  Name = ZINC44670698
REMARK  11 active torsions:
REMARK  status: ('A' for Active; 'I' for Inactive)
REMARK    1  A    between atoms: C_1  and  C_2
REMARK    2  A    between atoms: C_5  and  C_8
REMARK    3  A    between atoms: C_8  and  N_10
REMARK    4  A    between atoms: C_8  and  C_19
REMARK    5  A    between atoms: C_11  and  C_12
REMARK    6  A    between atoms: C_13  and  O_18
REMARK    7  A    between atoms: C_19  and  N_21
REMARK    8  A    between atoms: C_19  and  C_30
REMARK    9  A    between atoms: C_22  and  C_23
REMARK   10  A    between atoms: C_24  and  O_29
REMARK   11  A    between atoms: C_33  and  C_36
REMARK                            x       y       z     vdW  Elec       q    Type
REMARK                         _______ _______ _______ _____ _____    ______ ____
ROOT
ATOM      1  C   UNL     1       0.066  -4.267  -0.024  0.00  0.00    +0.138 C 
ENDROOT
BRANCH   1   6
ATOM      2  C   UNL     1       0.030   1.512  -0.033  0.00  0.00    +0.044 C 
ATOM      3  C   UNL     1       0.040   0.005  -0.031  0.00  0.00    -0.050 A 
ATOM      4  C   UNL     1       0.035  -0.688  -1.227  0.00  0.00    +0.004 A 
ATOM      5  C   UNL     1       0.044  -2.070  -1.225  0.00  0.00    +0.006 A 
ATOM      6  C   UNL     1       0.058  -2.760  -0.027  0.00  0.00    -0.023 A 
ATOM      7  C   UNL     1       0.064  -2.067   1.169  0.00  0.00    +0.006 A 
ATOM      8  C   UNL     1       0.059  -0.684   1.167  0.00  0.00    +0.004 A 
ENDBRANCH   1   6
BRANCH   1   9
ATOM      9  N   UNL     1       0.966  -4.748   1.027  0.00  0.00    -0.381 N 
ATOM     10  C   UNL     1       1.983  -5.487   0.720  0.00  0.00    +0.090 C 
ATOM     11  H   UNL     1       0.799  -4.513   1.953  0.00  0.00    +0.160 HD
BRANCH  10  12
ATOM     12  C   UNL     1       2.949  -5.881   1.761  0.00  0.00    +0.032 A 
ATOM     13  C   UNL     1       2.707  -5.562   3.104  0.00  0.00    +0.125 A 
ATOM     14  C   UNL     1       3.622  -5.937   4.075  0.00  0.00    +0.046 A 
ATOM     15  C   UNL     1       4.768  -6.621   3.719  0.00  0.00    +0.004 A 
ATOM     16  C   UNL     1       5.011  -6.938   2.393  0.00  0.00    +0.001 A 
ATOM     17  C   UNL     1       4.109  -6.578   1.415  0.00  0.00    +0.013 A 
BRANCH  13  18
ATOM     18  O   UNL     1       1.581  -4.889   3.453  0.00  0.00    -0.506 OA
ATOM     19  H   UNL     1       0.829  -5.460   3.659  0.00  0.00    +0.292 HD
ENDBRANCH  13  18
ENDBRANCH  10  12
ENDBRANCH   1   9
BRANCH   1  20
ATOM     20  C   UNL     1      -1.349  -4.784   0.239  0.00  0.00    +0.162 C 
BRANCH  20  21
ATOM     21  C   UNL     1      -1.341  -6.291   0.241  0.00  0.00    -0.021 A 
ATOM     22  C   UNL     1      -1.341  -6.984  -0.955  0.00  0.00    +0.006 A 
ATOM     23  C   UNL     1      -1.334  -8.366  -0.953  0.00  0.00    +0.004 A 
ATOM     24  C   UNL     1      -1.325  -9.056   0.245  0.00  0.00    -0.050 A 
ATOM     25  C   UNL     1      -1.323  -8.363   1.442  0.00  0.00    +0.004 A 
ATOM     26  C   UNL     1      -1.327  -6.980   1.439  0.00  0.00    +0.006 A 
ATOM     27  C   UNL     1      -1.318 -10.563   0.248  0.00  0.00    +0.044 C 
ENDBRANCH  20  21
BRANCH  20  28
ATOM     28  N   UNL     1      -2.249  -4.302  -0.812  0.00  0.00    -0.281 NA
ATOM     29  C   UNL     1      -3.266  -3.563  -0.505  0.00  0.00    +0.117 C 
BRANCH  29  30
ATOM     30  C   UNL     1      -4.171  -3.079  -1.563  0.00  0.00    +0.034 A 
ATOM     31  C   UNL     1      -3.937  -3.421  -2.902  0.00  0.00    +0.125 A 
ATOM     32  C   UNL     1      -4.794  -2.959  -3.889  0.00  0.00    +0.046 A 
ATOM     33  C   UNL     1      -5.874  -2.166  -3.552  0.00  0.00    +0.004 A 
ATOM     34  C   UNL     1      -6.109  -1.826  -2.231  0.00  0.00    +0.001 A 
ATOM     35  C   UNL     1      -5.270  -2.281  -1.236  0.00  0.00    +0.013 A 
BRANCH  31  36
ATOM     36  O   UNL     1      -2.875  -4.199  -3.231  0.00  0.00    -0.506 OA
ATOM     37  H   UNL     1      -3.067  -5.147  -3.230  0.00  0.00    +0.292 HD
ENDBRANCH  31  36
ENDBRANCH  29  30
ENDBRANCH  20  28
ENDBRANCH   1  20
TORSDOF 9
