REMARK  Name = ZINC39966977
REMARK  7 active torsions:
REMARK  status: ('A' for Active; 'I' for Inactive)
REMARK    1  A    between atoms: C_6  and  N_7
REMARK    2  A    between atoms: C_8  and  C_10
REMARK    3  A    between atoms: C_10  and  S_11
REMARK    4  A    between atoms: S_11  and  C_12
REMARK    5  A    between atoms: C_15  and  C_24
REMARK    6  A    between atoms: N_16  and  C_17
REMARK    7  A    between atoms: C_17  and  C_18
REMARK                            x       y       z     vdW  Elec       q    Type
REMARK                         _______ _______ _______ _____ _____    ______ ____
ROOT
ATOM      1  C   UNL     1      -6.460  -0.764   0.433  0.00  0.00    +0.192 A 
ATOM      2  N   UNL     1      -6.455  -2.064   0.619  0.00  0.00    -0.122 NA
ATOM      3  N   UNL     1      -7.655  -2.491   0.786  0.00  0.00    -0.128 NA
ATOM      4  C   UNL     1      -8.502  -1.490   0.717  0.00  0.00    +0.166 A 
ATOM      5  N   UNL     1      -7.763  -0.352   0.495  0.00  0.00    -0.300 N 
ENDROOT
BRANCH   4   6
ATOM      6  C   UNL     1      -9.971  -1.571   0.859  0.00  0.00    +0.030 A 
ATOM      7  C   UNL     1     -10.630  -0.701   1.678  0.00  0.00    +0.057 A 
ATOM      8  S   UNL     1     -12.325  -1.224   1.480  0.00  0.00    -0.101 S 
ATOM      9  C   UNL     1     -12.043  -2.544   0.328  0.00  0.00    -0.006 A 
ATOM     10  C   UNL     1     -10.700  -2.543   0.143  0.00  0.00    -0.026 A 
ATOM     11  C   UNL     1     -10.007  -3.549  -0.773  0.00  0.00    +0.036 C 
ATOM     12  C   UNL     1     -10.973  -4.016  -1.855  0.00  0.00    +0.005 C 
ATOM     13  C   UNL     1     -11.754  -5.243  -1.389  0.00  0.00    +0.001 C 
ATOM     14  C   UNL     1     -12.608  -4.891  -0.175  0.00  0.00    +0.005 C 
ATOM     15  C   UNL     1     -13.061  -3.438  -0.303  0.00  0.00    +0.043 C 
ENDBRANCH   4   6
BRANCH   1  16
ATOM     16  S   UNL     1      -5.052   0.259   0.162  0.00  0.00    -0.077 S 
BRANCH  16  17
ATOM     17  C   UNL     1      -3.656  -0.899   0.195  0.00  0.00    +0.173 C 
BRANCH  17  19
ATOM     18  N   UNL     1      -1.196  -0.802  -0.044  0.00  0.00    -0.285 N 
ATOM     19  C   UNL     1      -2.371  -0.143  -0.027  0.00  0.00    +0.227 C 
ATOM     20  O   UNL     1      -2.395   1.058  -0.192  0.00  0.00    -0.275 OA
ATOM     21  H   UNL     1      -1.181  -1.771   0.015  0.00  0.00    +0.155 HD
BRANCH  18  27
ATOM     22  C   UNL     1       0.118   1.169   0.428  0.00  0.00    +0.023 A 
ATOM     23  C   UNL     1       1.305   1.867   0.325  0.00  0.00    +0.006 A 
ATOM     24  C   UNL     1       2.383   1.317  -0.349  0.00  0.00    -0.044 A 
ATOM     25  C   UNL     1       2.272   0.062  -0.922  0.00  0.00    -0.042 A 
ATOM     26  C   UNL     1       1.085  -0.640  -0.821  0.00  0.00    +0.027 A 
ATOM     27  C   UNL     1       0.005  -0.090  -0.146  0.00  0.00    +0.034 A 
ATOM     28  C   UNL     1       3.577  -0.309  -1.594  0.00  0.00    +0.036 C 
ATOM     29  C   UNL     1       4.345   1.021  -1.749  0.00  0.00    +0.009 C 
ATOM     30  C   UNL     1       3.769   1.872  -0.598  0.00  0.00    +0.036 C 
ENDBRANCH  18  27
ENDBRANCH  17  19
ENDBRANCH  16  17
ENDBRANCH   1  16
BRANCH   5  31
ATOM     31  C   UNL     1      -8.266   1.016   0.352  0.00  0.00    +0.157 C 
BRANCH  31  32
ATOM     32  C   UNL     1      -8.450   1.339  -1.132  0.00  0.00    +0.138 C 
ATOM     33  C   UNL     1      -8.864   2.817  -1.300  0.00  0.00    +0.035 C 
ATOM     34  C   UNL     1      -9.911   2.739  -2.444  0.00  0.00    +0.031 C 
ATOM     35  C   UNL     1     -10.569   1.367  -2.148  0.00  0.00    +0.160 C 
ATOM     36  O   UNL     1      -9.497   0.530  -1.680  0.00  0.00    -0.375 OA
ENDBRANCH  31  32
ENDBRANCH   5  31
TORSDOF 7
