REMARK  Name = ZINC10129324
REMARK  10 active torsions:
REMARK  status: ('A' for Active; 'I' for Inactive)
REMARK    1  A    between atoms: C_1  and  N_2
REMARK    2  A    between atoms: N_2  and  C_3
REMARK    3  A    between atoms: N_2  and  C_4
REMARK    4  A    between atoms: C_7  and  C_10
REMARK    5  A    between atoms: C_10  and  C_12
REMARK    6  A    between atoms: C_10  and  N_28
REMARK    7  A    between atoms: C_12  and  N_13
REMARK    8  A    between atoms: C_14  and  C_16
REMARK    9  A    between atoms: N_18  and  C_19
REMARK   10  A    between atoms: C_22  and  C_25
REMARK                            x       y       z     vdW  Elec       q    Type
REMARK                         _______ _______ _______ _____ _____    ______ ____
ROOT
ATOM      1  C   UNL     1      -3.434   2.243   0.934  0.00  0.00    +0.131 C 
ENDROOT
BRANCH   1   2
ATOM      2  N   UNL     1      -3.894   2.547  -0.423  0.00  0.00    -0.305 N 
ATOM      3  C   UNL     1      -4.728   3.585  -0.635  0.00  0.00    +0.299 C 
ATOM      4  O   UNL     1      -5.097   4.267   0.298  0.00  0.00    -0.265 OA
ATOM      5  H   UNL     1      -3.599   2.002  -1.169  0.00  0.00    +0.149 HD
BRANCH   3   6
ATOM      6  C   UNL     1      -5.197   3.896  -2.019  0.00  0.00    +0.303 C 
ATOM      7  O   UNL     1      -4.827   3.214  -2.952  0.00  0.00    -0.265 OA
ATOM      8  N   UNL     1      -6.030   4.934  -2.231  0.00  0.00    -0.278 N 
ATOM      9  H   UNL     1      -6.272   5.519  -1.497  0.00  0.00    +0.155 HD
BRANCH   8  10
ATOM     10  C   UNL     1      -6.544   5.165  -3.504  0.00  0.00    +0.034 A 
ATOM     11  C   UNL     1      -5.758   4.918  -4.626  0.00  0.00    +0.024 A 
ATOM     12  C   UNL     1      -6.266   5.141  -5.886  0.00  0.00    +0.015 A 
ATOM     13  C   UNL     1      -7.567   5.625  -6.038  0.00  0.00    +0.037 A 
ATOM     14  C   UNL     1      -8.352   5.877  -4.910  0.00  0.00    +0.015 A 
ATOM     15  C   UNL     1      -7.841   5.648  -3.652  0.00  0.00    +0.024 A 
BRANCH  13  16
ATOM     16  C   UNL     1      -8.113   5.870  -7.388  0.00  0.00    +0.242 C 
ATOM     17  O   UNL     1      -9.246   6.291  -7.519  0.00  0.00    -0.270 OA
ATOM     18  N   UNL     1      -7.354   5.626  -8.476  0.00  0.00    -0.325 N 
ATOM     19  H   UNL     1      -6.451   5.290  -8.371  0.00  0.00    +0.145 HD
ATOM     20  H   UNL     1      -7.713   5.787  -9.363  0.00  0.00    +0.145 HD
ENDBRANCH  13  16
ENDBRANCH   8  10
ENDBRANCH   3   6
ENDBRANCH   1   2
BRANCH   1  21
ATOM     21  C   UNL     1      -2.506   1.027   0.897  0.00  0.00    +0.121 C 
BRANCH  21  22
ATOM     22  N   UNL     1      -1.411   1.276  -0.050  0.00  0.00    -0.321 N 
ATOM     23  C   UNL     1      -1.001   2.697  -0.026  0.00  0.00    +0.110 C 
ATOM     24  C   UNL     1       0.504   2.621  -0.370  0.00  0.00    +0.056 C 
ATOM     25  C   UNL     1       0.883   1.225   0.084  0.00  0.00    -0.025 A 
ATOM     26  C   UNL     1      -0.289   0.500   0.265  0.00  0.00    +0.033 A 
ATOM     27  C   UNL     1      -0.208  -0.821   0.699  0.00  0.00    +0.023 A 
ATOM     28  C   UNL     1       1.022  -1.399   0.940  0.00  0.00    +0.002 A 
ATOM     29  C   UNL     1       2.182  -0.671   0.752  0.00  0.00    +0.000 A 
ATOM     30  C   UNL     1       2.110   0.643   0.323  0.00  0.00    +0.005 A 
ENDBRANCH  21  22
BRANCH  21  34
ATOM     31  C   UNL     1      -0.890   0.350   4.795  0.00  0.00    +0.029 A 
ATOM     32  C   UNL     1      -1.903  -0.467   4.311  0.00  0.00    +0.023 A 
ATOM     33  C   UNL     1      -2.424  -0.245   3.050  0.00  0.00    +0.007 A 
ATOM     34  C   UNL     1      -1.936   0.789   2.272  0.00  0.00    -0.025 A 
ATOM     35  C   UNL     1      -0.923   1.600   2.749  0.00  0.00    +0.007 A 
ATOM     36  C   UNL     1      -0.403   1.387   4.010  0.00  0.00    +0.023 A 
BRANCH  31  38
ATOM     37  C   UNL     1      -0.792  -1.034   6.849  0.00  0.00    +0.129 C 
ATOM     38  N   UNL     1      -0.361   0.129   6.069  0.00  0.00    -0.336 N 
ATOM     39  C   UNL     1       0.624   1.059   6.625  0.00  0.00    +0.129 C 
ENDBRANCH  31  38
ENDBRANCH  21  34
ENDBRANCH   1  21
TORSDOF 8
