REMARK  Name = ZINC23055843
REMARK  15 active torsions:
REMARK  status: ('A' for Active; 'I' for Inactive)
REMARK    1  A    between atoms: C_1  and  C_2
REMARK    2  A    between atoms: C_2  and  C_3
REMARK    3  A    between atoms: C_3  and  C_4
REMARK    4  A    between atoms: C_4  and  N_5
REMARK    5  A    between atoms: N_5  and  C_6
REMARK    6  A    between atoms: C_7  and  N_19
REMARK    7  A    between atoms: N_8  and  C_15
REMARK    8  A    between atoms: C_15  and  C_16
REMARK    9  A    between atoms: C_16  and  C_17
REMARK   10  A    between atoms: C_16  and  C_18
REMARK   11  A    between atoms: C_20  and  C_22
REMARK   12  A    between atoms: C_22  and  O_23
REMARK   13  A    between atoms: O_23  and  C_24
REMARK   14  A    between atoms: C_27  and  O_30
REMARK   15  A    between atoms: O_30  and  C_31
REMARK                            x       y       z     vdW  Elec       q    Type
REMARK                         _______ _______ _______ _____ _____    ______ ____
ROOT
ATOM      1  N   UNL     1       8.815   6.470   0.256  0.00  0.00    -0.261 N 
ATOM      2  C   UNL     1       8.868   5.138   0.047  0.00  0.00    +0.258 C 
ATOM      3  O   UNL     1       9.938   4.593  -0.130  0.00  0.00    -0.272 OA
ENDROOT
BRANCH   1   4
ATOM      4  C   UNL     1       9.990   7.245   0.168  0.00  0.00    +0.140 A 
ATOM      5  C   UNL     1      11.006   7.087   1.088  0.00  0.00    +0.127 A 
ATOM      6  N   UNL     1      12.140   7.858   0.975  0.00  0.00    -0.280 N 
ATOM      7  C   UNL     1      12.257   8.755  -0.021  0.00  0.00    +0.331 A 
ATOM      8  O   UNL     1      13.268   9.427  -0.103  0.00  0.00    -0.246 OA
ATOM      9  N   UNL     1      11.278   8.922  -0.927  0.00  0.00    -0.273 N 
ATOM     10  H   UNL     1      11.393   9.665  -1.730  0.00  0.00    +0.173 HD
ATOM     11  C   UNL     1      10.149   8.188  -0.865  0.00  0.00    +0.277 A 
ATOM     12  O   UNL     1       9.269   8.345  -1.694  0.00  0.00    -0.266 OA
BRANCH   5  13
ATOM     13  N   UNL     1      10.886   6.171   2.106  0.00  0.00    -0.343 N 
ATOM     14  H   UNL     1      11.700   6.051   2.836  0.00  0.00    +0.144 HD
ATOM     15  H   UNL     1       9.977   5.559   2.190  0.00  0.00    +0.144 HD
ENDBRANCH   5  13
BRANCH   6  16
ATOM     16  C   UNL     1      13.227   7.700   1.945  0.00  0.00    +0.131 C 
BRANCH  16  17
ATOM     17  C   UNL     1      14.207   6.637   1.445  0.00  0.00    +0.003 C 
ATOM     18  C   UNL     1      15.405   6.561   2.394  0.00  0.00    +0.009 C 
ATOM     19  C   UNL     1      13.506   5.278   1.399  0.00  0.00    +0.009 C 
ENDBRANCH  16  17
ENDBRANCH   6  16
ENDBRANCH   1   4
BRANCH   1  20
ATOM     20  C   UNL     1       7.537   7.111   0.576  0.00  0.00    +0.114 C 
BRANCH  20  21
ATOM     21  C   UNL     1       7.389   7.223   2.095  0.00  0.00    +0.019 C 
BRANCH  21  23
ATOM     22  C   UNL     1       5.906   8.005   3.947  0.00  0.00    +0.004 C 
ATOM     23  C   UNL     1       6.054   7.893   2.428  0.00  0.00    -0.002 C 
ENDBRANCH  21  23
ENDBRANCH  20  21
ENDBRANCH   1  20
BRANCH   2  24
ATOM     24  C   UNL     1       7.598   4.326   0.032  0.00  0.00    +0.325 C 
BRANCH  24  25
ATOM     25  O   UNL     1       7.913   2.953  -0.207  0.00  0.00    -0.483 OA
BRANCH  25  26
ATOM     26  C   UNL     1       6.872   2.079  -0.251  0.00  0.00    +0.121 A 
ATOM     27  C   UNL     1       7.107   0.732  -0.479  0.00  0.00    +0.049 A 
ATOM     28  C   UNL     1       6.049  -0.156  -0.523  0.00  0.00    +0.050 A 
ATOM     29  C   UNL     1       4.752   0.301  -0.341  0.00  0.00    +0.131 A 
ATOM     30  C   UNL     1       4.517   1.650  -0.119  0.00  0.00    +0.050 A 
ATOM     31  C   UNL     1       5.575   2.536  -0.069  0.00  0.00    +0.049 A 
BRANCH  29  32
ATOM     32  O   UNL     1       3.711  -0.573  -0.384  0.00  0.00    -0.438 OA
BRANCH  32  33
ATOM     33  C   UNL     1       3.511  -1.379   0.689  0.00  0.00    +0.220 A 
ATOM     34  C   UNL     1       2.399  -2.211   0.726  0.00  0.00    +0.067 A 
ATOM     35  C   UNL     1       2.206  -3.028   1.826  0.00  0.00    +0.007 A 
ATOM     36  C   UNL     1       3.136  -2.983   2.855  0.00  0.00    +0.020 A 
ATOM     37  C   UNL     1       4.218  -2.132   2.751  0.00  0.00    +0.114 A 
ATOM     38  N   UNL     1       4.376  -1.365   1.689  0.00  0.00    -0.221 NA
ENDBRANCH  32  33
ENDBRANCH  29  32
ENDBRANCH  25  26
ENDBRANCH  24  25
ENDBRANCH   2  24
TORSDOF 12
