REMARK  Name = ZINC13501223
REMARK  9 active torsions:
REMARK  status: ('A' for Active; 'I' for Inactive)
REMARK    1  A    between atoms: C_1  and  C_2
REMARK    2  A    between atoms: C_5  and  C_8
REMARK    3  A    between atoms: C_8  and  N_9
REMARK    4  A    between atoms: N_9  and  C_10
REMARK    5  A    between atoms: N_9  and  C_24
REMARK    6  A    between atoms: C_10  and  C_11
REMARK    7  A    between atoms: C_15  and  C_23
REMARK    8  A    between atoms: C_24  and  C_29
REMARK    9  A    between atoms: N_33  and  C_34
REMARK                            x       y       z     vdW  Elec       q    Type
REMARK                         _______ _______ _______ _____ _____    ______ ____
ROOT
ATOM      1  N   UNL     1       1.445  -4.746  -0.152  0.00  0.00    -0.282 NA
ENDROOT
BRANCH   1   2
ATOM      2  C   UNL     1       2.208  -4.580   1.091  0.00  0.00    +0.084 C 
ATOM      3  C   UNL     1       2.454  -3.086   1.364  0.00  0.00    +0.030 C 
ATOM      4  C   UNL     1       3.983  -2.886   1.379  0.00  0.00    +0.002 C 
ATOM      5  C   UNL     1       4.529  -4.069   0.541  0.00  0.00    +0.002 C 
ATOM      6  C   UNL     1       3.597  -5.237   0.950  0.00  0.00    +0.030 C 
BRANCH   2   7
ATOM      7  C   UNL     1       1.459  -5.200   2.243  0.00  0.00    +0.172 A 
ATOM      8  N   UNL     1       0.301  -5.810   2.186  0.00  0.00    -0.111 NA
ATOM      9  N   UNL     1      -0.004  -6.199   3.376  0.00  0.00    -0.023 NA
ATOM     10  N   UNL     1       0.930  -5.852   4.191  0.00  0.00    -0.044 NA
ATOM     11  N   UNL     1       1.853  -5.238   3.530  0.00  0.00    -0.224 N 
BRANCH  11  12
ATOM     12  C   UNL     1       3.094  -4.684   4.077  0.00  0.00    +0.111 C 
ATOM     13  C   UNL     1       3.899  -5.792   4.788  0.00  0.00    +0.027 C 
ATOM     14  C   UNL     1       4.522  -5.082   6.014  0.00  0.00    +0.002 C 
ATOM     15  C   UNL     1       3.392  -4.122   6.465  0.00  0.00    +0.002 C 
ATOM     16  C   UNL     1       2.772  -3.623   5.144  0.00  0.00    +0.027 C 
ENDBRANCH  11  12
ENDBRANCH   2   7
ENDBRANCH   1   2
BRANCH   1  17
ATOM     17  C   UNL     1       0.083  -4.215  -0.009  0.00  0.00    +0.120 C 
BRANCH  17  22
ATOM     18  C   UNL     1       0.270   1.560   0.112  0.00  0.00    +0.044 C 
ATOM     19  C   UNL     1       0.221   0.054   0.080  0.00  0.00    -0.050 A 
ATOM     20  C   UNL     1       0.279  -0.614  -1.129  0.00  0.00    +0.003 A 
ATOM     21  C   UNL     1       0.235  -1.996  -1.157  0.00  0.00    +0.005 A 
ATOM     22  C   UNL     1       0.133  -2.709   0.022  0.00  0.00    -0.033 A 
ATOM     23  C   UNL     1       0.075  -2.040   1.231  0.00  0.00    +0.005 A 
ATOM     24  C   UNL     1       0.124  -0.659   1.260  0.00  0.00    +0.003 A 
ENDBRANCH  17  22
ENDBRANCH   1  17
BRANCH   1  25
ATOM     25  C   UNL     1       1.419  -6.155  -0.570  0.00  0.00    +0.126 C 
BRANCH  25  26
ATOM     26  C   UNL     1       0.944  -6.247  -1.997  0.00  0.00    +0.032 A 
ATOM     27  C   UNL     1       1.846  -6.305  -3.007  0.00  0.00    +0.020 A 
ATOM     28  C   UNL     1       1.352  -6.394  -4.383  0.00  0.00    -0.001 A 
ATOM     29  C   UNL     1       2.235  -6.458  -5.466  0.00  0.00    +0.013 A 
ATOM     30  C   UNL     1       1.742  -6.541  -6.737  0.00  0.00    -0.050 A 
ATOM     31  C   UNL     1       0.373  -6.562  -6.964  0.00  0.00    +0.005 A 
ATOM     32  C   UNL     1      -0.515  -6.500  -5.912  0.00  0.00    +0.026 A 
ATOM     33  C   UNL     1      -0.037  -6.416  -4.609  0.00  0.00    +0.049 A 
ATOM     34  N   UNL     1      -0.902  -6.354  -3.538  0.00  0.00    -0.322 N 
ATOM     35  H   UNL     1      -1.859  -6.369  -3.695  0.00  0.00    +0.169 HD
ATOM     36  C   UNL     1      -0.439  -6.277  -2.277  0.00  0.00    +0.254 A 
ATOM     37  O   UNL     1      -1.234  -6.229  -1.354  0.00  0.00    -0.268 OA
ATOM     38  C   UNL     1       2.694  -6.609  -7.904  0.00  0.00    +0.044 C 
ENDBRANCH  25  26
ENDBRANCH   1  25
TORSDOF 7
