REMARK  Name = ZINC20573354
REMARK  10 active torsions:
REMARK  status: ('A' for Active; 'I' for Inactive)
REMARK    1  A    between atoms: C_1  and  C_2
REMARK    2  A    between atoms: C_2  and  C_3
REMARK    3  A    between atoms: C_3  and  C_5
REMARK    4  A    between atoms: C_3  and  N_30
REMARK    5  A    between atoms: C_7  and  C_21
REMARK    6  A    between atoms: C_21  and  S_22
REMARK    7  A    between atoms: S_22  and  C_23
REMARK    8  A    between atoms: N_30  and  C_31
REMARK    9  A    between atoms: C_31  and  C_32
REMARK   10  A    between atoms: C_32  and  C_33
REMARK                            x       y       z     vdW  Elec       q    Type
REMARK                         _______ _______ _______ _____ _____    ______ ____
ROOT
ATOM      1  C   UNL     1       0.870  -1.810  -1.167  0.00  0.00    +0.110 C 
ATOM      2  C   UNL     1       1.782  -2.131  -0.002  0.00  0.00    +0.058 C 
ATOM      3  N   UNL     1       1.093  -2.787   0.847  0.00  0.00    -0.178 NA
ATOM      4  N   UNL     1      -0.224  -2.988   0.444  0.00  0.00    -0.135 N 
ATOM      5  C   UNL     1      -0.454  -2.433  -0.768  0.00  0.00    +0.248 C 
ATOM      6  O   UNL     1      -1.491  -2.431  -1.397  0.00  0.00    -0.273 OA
ATOM      7  C   UNL     1      -1.175  -3.671   1.187  0.00  0.00    +0.189 A 
ATOM      8  N   UNL     1      -2.431  -3.916   0.891  0.00  0.00    -0.223 NA
ATOM      9  C   UNL     1      -3.251  -4.600   1.717  0.00  0.00    +0.080 A 
ATOM     10  C   UNL     1      -4.613  -4.928   1.520  0.00  0.00    +0.029 A 
ATOM     11  C   UNL     1      -5.306  -5.634   2.468  0.00  0.00    +0.002 A 
ATOM     12  C   UNL     1      -4.705  -6.050   3.647  0.00  0.00    +0.001 A 
ATOM     13  C   UNL     1      -3.375  -5.746   3.873  0.00  0.00    +0.017 A 
ATOM     14  C   UNL     1      -2.672  -5.040   2.930  0.00  0.00    +0.041 A 
ATOM     15  S   UNL     1      -1.003  -4.448   2.788  0.00  0.00    -0.050 S 
ENDROOT
BRANCH   1  16
ATOM     16  C   UNL     1       0.724  -0.296  -1.336  0.00  0.00    -0.054 C 
BRANCH  16  17
ATOM     17  N   UNL     1      -0.206  -0.014  -2.438  0.00  0.00    +0.382 N 
ATOM     18  H   UNL     1      -1.080  -0.488  -2.270  0.00  0.00    -0.085 HD
ATOM     19  H   UNL     1      -0.368   0.981  -2.495  0.00  0.00    -0.085 HD
BRANCH  17  20
ATOM     20  C   UNL     1       0.374  -0.489  -3.701  0.00  0.00    -0.076 C 
BRANCH  20  21
ATOM     21  C   UNL     1      -0.538  -0.090  -4.863  0.00  0.00    +0.038 C 
BRANCH  21  22
ATOM     22  C   UNL     1       0.057  -0.577  -6.159  0.00  0.00    +0.057 A 
ATOM     23  C   UNL     1      -0.560  -1.353  -7.071  0.00  0.00    +0.107 A 
ATOM     24  N   UNL     1       0.334  -1.556  -8.088  0.00  0.00    -0.351 N 
ATOM     25  H   UNL     1       0.182  -2.077  -8.892  0.00  0.00    +0.166 HD
ATOM     26  C   UNL     1       1.466  -0.896  -7.762  0.00  0.00    +0.196 A 
ATOM     27  N   UNL     1       1.291  -0.309  -6.610  0.00  0.00    -0.241 NA
ENDBRANCH  21  22
ENDBRANCH  20  21
ENDBRANCH  17  20
ENDBRANCH  16  17
BRANCH  16  29
ATOM     28  C   UNL     1       0.151   1.836  -0.166  0.00  0.00    +0.002 C 
ATOM     29  C   UNL     1       0.179   0.311  -0.042  0.00  0.00    -0.018 C 
ENDBRANCH  16  29
ENDBRANCH   1  16
BRANCH   2  30
ATOM     30  C   UNL     1       3.234  -1.746   0.129  0.00  0.00    +0.127 C 
BRANCH  30  31
ATOM     31  S   UNL     1       3.882  -2.364   1.707  0.00  0.00    -0.119 S 
BRANCH  31  32
ATOM     32  C   UNL     1       5.565  -1.841   1.710  0.00  0.00    +0.008 A 
ATOM     33  C   UNL     1       6.071  -1.119   0.637  0.00  0.00    +0.016 A 
ATOM     34  C   UNL     1       7.391  -0.710   0.642  0.00  0.00    +0.021 A 
ATOM     35  C   UNL     1       8.208  -1.020   1.715  0.00  0.00    +0.041 A 
ATOM     36  C   UNL     1       7.706  -1.739   2.786  0.00  0.00    +0.021 A 
ATOM     37  C   UNL     1       6.386  -2.146   2.789  0.00  0.00    +0.016 A 
ATOM     38 CL   UNL     1       9.866  -0.505   1.718  0.00  0.00    -0.084 Cl
ENDBRANCH  31  32
ENDBRANCH  30  31
ENDBRANCH   2  30
TORSDOF 9
