REMARK  Name = ZINC36485175
REMARK  8 active torsions:
REMARK  status: ('A' for Active; 'I' for Inactive)
REMARK    1  A    between atoms: C_3  and  N_8
REMARK    2  A    between atoms: N_8  and  C_9
REMARK    3  A    between atoms: C_9  and  C_11
REMARK    4  A    between atoms: C_9  and  C_18
REMARK    5  A    between atoms: N_20  and  C_21
REMARK    6  A    between atoms: C_27  and  C_29
REMARK    7  A    between atoms: C_33  and  O_36
REMARK    8  A    between atoms: C_34  and  O_35
REMARK                            x       y       z     vdW  Elec       q    Type
REMARK                         _______ _______ _______ _____ _____    ______ ____
ROOT
ATOM      1  N   UNL     1       3.721   2.650   0.221  0.00  0.00    -0.251 N 
ATOM      2  C   UNL     1       3.752   3.644  -0.688  0.00  0.00    +0.255 C 
ATOM      3  O   UNL     1       3.646   4.801  -0.328  0.00  0.00    -0.269 OA
ENDROOT
BRANCH   1   6
ATOM      4  C   UNL     1       1.760   3.146   3.291  0.00  0.00    +0.003 A 
ATOM      5  C   UNL     1       2.076   2.869   1.975  0.00  0.00    +0.023 A 
ATOM      6  C   UNL     1       3.397   2.930   1.552  0.00  0.00    +0.039 A 
ATOM      7  C   UNL     1       4.398   3.268   2.455  0.00  0.00    +0.043 A 
ATOM      8  C   UNL     1       4.075   3.544   3.770  0.00  0.00    +0.043 A 
ATOM      9  C   UNL     1       2.756   3.482   4.188  0.00  0.00    +0.020 A 
ATOM     10 CL   UNL     1       5.324   3.967   4.899  0.00  0.00    -0.083 Cl
ENDBRANCH   1   6
BRANCH   2  11
ATOM     11  C   UNL     1       3.915   3.330  -2.120  0.00  0.00    +0.082 A 
ATOM     12  C   UNL     1       4.551   2.148  -2.512  0.00  0.00    +0.017 A 
ATOM     13  C   UNL     1       4.701   1.857  -3.850  0.00  0.00    +0.005 A 
ATOM     14  C   UNL     1       4.225   2.731  -4.814  0.00  0.00    +0.049 A 
ATOM     15  C   UNL     1       3.595   3.906  -4.442  0.00  0.00    +0.159 A 
ATOM     16  C   UNL     1       3.430   4.211  -3.094  0.00  0.00    +0.171 A 
BRANCH  16  17
ATOM     17  O   UNL     1       2.807   5.359  -2.725  0.00  0.00    -0.503 OA
ATOM     18  H   UNL     1       3.402   6.114  -2.623  0.00  0.00    +0.292 HD
ENDBRANCH  16  17
BRANCH  15  19
ATOM     19  O   UNL     1       3.131   4.760  -5.394  0.00  0.00    -0.503 OA
ATOM     20  H   UNL     1       2.219   4.588  -5.666  0.00  0.00    +0.292 HD
ENDBRANCH  15  19
ENDBRANCH   2  11
BRANCH   1  21
ATOM     21  C   UNL     1       4.025   1.276  -0.186  0.00  0.00    +0.197 C 
BRANCH  21  22
ATOM     22  C   UNL     1       3.693   0.333   0.942  0.00  0.00    -0.018 A 
ATOM     23  C   UNL     1       2.373   0.088   1.272  0.00  0.00    +0.007 A 
ATOM     24  C   UNL     1       2.068  -0.776   2.307  0.00  0.00    +0.020 A 
ATOM     25  C   UNL     1       3.084  -1.397   3.011  0.00  0.00    +0.041 A 
ATOM     26  C   UNL     1       4.405  -1.152   2.680  0.00  0.00    +0.020 A 
ATOM     27  C   UNL     1       4.709  -0.291   1.642  0.00  0.00    +0.007 A 
ATOM     28 CL   UNL     1       2.702  -2.483   4.311  0.00  0.00    -0.084 Cl
ENDBRANCH  21  22
BRANCH  21  29
ATOM     29  C   UNL     1       3.205   0.917  -1.398  0.00  0.00    +0.239 C 
ATOM     30  O   UNL     1       2.441   1.730  -1.876  0.00  0.00    -0.273 OA
ATOM     31  N   UNL     1       3.320  -0.306  -1.952  0.00  0.00    -0.311 N 
ATOM     32  H   UNL     1       3.931  -0.956  -1.570  0.00  0.00    +0.149 HD
BRANCH  31  33
ATOM     33  C   UNL     1       2.522  -0.654  -3.131  0.00  0.00    +0.073 C 
ATOM     34  C   UNL     1       1.144  -1.146  -2.686  0.00  0.00    +0.022 C 
ATOM     35  C   UNL     1       0.311  -1.510  -3.917  0.00  0.00    +0.002 C 
ATOM     36  C   UNL     1       1.018  -2.616  -4.702  0.00  0.00    +0.000 C 
ATOM     37  C   UNL     1       2.397  -2.124  -5.147  0.00  0.00    +0.002 C 
ATOM     38  C   UNL     1       3.230  -1.761  -3.916  0.00  0.00    +0.022 C 
ENDBRANCH  31  33
ENDBRANCH  21  29
ENDBRANCH   1  21
TORSDOF 8
