REMARK  Name = ZINC04327957
REMARK  3 active torsions:
REMARK  status: ('A' for Active; 'I' for Inactive)
REMARK    1  A    between atoms: C_1  and  C_2
REMARK    2  A    between atoms: C_2  and  C_4
REMARK    3  A    between atoms: N_23  and  C_26
REMARK                            x       y       z     vdW  Elec       q    Type
REMARK                         _______ _______ _______ _____ _____    ______ ____
ROOT
ATOM      1  C   UNL     1      -0.039  -0.804  -1.333  0.00  0.00    +0.135 C 
ATOM      2  C   UNL     1       1.371  -0.712  -1.956  0.00  0.00    +0.116 C 
ATOM      3  C   UNL     1       1.605  -2.102  -2.611  0.00  0.00    +0.113 C 
ATOM      4  C   UNL     1       0.323  -2.894  -2.301  0.00  0.00    +0.100 C 
ATOM      5  N   UNL     1      -0.257  -2.261  -1.109  0.00  0.00    -0.384 NA
ATOM      6  C   UNL     1       0.412  -2.612   0.057  0.00  0.00    +0.054 C 
ATOM      7  C   UNL     1       0.992  -3.783   0.256  0.00  0.00    +0.022 C 
ATOM      8  C   UNL     1       0.938  -4.792  -0.824  0.00  0.00    -0.019 A 
ATOM      9  C   UNL     1       0.628  -4.343  -2.081  0.00  0.00    -0.021 A 
ATOM     10  C   UNL     1       0.573  -5.255  -3.112  0.00  0.00    +0.006 A 
ATOM     11  C   UNL     1       0.855  -6.589  -2.872  0.00  0.00    +0.000 A 
ATOM     12  C   UNL     1       1.193  -7.020  -1.602  0.00  0.00    +0.001 A 
ATOM     13  C   UNL     1       1.205  -6.134  -0.595  0.00  0.00    +0.008 A 
ATOM     14  C   UNL     1       1.674  -1.784  -4.087  0.00  0.00    +0.232 C 
ATOM     15  O   UNL     1       1.849  -2.595  -4.971  0.00  0.00    -0.274 OA
ATOM     16  N   UNL     1       1.511  -0.468  -4.267  0.00  0.00    -0.210 N 
ATOM     17  C   UNL     1       1.336   0.242  -3.128  0.00  0.00    +0.232 C 
ATOM     18  O   UNL     1       1.174   1.441  -3.050  0.00  0.00    -0.274 OA
ATOM     19  H   UNL     1      -1.243  -2.465  -1.038  0.00  0.00    +0.127 HD
ENDROOT
BRANCH  16  20
ATOM     20  C   UNL     1       1.527   0.133  -5.534  0.00  0.00    +0.045 A 
ATOM     21  C   UNL     1       0.506  -0.127  -6.439  0.00  0.00    +0.024 A 
ATOM     22  C   UNL     1       0.524   0.465  -7.686  0.00  0.00    +0.003 A 
ATOM     23  C   UNL     1       1.556   1.317  -8.034  0.00  0.00    +0.020 A 
ATOM     24  C   UNL     1       2.574   1.579  -7.135  0.00  0.00    +0.043 A 
ATOM     25  C   UNL     1       2.559   0.992  -5.883  0.00  0.00    +0.044 A 
ATOM     26 CL   UNL     1       3.868   2.649  -7.576  0.00  0.00    -0.083 Cl
ENDBRANCH  16  20
BRANCH   1  28
ATOM     27  C   UNL     1      -1.406   0.181   0.661  0.00  0.00    +0.088 C 
ATOM     28  C   UNL     1      -0.085  -0.057  -0.024  0.00  0.00    +0.150 C 
ATOM     29  O   UNL     1       0.936   0.350   0.475  0.00  0.00    -0.296 OA
ENDBRANCH   1  28
TORSDOF 2
