REMARK  Name = ZINC38701294
REMARK  13 active torsions:
REMARK  status: ('A' for Active; 'I' for Inactive)
REMARK    1  A    between atoms: C_1  and  C_2
REMARK    2  A    between atoms: C_2  and  C_3
REMARK    3  A    between atoms: C_3  and  C_4
REMARK    4  A    between atoms: C_4  and  O_5
REMARK    5  A    between atoms: O_5  and  C_6
REMARK    6  A    between atoms: C_10  and  C_12
REMARK    7  A    between atoms: C_17  and  O_26
REMARK    8  A    between atoms: C_21  and  N_25
REMARK    9  A    between atoms: C_22  and  C_23
REMARK   10  A    between atoms: O_26  and  C_27
REMARK   11  A    between atoms: C_27  and  C_29
REMARK   12  A    between atoms: C_30  and  C_39
REMARK   13  A    between atoms: C_33  and  C_38
REMARK                            x       y       z     vdW  Elec       q    Type
REMARK                         _______ _______ _______ _____ _____    ______ ____
ROOT
ATOM      1  C   UNL     1       3.001  -6.329  -5.093  0.00  0.00    +0.098 C 
ATOM      2  C   UNL     1       2.024  -7.165  -5.877  0.00  0.00    +0.008 A 
ATOM      3  C   UNL     1       1.007  -6.543  -6.580  0.00  0.00    +0.012 A 
ATOM      4  C   UNL     1       0.102  -7.293  -7.305  0.00  0.00    +0.047 A 
ATOM      5  C   UNL     1       0.211  -8.677  -7.330  0.00  0.00    +0.136 A 
ATOM      6  C   UNL     1       1.227  -9.303  -6.627  0.00  0.00    +0.093 A 
ATOM      7  C   UNL     1       2.136  -8.546  -5.898  0.00  0.00    +0.138 A 
ATOM      8  O   UNL     1       3.126  -9.174  -5.215  0.00  0.00    -0.441 OA
ATOM      9  C   UNL     1       4.217  -8.488  -4.836  0.00  0.00    +0.199 C 
ATOM     10  C   UNL     1       4.221  -7.139  -4.758  0.00  0.00    +0.098 C 
ENDROOT
BRANCH   1  15
ATOM     11  C   UNL     1       1.604  -4.078  -2.398  0.00  0.00    +0.121 A 
ATOM     12  C   UNL     1       1.145  -5.007  -1.476  0.00  0.00    +0.045 A 
ATOM     13  C   UNL     1       1.288  -6.358  -1.728  0.00  0.00    +0.004 A 
ATOM     14  C   UNL     1       1.888  -6.784  -2.898  0.00  0.00    +0.005 A 
ATOM     15  C   UNL     1       2.347  -5.861  -3.819  0.00  0.00    -0.031 A 
ATOM     16  C   UNL     1       2.201  -4.509  -3.574  0.00  0.00    +0.050 A 
BRANCH  11  17
ATOM     17  O   UNL     1       1.464  -2.749  -2.153  0.00  0.00    -0.492 OA
BRANCH  17  18
ATOM     18  C   UNL     1       0.840  -2.379  -0.922  0.00  0.00    +0.229 C 
BRANCH  18  19
ATOM     19  C   UNL     1       0.772  -0.853  -0.824  0.00  0.00    +0.041 C 
BRANCH  19  21
ATOM     20  C   UNL     1       0.035   1.069   0.593  0.00  0.00    +0.004 C 
ATOM     21  C   UNL     1       0.104  -0.457   0.495  0.00  0.00    -0.000 C 
ENDBRANCH  19  21
ENDBRANCH  18  19
ENDBRANCH  17  18
ENDBRANCH  11  17
ENDBRANCH   1  15
BRANCH   9  22
ATOM     22  N   UNL     1       5.360  -9.178  -4.518  0.00  0.00    -0.328 N 
ATOM     23  H   UNL     1       5.372 -10.147  -4.569  0.00  0.00    +0.145 HD
ATOM     24  H   UNL     1       6.157  -8.698  -4.243  0.00  0.00    +0.145 HD
ENDBRANCH   9  22
BRANCH  10  25
ATOM     25  C   UNL     1       5.417  -6.469  -4.346  0.00  0.00    +0.101 C 
ATOM     26  N   UNL     1       6.366  -5.936  -4.019  0.00  0.00    -0.191 NA
ENDBRANCH  10  25
BRANCH   5  27
ATOM     27  O   UNL     1      -0.678  -9.417  -8.043  0.00  0.00    -0.420 OA
BRANCH  27  28
ATOM     28  C   UNL     1      -1.556 -10.181  -7.362  0.00  0.00    +0.380 C 
ATOM     29  O   UNL     1      -1.606 -10.115  -6.149  0.00  0.00    -0.241 OA
BRANCH  28  30
ATOM     30  C   UNL     1      -2.451 -11.093  -8.084  0.00  0.00    +0.216 A 
ATOM     31  C   UNL     1      -3.376 -11.904  -7.506  0.00  0.00    +0.010 A 
ATOM     32  C   UNL     1      -4.026 -12.622  -8.601  0.00  0.00    +0.024 A 
ATOM     33  C   UNL     1      -5.040 -13.581  -8.669  0.00  0.00    +0.015 A 
ATOM     34  C   UNL     1      -5.430 -14.068  -9.885  0.00  0.00    -0.050 A 
ATOM     35  C   UNL     1      -4.826 -13.616 -11.050  0.00  0.00    +0.007 A 
ATOM     36  C   UNL     1      -3.825 -12.671 -11.004  0.00  0.00    +0.047 A 
ATOM     37  C   UNL     1      -3.410 -12.161  -9.779  0.00  0.00    +0.136 A 
ATOM     38  O   UNL     1      -2.485 -11.248  -9.425  0.00  0.00    -0.448 OA
ATOM     39  C   UNL     1      -6.523 -15.103  -9.961  0.00  0.00    +0.044 C 
ATOM     40  C   UNL     1      -3.670 -12.036  -6.034  0.00  0.00    +0.048 C 
ENDBRANCH  28  30
ENDBRANCH  27  28
ENDBRANCH   5  27
TORSDOF 10
