REMARK  Name = ZINC04017664
REMARK  10 active torsions:
REMARK  status: ('A' for Active; 'I' for Inactive)
REMARK    1  A    between atoms: C_1  and  C_2
REMARK    2  A    between atoms: C_2  and  C_17
REMARK    3  A    between atoms: N_3  and  N_4
REMARK    4  A    between atoms: N_4  and  C_5
REMARK    5  A    between atoms: C_8  and  N_14
REMARK    6  A    between atoms: C_10  and  N_11
REMARK    7  A    between atoms: C_17  and  C_18
REMARK    8  A    between atoms: C_18  and  C_20
REMARK    9  A    between atoms: C_18  and  C_26
REMARK   10  A    between atoms: C_27  and  O_37
REMARK                            x       y       z     vdW  Elec       q    Type
REMARK                         _______ _______ _______ _____ _____    ______ ____
ROOT
ATOM      1  C   UNL     1      -1.045  -0.721  -0.325  0.00  0.00    +0.065 C 
ENDROOT
BRANCH   1   2
ATOM      2  C   UNL     1       0.343  -0.141  -0.416  0.00  0.00    +0.087 A 
ATOM      3  C   UNL     1       0.521   1.215  -0.421  0.00  0.00    +0.138 A 
ATOM      4  C   UNL     1       1.896   1.731  -0.511  0.00  0.00    +0.059 A 
ATOM      5  C   UNL     1       2.152   3.104  -0.521  0.00  0.00    +0.015 A 
ATOM      6  C   UNL     1       3.451   3.554  -0.607  0.00  0.00    +0.001 A 
ATOM      7  C   UNL     1       4.501   2.651  -0.683  0.00  0.00    +0.004 A 
ATOM      8  C   UNL     1       4.262   1.292  -0.675  0.00  0.00    +0.047 A 
ATOM      9  C   UNL     1       2.960   0.818  -0.589  0.00  0.00    +0.143 A 
ATOM     10  O   UNL     1       2.708  -0.509  -0.579  0.00  0.00    -0.422 OA
ATOM     11  C   UNL     1       1.457  -0.989  -0.497  0.00  0.00    +0.345 A 
ATOM     12  O   UNL     1       1.285  -2.196  -0.492  0.00  0.00    -0.245 OA
BRANCH   3  13
ATOM     13  O   UNL     1      -0.535   2.057  -0.349  0.00  0.00    -0.506 OA
ATOM     14  H   UNL     1      -0.786   2.298   0.553  0.00  0.00    +0.292 HD
ENDBRANCH   3  13
ENDBRANCH   1   2
BRANCH   1  15
ATOM     15  C   UNL     1      -1.353  -1.487  -1.585  0.00  0.00    -0.039 A 
ATOM     16  C   UNL     1      -1.982  -0.856  -2.642  0.00  0.00    +0.004 A 
ATOM     17  C   UNL     1      -2.260  -1.558  -3.800  0.00  0.00    +0.000 A 
ATOM     18  C   UNL     1      -1.917  -2.894  -3.897  0.00  0.00    +0.000 A 
ATOM     19  C   UNL     1      -1.292  -3.526  -2.839  0.00  0.00    +0.000 A 
ATOM     20  C   UNL     1      -1.010  -2.823  -1.683  0.00  0.00    +0.004 A 
ENDBRANCH   1  15
BRANCH   1  21
ATOM     21  C   UNL     1      -1.126  -1.663   0.878  0.00  0.00    +0.065 C 
BRANCH  21  23
ATOM     22  C   UNL     1      -3.638  -1.172   1.391  0.00  0.00    +0.062 C 
ATOM     23  C   UNL     1      -2.544  -2.148   1.042  0.00  0.00    +0.035 C 
ATOM     24  N   UNL     1      -2.818  -3.388   0.885  0.00  0.00    -0.192 NA
BRANCH  24  25
ATOM     25  N   UNL     1      -4.136  -3.838   1.037  0.00  0.00    -0.236 N 
ATOM     26  H   UNL     1      -4.840  -3.210   1.262  0.00  0.00    +0.174 HD
BRANCH  25  27
ATOM     27  C   UNL     1      -4.436  -5.191   0.866  0.00  0.00    +0.079 A 
ATOM     28  C   UNL     1      -3.414  -6.109   0.651  0.00  0.00    +0.029 A 
ATOM     29  C   UNL     1      -3.714  -7.446   0.482  0.00  0.00    +0.035 A 
ATOM     30  C   UNL     1      -5.029  -7.873   0.528  0.00  0.00    +0.128 A 
ATOM     31  C   UNL     1      -6.048  -6.962   0.742  0.00  0.00    +0.067 A 
ATOM     32  C   UNL     1      -5.755  -5.624   0.916  0.00  0.00    +0.151 A 
BRANCH  32  33
ATOM     33  N   UNL     1      -6.846  -4.651   1.151  0.00  0.00    +0.058 N 
ATOM     34  O   UNL     1      -8.008  -5.006   1.063  0.00  0.00    -0.126 OA
ATOM     35  O   UNL     1      -6.581  -3.496   1.431  0.00  0.00    -0.126 OA
ENDBRANCH  32  33
BRANCH  30  36
ATOM     36  N   UNL     1      -5.347  -9.307   0.347  0.00  0.00    +0.056 N 
ATOM     37  O   UNL     1      -4.451 -10.110   0.159  0.00  0.00    -0.126 OA
ATOM     38  O   UNL     1      -6.504  -9.684   0.387  0.00  0.00    -0.126 OA
ENDBRANCH  30  36
ENDBRANCH  25  27
ENDBRANCH  24  25
ENDBRANCH  21  23
ENDBRANCH   1  21
TORSDOF 9
