REMARK  Name = ZINC63302965
REMARK  6 active torsions:
REMARK  status: ('A' for Active; 'I' for Inactive)
REMARK    1  A    between atoms: C_8  and  C_11
REMARK    2  A    between atoms: N_13  and  C_14
REMARK    3  A    between atoms: C_14  and  C_15
REMARK    4  A    between atoms: N_17  and  C_18
REMARK    5  A    between atoms: C_18  and  C_19
REMARK    6  A    between atoms: C_19  and  C_20
REMARK                            x       y       z     vdW  Elec       q    Type
REMARK                         _______ _______ _______ _____ _____    ______ ____
ROOT
ATOM      1  C   UNL     1       2.430  -4.875  -4.460  0.00  0.00    +0.230 C 
ATOM      2  O   UNL     1       2.003  -5.657  -3.638  0.00  0.00    -0.274 OA
ATOM      3  N   UNL     1       2.459  -5.216  -5.764  0.00  0.00    -0.314 N 
ATOM      4  H   UNL     1       2.800  -4.590  -6.421  0.00  0.00    +0.149 HD
ENDROOT
BRANCH   1   5
ATOM      5  C   UNL     1       2.928  -3.521  -4.025  0.00  0.00    +0.200 C 
BRANCH   5   8
ATOM      6  C   UNL     1       3.176  -2.260  -1.954  0.00  0.00    +0.255 C 
ATOM      7  O   UNL     1       3.635  -1.343  -2.602  0.00  0.00    -0.272 OA
ATOM      8  N   UNL     1       2.791  -3.394  -2.571  0.00  0.00    -0.304 N 
ATOM      9  H   UNL     1       2.424  -4.128  -2.053  0.00  0.00    +0.149 HD
BRANCH   6  17
ATOM     10  C   UNL     1      -0.017   1.379   0.010  0.00  0.00    +0.000 A 
ATOM     11  C   UNL     1       1.174   2.082   0.002  0.00  0.00    +0.004 A 
ATOM     12  C   UNL     1       2.379   1.411  -0.009  0.00  0.00    +0.046 A 
ATOM     13  C   UNL     1       2.407   0.019  -0.014  0.00  0.00    +0.125 A 
ATOM     14  C   UNL     1       1.204  -0.676  -0.014  0.00  0.00    -0.002 A 
ATOM     15  C   UNL     1       0.002  -0.004   0.002  0.00  0.00    +0.007 A 
ATOM     16  C   UNL     1       1.545  -2.154  -0.045  0.00  0.00    +0.093 C 
ATOM     17  C   UNL     1       3.035  -2.130  -0.460  0.00  0.00    +0.263 C 
ATOM     18  O   UNL     1       3.469  -0.834  -0.014  0.00  0.00    -0.479 OA
ENDBRANCH   6  17
ENDBRANCH   5   8
ENDBRANCH   1   5
BRANCH   3  19
ATOM     19  C   UNL     1       1.975  -6.532  -6.188  0.00  0.00    +0.108 C 
BRANCH  19  20
ATOM     20  C   UNL     1       2.118  -6.664  -7.705  0.00  0.00    +0.052 C 
BRANCH  20  21
ATOM     21  C   UNL     1       1.620  -8.018  -8.141  0.00  0.00    -0.040 C 
ATOM     22  C   UNL     1       0.384  -8.321  -8.599  0.00  0.00    -0.001 A 
ATOM     23  C   UNL     1      -0.821  -7.512  -8.819  0.00  0.00    +0.010 A 
ATOM     24  C   UNL     1      -1.935  -8.111  -9.297  0.00  0.00    +0.001 A 
ATOM     25  C   UNL     1      -1.968  -9.482  -9.588  0.00  0.00    +0.002 A 
ATOM     26  C   UNL     1      -0.901 -10.290  -9.412  0.00  0.00    +0.026 A 
ATOM     27  C   UNL     1       0.324  -9.766  -8.914  0.00  0.00    +0.043 A 
ATOM     28  N   UNL     1       1.477 -10.334  -8.660  0.00  0.00    -0.380 N 
ATOM     29  C   UNL     1       2.403  -9.311  -8.161  0.00  0.00    +0.144 C 
ATOM     30  H   UNL     1       1.685 -11.274  -8.785  0.00  0.00    +0.160 HD
ENDBRANCH  20  21
ENDBRANCH  19  20
ENDBRANCH   3  19
TORSDOF 6
