REMARK  Name = ZINC08425031
REMARK  4 active torsions:
REMARK  status: ('A' for Active; 'I' for Inactive)
REMARK    1  A    between atoms: C_3  and  C_6
REMARK    2  A    between atoms: C_6  and  N_7
REMARK    3  A    between atoms: C_11  and  C_12
REMARK    4  A    between atoms: C_15  and  C_17
REMARK                            x       y       z     vdW  Elec       q    Type
REMARK                         _______ _______ _______ _____ _____    ______ ____
ROOT
ATOM      1  N   UNL     1       3.812   0.632   1.487  0.00  0.00    -0.248 N 
ATOM      2  C   UNL     1       3.985  -0.523   2.105  0.00  0.00    +0.259 C 
ATOM      3  O   UNL     1       3.508  -1.551   1.659  0.00  0.00    -0.269 OA
ATOM      4  C   UNL     1       4.747  -0.530   3.313  0.00  0.00    +0.080 C 
ATOM      5  C   UNL     1       5.068  -1.574   4.132  0.00  0.00    +0.066 C 
ATOM      6  S   UNL     1       5.167   1.201   3.461  0.00  0.00    -0.061 S 
ATOM      7  C   UNL     1       4.346   1.772   1.980  0.00  0.00    +0.121 C 
ATOM      8  S   UNL     1       4.255   3.360   1.347  0.00  0.00    -0.027 S 
ENDROOT
BRANCH   5   9
ATOM      9  C   UNL     1       4.781  -2.897   3.734  0.00  0.00    +0.130 A 
ATOM     10  C   UNL     1       4.925  -4.031   4.514  0.00  0.00    +0.050 A 
ATOM     11  C   UNL     1       4.527  -5.114   3.727  0.00  0.00    +0.050 A 
ATOM     12  C   UNL     1       4.168  -4.616   2.507  0.00  0.00    +0.136 A 
ATOM     13  O   UNL     1       4.325  -3.280   2.522  0.00  0.00    -0.455 OA
BRANCH  12  14
ATOM     14  C   UNL     1       3.687  -5.411   1.361  0.00  0.00    +0.019 A 
ATOM     15  C   UNL     1       3.349  -4.780   0.161  0.00  0.00    +0.013 A 
ATOM     16  C   UNL     1       2.900  -5.529  -0.906  0.00  0.00    +0.022 A 
ATOM     17  C   UNL     1       2.783  -6.904  -0.792  0.00  0.00    +0.059 A 
ATOM     18  C   UNL     1       3.116  -7.537   0.396  0.00  0.00    +0.060 A 
ATOM     19  C   UNL     1       3.573  -6.799   1.469  0.00  0.00    +0.033 A 
ATOM     20 CL   UNL     1       2.966  -9.261   0.530  0.00  0.00    -0.082 Cl
ATOM     21 CL   UNL     1       2.216  -7.839  -2.140  0.00  0.00    -0.082 Cl
ENDBRANCH  12  14
ENDBRANCH   5   9
BRANCH   1  22
ATOM     22  C   UNL     1       3.037   0.677   0.245  0.00  0.00    +0.189 C 
BRANCH  22  25
ATOM     23  C   UNL     1      -0.367   1.877   0.987  0.00  0.00    +0.041 A 
ATOM     24  C   UNL     1       0.990   2.118   0.673  0.00  0.00    +0.046 A 
ATOM     25  C   UNL     1       1.585   0.916   0.568  0.00  0.00    +0.122 A 
ATOM     26  O   UNL     1       0.665  -0.035   0.799  0.00  0.00    -0.466 OA
ATOM     27  C   UNL     1      -0.521   0.542   1.054  0.00  0.00    +0.195 A 
ENDBRANCH  22  25
ENDBRANCH   1  22
TORSDOF 4
