REMARK  Name = ZINC21880776
REMARK  6 active torsions:
REMARK  status: ('A' for Active; 'I' for Inactive)
REMARK    1  A    between atoms: C_1  and  O_2
REMARK    2  A    between atoms: O_2  and  C_3
REMARK    3  A    between atoms: C_7  and  N_9
REMARK    4  A    between atoms: N_9  and  C_10
REMARK    5  A    between atoms: C_10  and  C_11
REMARK    6  A    between atoms: N_24  and  C_27
REMARK                            x       y       z     vdW  Elec       q    Type
REMARK                         _______ _______ _______ _____ _____    ______ ____
ROOT
ATOM      1  C   UNL     1      -1.052   1.811   8.378  0.00  0.00    +0.043 A 
ATOM      2  C   UNL     1      -2.044   1.173   9.032  0.00  0.00    +0.025 A 
ATOM      3  C   UNL     1      -2.554   2.063   9.999  0.00  0.00    +0.020 A 
ATOM      4  C   UNL     1      -1.854   3.212   9.902  0.00  0.00    +0.093 A 
ATOM      5  N   UNL     1      -0.925   3.062   8.911  0.00  0.00    -0.297 N 
ATOM      6  C   UNL     1      -0.002   4.029   8.509  0.00  0.00    +0.202 A 
ATOM      7  N   UNL     1       0.929   3.977   7.571  0.00  0.00    -0.121 NA
ATOM      8  N   UNL     1       1.688   4.954   7.328  0.00  0.00    -0.124 NA
ATOM      9  C   UNL     1       1.607   6.090   8.005  0.00  0.00    +0.186 A 
ATOM     10  S   UNL     1       0.264   5.691   9.120  0.00  0.00    -0.013 S 
ATOM     11  N   UNL     1       2.351   7.256   7.885  0.00  0.00    -0.312 N 
ATOM     12  C   UNL     1       1.480   8.415   7.644  0.00  0.00    +0.088 C 
ATOM     13  C   UNL     1       2.329   9.687   7.598  0.00  0.00    -0.059 C 
ATOM     14  N   UNL     1       3.337   9.561   6.536  0.00  0.00    +0.384 N 
ATOM     15  C   UNL     1       4.209   8.403   6.777  0.00  0.00    -0.059 C 
ATOM     16  C   UNL     1       3.360   7.130   6.824  0.00  0.00    +0.088 C 
ATOM     17  H   UNL     1       2.811   9.398   5.585  0.00  0.00    -0.081 HD
ENDROOT
BRANCH  14  18
ATOM     18  C   UNL     1       4.125  10.795   6.409  0.00  0.00    -0.068 C 
ATOM     19  C   UNL     1       4.912  11.033   7.700  0.00  0.00    -0.015 C 
ATOM     20  C   UNL     1       5.732  12.318   7.567  0.00  0.00    -0.002 C 
ATOM     21  C   UNL     1       4.792  13.499   7.318  0.00  0.00    -0.000 C 
ATOM     22  C   UNL     1       4.005  13.261   6.028  0.00  0.00    -0.002 C 
ATOM     23  C   UNL     1       3.185  11.976   6.160  0.00  0.00    -0.015 C 
ENDBRANCH  14  18
BRANCH   1  24
ATOM     24  C   UNL     1      -0.221   1.240   7.258  0.00  0.00    +0.155 C 
BRANCH  24  25
ATOM     25  N   UNL     1      -0.800   1.634   5.971  0.00  0.00    -0.338 N 
ATOM     26  H   UNL     1      -1.707   2.256   5.943  0.00  0.00    +0.146 HD
BRANCH  25  31
ATOM     27  C   UNL     1      -0.149   1.182   2.380  0.00  0.00    +0.122 A 
ATOM     28  C   UNL     1       0.995   0.397   2.420  0.00  0.00    +0.046 A 
ATOM     29  C   UNL     1       1.538   0.026   3.635  0.00  0.00    +0.005 A 
ATOM     30  C   UNL     1       0.946   0.435   4.814  0.00  0.00    +0.023 A 
ATOM     31  C   UNL     1      -0.200   1.221   4.780  0.00  0.00    +0.031 A 
ATOM     32  C   UNL     1      -0.744   1.599   3.559  0.00  0.00    +0.068 A 
BRANCH  27  34
ATOM     33  C   UNL     1      -0.013   1.086   0.008  0.00  0.00    +0.277 C 
ATOM     34  O   UNL     1      -0.682   1.547   1.184  0.00  0.00    -0.495 OA
ENDBRANCH  27  34
ENDBRANCH  25  31
ENDBRANCH  24  25
ENDBRANCH   1  24
TORSDOF 5
