REMARK  Name = ZINC39447732
REMARK  11 active torsions:
REMARK  status: ('A' for Active; 'I' for Inactive)
REMARK    1  A    between atoms: C_3  and  C_28
REMARK    2  A    between atoms: C_6  and  C_7
REMARK    3  A    between atoms: C_7  and  N_8
REMARK    4  A    between atoms: N_8  and  C_9
REMARK    5  A    between atoms: N_8  and  C_16
REMARK    6  A    between atoms: C_9  and  C_10
REMARK    7  A    between atoms: C_16  and  C_17
REMARK    8  A    between atoms: N_20  and  C_23
REMARK    9  A    between atoms: C_29  and  C_30
REMARK   10  A    between atoms: C_30  and  C_31
REMARK   11  A    between atoms: C_31  and  O_32
REMARK                            x       y       z     vdW  Elec       q    Type
REMARK                         _______ _______ _______ _____ _____    ______ ____
ROOT
ATOM      1  N   UNL     1      -1.863  -1.085  -1.650  0.00  0.00    +0.384 N 
ATOM      2  H   UNL     1      -1.758  -0.366  -2.350  0.00  0.00    -0.081 HD
ENDROOT
BRANCH   1   3
ATOM      3  C   UNL     1      -1.754  -0.486  -0.313  0.00  0.00    -0.043 C 
BRANCH   3   9
ATOM      4  C   UNL     1      -0.410   1.610  -0.557  0.00  0.00    +0.003 A 
ATOM      5  C   UNL     1       0.775   2.311  -0.462  0.00  0.00    +0.017 A 
ATOM      6  C   UNL     1       1.928   1.667  -0.011  0.00  0.00    +0.025 A 
ATOM      7  C   UNL     1       1.874   0.318   0.341  0.00  0.00    +0.017 A 
ATOM      8  C   UNL     1       0.683  -0.371   0.241  0.00  0.00    +0.003 A 
ATOM      9  C   UNL     1      -0.456   0.273  -0.207  0.00  0.00    -0.064 A 
BRANCH   6  10
ATOM     10  C   UNL     1       3.161   2.388   0.090  0.00  0.00    -0.066 C 
ATOM     11  C   UNL     1       4.172   2.979   0.172  0.00  0.00    -0.095 C 
BRANCH  11  12
ATOM     12  C   UNL     1       5.439   3.721   0.276  0.00  0.00    +0.117 C 
BRANCH  12  13
ATOM     13  C   UNL     1       6.536   2.786   0.792  0.00  0.00    +0.168 C 
BRANCH  13  14
ATOM     14  O   UNL     1       7.766   3.506   0.893  0.00  0.00    -0.394 OA
ATOM     15  H   UNL     1       8.507   2.975   1.215  0.00  0.00    +0.209 HD
ENDBRANCH  13  14
ENDBRANCH  12  13
ENDBRANCH  11  12
ENDBRANCH   6  10
ENDBRANCH   3   9
ENDBRANCH   1   3
BRANCH   1  16
ATOM     16  C   UNL     1      -0.808  -2.093  -1.823  0.00  0.00    -0.046 C 
BRANCH  16  17
ATOM     17  C   UNL     1      -0.809  -2.590  -3.270  0.00  0.00    +0.102 C 
ATOM     18  C   UNL     1       0.362  -3.578  -3.500  0.00  0.00    +0.032 C 
ATOM     19  C   UNL     1      -0.180  -4.404  -4.698  0.00  0.00    +0.030 C 
ATOM     20  C   UNL     1      -1.696  -4.444  -4.409  0.00  0.00    +0.160 C 
ATOM     21  O   UNL     1      -2.000  -3.349  -3.535  0.00  0.00    -0.378 OA
ENDBRANCH  16  17
ENDBRANCH   1  16
BRANCH   1  22
ATOM     22  C   UNL     1      -3.178  -1.723  -1.796  0.00  0.00    -0.075 C 
BRANCH  22  23
ATOM     23  C   UNL     1      -4.275  -0.663  -1.679  0.00  0.00    -0.031 C 
ATOM     24  C   UNL     1      -4.121   0.359  -2.808  0.00  0.00    -0.017 C 
ATOM     25  C   UNL     1      -5.266   1.371  -2.733  0.00  0.00    -0.078 C 
ATOM     26  N   UNL     1      -6.550   0.673  -2.875  0.00  0.00    +0.382 N 
ATOM     27  C   UNL     1      -6.737  -0.258  -1.756  0.00  0.00    -0.078 C 
ATOM     28  C   UNL     1      -5.648  -1.332  -1.793  0.00  0.00    -0.017 C 
ATOM     29  H   UNL     1      -6.558   0.159  -3.743  0.00  0.00    -0.081 HD
BRANCH  26  30
ATOM     30  C   UNL     1      -7.642   1.655  -2.880  0.00  0.00    -0.069 C 
ATOM     31  C   UNL     1      -8.993   0.943  -3.100  0.00  0.00    -0.015 C 
ATOM     32  C   UNL     1      -9.797   1.921  -3.992  0.00  0.00    -0.002 C 
ATOM     33  C   UNL     1      -8.714   2.482  -4.947  0.00  0.00    -0.002 C 
ATOM     34  C   UNL     1      -7.465   2.634  -4.055  0.00  0.00    -0.015 C 
ENDBRANCH  26  30
ENDBRANCH  22  23
ENDBRANCH   1  22
TORSDOF 11
