REMARK  Name = ZINC10131555
REMARK  14 active torsions:
REMARK  status: ('A' for Active; 'I' for Inactive)
REMARK    1  A    between atoms: C_1  and  C_2
REMARK    2  A    between atoms: C_2  and  C_3
REMARK    3  A    between atoms: C_2  and  C_4
REMARK    4  A    between atoms: C_4  and  C_6
REMARK    5  A    between atoms: C_4  and  N_14
REMARK    6  A    between atoms: C_9  and  O_12
REMARK    7  A    between atoms: O_12  and  C_13
REMARK    8  A    between atoms: C_15  and  C_17
REMARK    9  A    between atoms: C_17  and  N_65
REMARK   10  A    between atoms: C_21  and  C_23
REMARK   11  A    between atoms: C_26  and  O_31
REMARK   12  A    between atoms: C_28  and  O_29
REMARK   13  A    between atoms: O_29  and  C_30
REMARK   14  A    between atoms: O_31  and  C_32
REMARK                            x       y       z     vdW  Elec       q    Type
REMARK                         _______ _______ _______ _____ _____    ______ ____
ROOT
ATOM      1  C   UNL     1      -1.181   3.710  -2.890  0.00  0.00    +0.019 C 
ENDROOT
BRANCH   1   6
ATOM      2  C   UNL     1      -1.265   6.054  -2.258  0.00  0.00    -0.077 C 
ATOM      3  C   UNL     1      -1.479   7.340  -3.095  0.00  0.00    -0.020 C 
ATOM      4  C   UNL     1      -1.956   6.756  -4.451  0.00  0.00    -0.012 C 
ATOM      5  C   UNL     1      -1.137   5.454  -4.576  0.00  0.00    -0.033 C 
ATOM      6  N   UNL     1      -0.708   5.081  -3.216  0.00  0.00    +0.390 N 
ATOM      7  H   UNL     1       0.317   5.104  -3.164  0.00  0.00    -0.080 HD
BRANCH   5   8
ATOM      8  C   UNL     1      -1.989   4.368  -5.180  0.00  0.00    -0.019 A 
ATOM      9  C   UNL     1      -3.223   4.073  -4.632  0.00  0.00    +0.009 A 
ATOM     10  C   UNL     1      -4.009   3.082  -5.187  0.00  0.00    +0.046 A 
ATOM     11  C   UNL     1      -3.556   2.372  -6.290  0.00  0.00    +0.124 A 
ATOM     12  C   UNL     1      -2.316   2.661  -6.838  0.00  0.00    +0.091 A 
ATOM     13  C   UNL     1      -1.531   3.660  -6.282  0.00  0.00    +0.125 A 
BRANCH  13  14
ATOM     14  O   UNL     1      -0.316   3.947  -6.818  0.00  0.00    -0.495 OA
ATOM     15  C   UNL     1       0.091   3.179  -7.952  0.00  0.00    +0.277 C 
ENDBRANCH  13  14
BRANCH  11  16
ATOM     16  O   UNL     1      -4.327   1.392  -6.832  0.00  0.00    -0.495 OA
ATOM     17  C   UNL     1      -5.593   1.148  -6.216  0.00  0.00    +0.277 C 
ENDBRANCH  11  16
ENDBRANCH   5   8
ENDBRANCH   1   6
BRANCH   1  19
ATOM     18  N   UNL     1      -0.692   1.971  -1.201  0.00  0.00    -0.310 N 
ATOM     19  C   UNL     1      -0.434   3.202  -1.684  0.00  0.00    +0.197 C 
ATOM     20  O   UNL     1       0.399   3.902  -1.147  0.00  0.00    -0.278 OA
ATOM     21  H   UNL     1      -1.358   1.411  -1.630  0.00  0.00    +0.149 HD
BRANCH  18  22
ATOM     22  C   UNL     1       0.034   1.477  -0.028  0.00  0.00    +0.106 C 
BRANCH  22  23
ATOM     23  C   UNL     1       0.054  -0.030  -0.047  0.00  0.00    -0.027 A 
ATOM     24  C   UNL     1      -1.074  -0.730  -0.432  0.00  0.00    +0.009 A 
ATOM     25  C   UNL     1      -1.057  -2.111  -0.456  0.00  0.00    +0.046 A 
ATOM     26  C   UNL     1       0.090  -2.796  -0.082  0.00  0.00    +0.120 A 
ATOM     27  C   UNL     1       1.219  -2.091   0.310  0.00  0.00    +0.046 A 
ATOM     28  C   UNL     1       1.198  -0.710   0.327  0.00  0.00    +0.009 A 
BRANCH  26  29
ATOM     29  O   UNL     1       0.108  -4.154  -0.099  0.00  0.00    -0.495 OA
ATOM     30  C   UNL     1      -1.090  -4.814  -0.513  0.00  0.00    +0.277 C 
ENDBRANCH  26  29
ENDBRANCH  22  23
BRANCH  22  32
ATOM     31  C   UNL     1       0.095   1.447   2.470  0.00  0.00    +0.009 C 
ATOM     32  C   UNL     1      -0.663   1.962   1.245  0.00  0.00    +0.008 C 
ATOM     33  C   UNL     1      -0.683   3.492   1.264  0.00  0.00    +0.009 C 
ENDBRANCH  22  32
ENDBRANCH  18  22
ENDBRANCH   1  19
TORSDOF 9
