REMARK  Name = ZINC63315318
REMARK  7 active torsions:
REMARK  status: ('A' for Active; 'I' for Inactive)
REMARK    1  A    between atoms: C_7  and  C_10
REMARK    2  A    between atoms: C_10  and  C_11
REMARK    3  A    between atoms: N_13  and  C_14
REMARK    4  A    between atoms: C_14  and  C_15
REMARK    5  A    between atoms: C_15  and  N_16
REMARK    6  A    between atoms: C_17  and  C_19
REMARK    7  A    between atoms: N_24  and  C_26
REMARK                            x       y       z     vdW  Elec       q    Type
REMARK                         _______ _______ _______ _____ _____    ______ ____
ROOT
ATOM      1  C   UNL     1      -1.553  -6.323  -3.054  0.00  0.00    +0.123 C 
ENDROOT
BRANCH   1   2
ATOM      2  N   UNL     1      -1.768  -6.779  -4.429  0.00  0.00    -0.314 N 
ATOM      3  C   UNL     1      -2.585  -7.823  -4.673  0.00  0.00    +0.218 C 
ATOM      4  O   UNL     1      -3.142  -8.385  -3.753  0.00  0.00    -0.275 OA
ATOM      5  H   UNL     1      -1.323  -6.330  -5.164  0.00  0.00    +0.149 HD
BRANCH   3   6
ATOM      6  C   UNL     1      -2.806  -8.293  -6.088  0.00  0.00    +0.101 C 
ATOM      7  C   UNL     1      -3.514  -7.205  -6.927  0.00  0.00    +0.110 C 
ATOM      8  C   UNL     1      -4.449  -7.981  -7.829  0.00  0.00    +0.221 C 
ATOM      9  O   UNL     1      -4.979  -7.539  -8.826  0.00  0.00    -0.275 OA
ATOM     10  N   UNL     1      -4.605  -9.233  -7.364  0.00  0.00    -0.271 N 
ATOM     11  C   UNL     1      -3.833  -9.446  -6.134  0.00  0.00    +0.127 C 
BRANCH  10  12
ATOM     12  C   UNL     1      -5.401 -10.209  -7.975  0.00  0.00    +0.036 A 
ATOM     13  C   UNL     1      -6.182  -9.880  -9.075  0.00  0.00    +0.025 A 
ATOM     14  C   UNL     1      -6.966 -10.845  -9.677  0.00  0.00    +0.022 A 
ATOM     15  C   UNL     1      -6.975 -12.138  -9.184  0.00  0.00    +0.041 A 
ATOM     16  C   UNL     1      -6.197 -12.468  -8.088  0.00  0.00    +0.022 A 
ATOM     17  C   UNL     1      -5.406 -11.508  -7.486  0.00  0.00    +0.025 A 
ATOM     18 CL   UNL     1      -7.962 -13.348  -9.941  0.00  0.00    -0.084 Cl
ENDBRANCH  10  12
ENDBRANCH   3   6
ENDBRANCH   1   2
BRANCH   1  19
ATOM     19  C   UNL     1      -0.592  -5.133  -3.055  0.00  0.00    +0.123 C 
BRANCH  19  22
ATOM     20  C   UNL     1       0.440  -3.632  -1.436  0.00  0.00    +0.217 C 
ATOM     21  O   UNL     1       0.996  -3.070  -2.355  0.00  0.00    -0.275 OA
ATOM     22  N   UNL     1      -0.377  -4.676  -1.680  0.00  0.00    -0.314 N 
ATOM     23  H   UNL     1      -0.822  -5.126  -0.945  0.00  0.00    +0.149 HD
BRANCH  20  24
ATOM     24  C   UNL     1       0.661  -3.163  -0.021  0.00  0.00    +0.129 C 
BRANCH  24  31
ATOM     25  C   UNL     1      -0.022   1.375  -0.025  0.00  0.00    +0.001 A 
ATOM     26  C   UNL     1       1.164   2.122  -0.027  0.00  0.00    +0.002 A 
ATOM     27  C   UNL     1       2.386   1.549  -0.028  0.00  0.00    +0.026 A 
ATOM     28  C   UNL     1       2.516   0.133  -0.026  0.00  0.00    +0.043 A 
ATOM     29  N   UNL     1       3.570  -0.647  -0.027  0.00  0.00    -0.380 N 
ATOM     30  C   UNL     1       3.119  -2.043  -0.025  0.00  0.00    +0.145 C 
ATOM     31  C   UNL     1       1.608  -1.991  -0.023  0.00  0.00    -0.033 C 
ATOM     32  C   UNL     1       1.278  -0.679  -0.024  0.00  0.00    -0.001 A 
ATOM     33  C   UNL     1      -0.011   0.022  -0.023  0.00  0.00    +0.010 A 
ATOM     34  H   UNL     1       4.494  -0.350  -0.029  0.00  0.00    +0.160 HD
ENDBRANCH  24  31
ENDBRANCH  20  24
ENDBRANCH  19  22
ENDBRANCH   1  19
TORSDOF 7
