REMARK  Name = ZINC20697337
REMARK  11 active torsions:
REMARK  status: ('A' for Active; 'I' for Inactive)
REMARK    1  A    between atoms: C_1  and  C_2
REMARK    2  A    between atoms: C_2  and  N_3
REMARK    3  A    between atoms: N_3  and  C_4
REMARK    4  A    between atoms: N_3  and  C_6
REMARK    5  A    between atoms: C_4  and  C_5
REMARK    6  A    between atoms: C_9  and  C_12
REMARK    7  A    between atoms: C_25  and  O_28
REMARK    8  A    between atoms: O_28  and  C_29
REMARK    9  A    between atoms: C_29  and  C_30
REMARK   10  A    between atoms: C_30  and  C_31
REMARK   11  A    between atoms: C_30  and  C_32
REMARK                            x       y       z     vdW  Elec       q    Type
REMARK                         _______ _______ _______ _____ _____    ______ ____
ROOT
ATOM      1  C   UNL     1      -1.282   5.979   0.070  0.00  0.00    +0.105 C 
ATOM      2  C   UNL     1      -2.460   5.631  -0.815  0.00  0.00    +0.029 C 
ATOM      3  C   UNL     1      -3.692   6.542  -0.761  0.00  0.00    +0.033 C 
ATOM      4  C   UNL     1      -4.815   5.557  -1.097  0.00  0.00    -0.030 C 
ATOM      5  C   UNL     1      -4.455   4.325  -0.752  0.00  0.00    -0.023 C 
ATOM      6  C   UNL     1      -3.107   4.384  -0.136  0.00  0.00    +0.049 C 
ATOM      7  C   UNL     1      -2.128   3.281  -0.247  0.00  0.00    -0.016 A 
ATOM      8  C   UNL     1      -2.528   1.968  -0.395  0.00  0.00    +0.006 A 
ATOM      9  C   UNL     1      -1.594   0.953  -0.471  0.00  0.00    +0.004 A 
ATOM     10  C   UNL     1      -0.246   1.256  -0.409  0.00  0.00    +0.047 A 
ATOM     11  C   UNL     1       0.164   2.568  -0.273  0.00  0.00    +0.142 A 
ATOM     12  C   UNL     1      -0.772   3.606  -0.196  0.00  0.00    +0.074 A 
ATOM     13  N   UNL     1      -0.284   4.910  -0.097  0.00  0.00    -0.334 N 
ATOM     14  H   UNL     1       0.787   5.159  -0.138  0.00  0.00    +0.147 HD
ENDROOT
BRANCH   1  18
ATOM     15  C   UNL     1      -2.533   6.179   4.152  0.00  0.00    +0.030 A 
ATOM     16  C   UNL     1      -2.006   4.999   3.642  0.00  0.00    +0.023 A 
ATOM     17  C   UNL     1      -1.602   4.938   2.323  0.00  0.00    +0.007 A 
ATOM     18  C   UNL     1      -1.723   6.050   1.509  0.00  0.00    -0.027 A 
ATOM     19  C   UNL     1      -2.242   7.227   2.015  0.00  0.00    +0.007 A 
ATOM     20  C   UNL     1      -2.653   7.294   3.332  0.00  0.00    +0.023 A 
BRANCH  15  21
ATOM     21  N   UNL     1      -2.942   6.244   5.486  0.00  0.00    -0.330 N 
BRANCH  21  23
ATOM     22  C   UNL     1      -5.015   7.497   5.822  0.00  0.00    +0.024 C 
ATOM     23  C   UNL     1      -3.498   7.489   6.021  0.00  0.00    +0.102 C 
ENDBRANCH  21  23
BRANCH  21  24
ATOM     24  C   UNL     1      -2.816   5.067   6.349  0.00  0.00    +0.102 C 
ATOM     25  C   UNL     1      -1.448   5.083   7.035  0.00  0.00    +0.024 C 
ENDBRANCH  21  24
ENDBRANCH  15  21
ENDBRANCH   1  18
BRANCH  11  26
ATOM     26  O   UNL     1       1.492   2.854  -0.215  0.00  0.00    -0.490 OA
BRANCH  26  27
ATOM     27  C   UNL     1       2.398   1.752  -0.299  0.00  0.00    +0.232 C 
BRANCH  27  28
ATOM     28  C   UNL     1       3.837   2.267  -0.216  0.00  0.00    +0.020 C 
ATOM     29  C   UNL     1       4.078   2.885   1.163  0.00  0.00    +0.010 C 
ATOM     30  C   UNL     1       4.808   1.105  -0.431  0.00  0.00    +0.010 C 
ENDBRANCH  27  28
ENDBRANCH  26  27
ENDBRANCH  11  26
TORSDOF 7
