REMARK  Name = ZINC22110337
REMARK  6 active torsions:
REMARK  status: ('A' for Active; 'I' for Inactive)
REMARK    1  A    between atoms: C_1  and  O_2
REMARK    2  A    between atoms: O_2  and  C_3
REMARK    3  A    between atoms: C_4  and  C_11
REMARK    4  A    between atoms: C_11  and  N_12
REMARK    5  A    between atoms: N_12  and  N_13
REMARK    6  A    between atoms: C_14  and  C_19
REMARK                            x       y       z     vdW  Elec       q    Type
REMARK                         _______ _______ _______ _____ _____    ______ ____
ROOT
ATOM      1  N   UNL     1      -1.196   1.604   1.610  0.00  0.00    -0.276 N 
ATOM      2  H   UNL     1      -2.129   2.161   1.780  0.00  0.00    +0.167 HD
ENDROOT
BRANCH   1   3
ATOM      3  N   UNL     1      -0.291   1.144   2.524  0.00  0.00    -0.222 N 
ATOM      4  C   UNL     1       0.570   1.895   3.291  0.00  0.00    +0.180 A 
ATOM      5  N   UNL     1       1.259   1.056   4.029  0.00  0.00    -0.152 NA
ATOM      6  N   UNL     1       0.893  -0.150   3.781  0.00  0.00    -0.253 N 
ATOM      7  C   UNL     1      -0.057  -0.155   2.872  0.00  0.00    +0.193 A 
ATOM      8  S   UNL     1      -0.873  -1.575   2.221  0.00  0.00    -0.010 S 
ATOM      9  H   UNL     1       1.369  -0.990   4.308  0.00  0.00    +0.191 HD
BRANCH   4  10
ATOM     10  C   UNL     1       0.697   3.368   3.284  0.00  0.00    +0.021 A 
ATOM     11  C   UNL     1       1.179   4.035   4.411  0.00  0.00    +0.011 A 
ATOM     12  C   UNL     1       1.299   5.409   4.397  0.00  0.00    +0.001 A 
ATOM     13  C   UNL     1       0.933   6.127   3.272  0.00  0.00    +0.000 A 
ATOM     14  C   UNL     1       0.450   5.472   2.153  0.00  0.00    +0.001 A 
ATOM     15  C   UNL     1       0.330   4.097   2.152  0.00  0.00    +0.011 A 
ENDBRANCH   4  10
ENDBRANCH   1   3
BRANCH   1  16
ATOM     16  C   UNL     1      -0.783   1.262   0.243  0.00  0.00    +0.159 C 
BRANCH  16  18
ATOM     17  C   UNL     1      -1.794   3.122  -1.100  0.00  0.00    +0.139 A 
ATOM     18  C   UNL     1      -1.803   1.784  -0.736  0.00  0.00    +0.015 A 
ATOM     19  C   UNL     1      -2.752   0.931  -1.266  0.00  0.00    +0.024 A 
ATOM     20  C   UNL     1      -3.689   1.410  -2.164  0.00  0.00    +0.019 A 
ATOM     21  C   UNL     1      -3.680   2.743  -2.533  0.00  0.00    +0.034 A 
ATOM     22  C   UNL     1      -2.732   3.600  -2.004  0.00  0.00    +0.061 A 
ATOM     23 BR   UNL     1      -2.720   5.423  -2.507  0.00  0.00    -0.046 Br
ATOM     24 BR   UNL     1      -4.987   0.240  -2.888  0.00  0.00    -0.050 Br
BRANCH  17  26
ATOM     25  C   UNL     1       0.366   4.099  -1.287  0.00  0.00    +0.277 C 
ATOM     26  O   UNL     1      -0.865   3.964  -0.574  0.00  0.00    -0.494 OA
ENDBRANCH  17  26
ENDBRANCH  16  18
ENDBRANCH   1  16
TORSDOF 5
