REMARK  Name = ZINC35373508
REMARK  7 active torsions:
REMARK  status: ('A' for Active; 'I' for Inactive)
REMARK    1  A    between atoms: C_1  and  C_2
REMARK    2  A    between atoms: C_2  and  C_34
REMARK    3  A    between atoms: C_7  and  C_11
REMARK    4  A    between atoms: C_11  and  S_12
REMARK    5  A    between atoms: S_12  and  N_15
REMARK    6  A    between atoms: C_23  and  C_26
REMARK    7  A    between atoms: C_26  and  C_27
REMARK                            x       y       z     vdW  Elec       q    Type
REMARK                         _______ _______ _______ _____ _____    ______ ____
ROOT
ATOM      1  N   UNL     1       0.348  -0.663   5.332  0.00  0.00    -0.178 NA
ATOM      2  C   UNL     1       0.681   0.574   6.052  0.00  0.00    +0.128 C 
ATOM      3  C   UNL     1      -0.604   1.387   6.252  0.00  0.00    +0.124 C 
ATOM      4  N   UNL     1      -1.638   0.501   6.806  0.00  0.00    -0.306 N 
ATOM      5  C   UNL     1      -1.971  -0.736   6.086  0.00  0.00    +0.124 C 
ATOM      6  C   UNL     1      -0.689  -1.546   5.883  0.00  0.00    +0.128 C 
ATOM      7  C   UNL     1      -2.285   0.826   7.984  0.00  0.00    +0.181 A 
ATOM      8  N   UNL     1      -3.227   0.152   8.625  0.00  0.00    -0.208 NA
ATOM      9  C   UNL     1      -3.694   0.668   9.740  0.00  0.00    +0.145 A 
ATOM     10  N   UNL     1      -3.203   1.811  10.148  0.00  0.00    -0.192 NA
ATOM     11  S   UNL     1      -2.069   2.172   8.967  0.00  0.00    +0.049 S 
ENDROOT
BRANCH   1  12
ATOM     12  S   UNL     1       1.124  -1.052   3.921  0.00  0.00    +0.033 S 
ATOM     13  O   UNL     1       1.042  -2.468   3.841  0.00  0.00    -0.158 OA
ATOM     14  O   UNL     1       2.384  -0.402   4.009  0.00  0.00    -0.158 OA
BRANCH  12  15
ATOM     15  C   UNL     1       0.120  -0.293   2.614  0.00  0.00    +0.200 C 
BRANCH  15  21
ATOM     16  C   UNL     1      -0.019   1.526   0.010  0.00  0.00    +0.012 C 
ATOM     17  C   UNL     1       0.002  -0.004   0.002  0.00  0.00    -0.018 C 
ATOM     18  C   UNL     1       1.004  -0.575  -1.063  0.00  0.00    +0.003 C 
ATOM     19  C   UNL     1       0.982  -2.091  -0.695  0.00  0.00    +0.005 C 
ATOM     20  C   UNL     1       0.810  -2.112   0.842  0.00  0.00    +0.017 C 
ATOM     21  C   UNL     1       0.749  -0.591   1.251  0.00  0.00    +0.055 C 
ATOM     22  C   UNL     1       2.167  -0.050   1.020  0.00  0.00    +0.142 C 
ATOM     23  O   UNL     1       2.966   0.292   1.858  0.00  0.00    -0.297 OA
ATOM     24  C   UNL     1       2.352  -0.038  -0.490  0.00  0.00    +0.079 C 
ATOM     25  C   UNL     1      -1.403  -0.589  -0.156  0.00  0.00    +0.012 C 
ENDBRANCH  15  21
ENDBRANCH  12  15
ENDBRANCH   1  12
BRANCH   9  26
ATOM     26  C   UNL     1      -4.768  -0.038  10.528  0.00  0.00    +0.112 C 
BRANCH  26  27
ATOM     27  C   UNL     1      -4.128  -0.965  11.529  0.00  0.00    -0.040 A 
ATOM     28  C   UNL     1      -3.844  -2.272  11.177  0.00  0.00    +0.005 A 
ATOM     29  C   UNL     1      -3.257  -3.123  12.095  0.00  0.00    +0.020 A 
ATOM     30  C   UNL     1      -2.955  -2.667  13.366  0.00  0.00    +0.041 A 
ATOM     31  C   UNL     1      -3.240  -1.360  13.717  0.00  0.00    +0.020 A 
ATOM     32  C   UNL     1      -3.822  -0.508  12.797  0.00  0.00    +0.005 A 
ATOM     33 CL   UNL     1      -2.219  -3.736  14.519  0.00  0.00    -0.084 Cl
ENDBRANCH  26  27
ENDBRANCH   9  26
TORSDOF 5
