REMARK  Name = ZINC50633556
REMARK  7 active torsions:
REMARK  status: ('A' for Active; 'I' for Inactive)
REMARK    1  A    between atoms: C_1  and  C_2
REMARK    2  A    between atoms: C_2  and  C_3
REMARK    3  A    between atoms: C_2  and  C_4
REMARK    4  A    between atoms: C_9  and  N_10
REMARK    5  A    between atoms: N_10  and  S_11
REMARK    6  A    between atoms: S_11  and  C_14
REMARK    7  A    between atoms: C_19  and  N_20
REMARK                            x       y       z     vdW  Elec       q    Type
REMARK                         _______ _______ _______ _____ _____    ______ ____
ROOT
ATOM      1  S   UNL     1      -1.634  -1.919  -3.616  0.00  0.00    +0.076 S 
ATOM      2  O   UNL     1      -0.639  -2.369  -4.524  0.00  0.00    -0.150 OA
ATOM      3  O   UNL     1      -2.793  -2.683  -3.315  0.00  0.00    -0.150 OA
ENDROOT
BRANCH   1   4
ATOM      4  C   UNL     1      -2.199  -0.362  -4.218  0.00  0.00    +0.149 A 
ATOM      5  C   UNL     1      -3.553  -0.115  -4.360  0.00  0.00    +0.049 A 
ATOM      6  C   UNL     1      -3.953   1.126  -4.838  0.00  0.00    +0.038 A 
ATOM      7  C   UNL     1      -2.995   2.069  -5.157  0.00  0.00    +0.128 A 
ATOM      8  N   UNL     1      -1.711   1.804  -5.013  0.00  0.00    -0.238 NA
ATOM      9  C   UNL     1      -1.290   0.636  -4.553  0.00  0.00    +0.143 A 
ATOM     10 BR   UNL     1      -5.790   1.520  -5.052  0.00  0.00    -0.049 Br
BRANCH   9  11
ATOM     11  N   UNL     1       0.073   0.402  -4.410  0.00  0.00    -0.342 N 
ATOM     12  H   UNL     1       0.384  -0.423  -4.006  0.00  0.00    +0.144 HD
ATOM     13  H   UNL     1       0.713   1.064  -4.715  0.00  0.00    +0.144 HD
ENDBRANCH   9  11
ENDBRANCH   1   4
BRANCH   1  14
ATOM     14  N   UNL     1      -0.867  -1.637  -2.175  0.00  0.00    -0.216 N 
ATOM     15  H   UNL     1       0.068  -1.872  -2.070  0.00  0.00    +0.174 HD
BRANCH  14  21
ATOM     16  C   UNL     1      -0.922  -0.182  -0.251  0.00  0.00    -0.022 A 
ATOM     17  C   UNL     1      -1.617   0.392   0.795  0.00  0.00    +0.006 A 
ATOM     18  C   UNL     1      -2.952   0.087   0.989  0.00  0.00    +0.000 A 
ATOM     19  C   UNL     1      -3.595  -0.791   0.136  0.00  0.00    +0.002 A 
ATOM     20  C   UNL     1      -2.906  -1.367  -0.912  0.00  0.00    +0.025 A 
ATOM     21  C   UNL     1      -1.566  -1.060  -1.113  0.00  0.00    +0.051 A 
BRANCH  16  23
ATOM     22  C   UNL     1       0.685   1.655  -0.690  0.00  0.00    +0.012 C 
ATOM     23  C   UNL     1       0.533   0.150  -0.461  0.00  0.00    +0.015 C 
ATOM     24  C   UNL     1       1.334  -0.261   0.777  0.00  0.00    +0.012 C 
ENDBRANCH  16  23
ENDBRANCH  14  21
ENDBRANCH   1  14
TORSDOF 5
