REMARK  Name = ZINC13991731
REMARK  13 active torsions:
REMARK  status: ('A' for Active; 'I' for Inactive)
REMARK    1  A    between atoms: C_1  and  C_2
REMARK    2  A    between atoms: C_2  and  O_3
REMARK    3  A    between atoms: O_3  and  C_4
REMARK    4  A    between atoms: C_9  and  C_10
REMARK    5  A    between atoms: C_10  and  N_55
REMARK    6  A    between atoms: C_11  and  C_12
REMARK    7  A    between atoms: C_11  and  N_55
REMARK    8  A    between atoms: C_13  and  C_17
REMARK    9  A    between atoms: C_18  and  C_19
REMARK   10  A    between atoms: C_18  and  N_55
REMARK   11  A    between atoms: C_19  and  C_21
REMARK   12  A    between atoms: C_19  and  O_22
REMARK   13  A    between atoms: C_24  and  C_27
REMARK                            x       y       z     vdW  Elec       q    Type
REMARK                         _______ _______ _______ _____ _____    ______ ____
ROOT
ATOM      1  C   UNL     1      -0.154  -2.107   0.599  0.00  0.00    -0.039 C 
ENDROOT
BRANCH   1   7
ATOM      2  C   UNL     1      -1.258  -0.178   1.754  0.00  0.00    +0.122 A 
ATOM      3  C   UNL     1      -2.382   0.438   2.286  0.00  0.00    +0.053 A 
ATOM      4  C   UNL     1      -3.601  -0.202   2.245  0.00  0.00    +0.001 A 
ATOM      5  C   UNL     1      -3.724  -1.461   1.671  0.00  0.00    +0.125 A 
ATOM      6  C   UNL     1      -2.592  -2.076   1.143  0.00  0.00    +0.051 A 
ATOM      7  C   UNL     1      -1.371  -1.435   1.180  0.00  0.00    -0.019 A 
ATOM      8  O   UNL     1      -5.013  -1.902   1.723  0.00  0.00    -0.488 OA
ATOM      9  C   UNL     1      -5.730  -1.154   2.719  0.00  0.00    +0.175 C 
ATOM     10  C   UNL     1      -4.977   0.198   2.741  0.00  0.00    +0.083 C 
ATOM     11  C   UNL     1      -5.643  -1.844   4.082  0.00  0.00    +0.052 C 
BRANCH   2  12
ATOM     12  O   UNL     1      -0.053   0.451   1.790  0.00  0.00    -0.492 OA
BRANCH  12  14
ATOM     13  C   UNL     1       1.414   2.292   2.340  0.00  0.00    +0.048 C 
ATOM     14  C   UNL     1      -0.015   1.747   2.391  0.00  0.00    +0.225 C 
ENDBRANCH  12  14
ENDBRANCH   2  12
ENDBRANCH   1   7
BRANCH   1  15
ATOM     15  N   UNL     1       0.640  -2.690   1.701  0.00  0.00    +0.387 N 
ATOM     16  H   UNL     1       0.806  -1.968   2.411  0.00  0.00    -0.081 HD
BRANCH  15  17
ATOM     17  C   UNL     1       1.942  -3.166   1.188  0.00  0.00    -0.035 C 
BRANCH  17  18
ATOM     18  C   UNL     1       2.749  -1.979   0.729  0.00  0.00    -0.024 A 
ATOM     19  C   UNL     1       3.526  -1.141   1.459  0.00  0.00    -0.042 A 
ATOM     20  C   UNL     1       4.184  -0.108   0.818  0.00  0.00    +0.011 A 
ATOM     21  C   UNL     1       4.024   0.043  -0.519  0.00  0.00    +0.045 A 
ATOM     22  S   UNL     1       2.923  -1.305  -0.915  0.00  0.00    -0.103 S 
ATOM     23  C   UNL     1       3.672  -1.336   2.946  0.00  0.00    +0.044 C 
ENDBRANCH  17  18
ENDBRANCH  15  17
BRANCH  15  24
ATOM     24  C   UNL     1      -0.099  -3.811   2.319  0.00  0.00    -0.047 C 
BRANCH  24  25
ATOM     25  C   UNL     1       0.535  -4.130   3.674  0.00  0.00    +0.095 C 
ATOM     26  C   UNL     1      -0.328  -5.156   4.412  0.00  0.00    +0.035 C 
BRANCH  25  27
ATOM     27  O   UNL     1       1.845  -4.665   3.473  0.00  0.00    -0.394 OA
ATOM     28  H   UNL     1       1.854  -5.524   3.028  0.00  0.00    +0.210 HD
ENDBRANCH  25  27
ENDBRANCH  24  25
ENDBRANCH  15  24
ENDBRANCH   1  15
TORSDOF 9
