REMARK  Name = ZINC53201860
REMARK  3 active torsions:
REMARK  status: ('A' for Active; 'I' for Inactive)
REMARK    1  A    between atoms: C_1  and  N_2
REMARK    2  A    between atoms: N_2  and  C_3
REMARK    3  A    between atoms: N_8  and  C_10
REMARK                            x       y       z     vdW  Elec       q    Type
REMARK                         _______ _______ _______ _____ _____    ______ ____
ROOT
ATOM      1  C   UNL     1      -2.767  -3.993  -0.349  0.00  0.00    +0.176 C 
ATOM      2  C   UNL     1      -4.192  -4.470  -0.517  0.00  0.00    +0.001 A 
ATOM      3  C   UNL     1      -5.184  -4.156  -1.419  0.00  0.00    +0.007 A 
ATOM      4  C   UNL     1      -6.422  -4.768  -1.324  0.00  0.00    +0.002 A 
ATOM      5  C   UNL     1      -6.658  -5.691  -0.322  0.00  0.00    +0.017 A 
ATOM      6  C   UNL     1      -5.666  -6.007   0.584  0.00  0.00    +0.039 A 
ATOM      7  C   UNL     1      -4.416  -5.395   0.494  0.00  0.00    +0.053 A 
ATOM      8  N   UNL     1      -3.269  -5.543   1.276  0.00  0.00    -0.283 N 
ATOM      9  C   UNL     1      -2.258  -4.761   0.852  0.00  0.00    +0.239 C 
ATOM     10  O   UNL     1      -1.150  -4.684   1.339  0.00  0.00    -0.273 OA
ATOM     11 BR   UNL     1      -6.002  -7.271   1.950  0.00  0.00    -0.048 Br
ATOM     12  H   UNL     1      -3.208  -6.140   2.038  0.00  0.00    +0.155 HD
ENDROOT
BRANCH   1  17
ATOM     13  C   UNL     1      -1.376  -0.512   0.012  0.00  0.00    -0.058 C 
ATOM     14  C   UNL     1      -2.054  -0.126   1.330  0.00  0.00    -0.013 C 
ATOM     15  C   UNL     1      -3.469  -0.711   1.358  0.00  0.00    +0.014 C 
ATOM     16  C   UNL     1      -3.391  -2.230   1.188  0.00  0.00    +0.085 C 
ATOM     17  N   UNL     1      -2.736  -2.548  -0.087  0.00  0.00    -0.289 NA
ATOM     18  C   UNL     1      -1.359  -2.037  -0.120  0.00  0.00    +0.070 C 
BRANCH  13  20
ATOM     19  C   UNL     1      -0.018   1.465   0.010  0.00  0.00    -0.100 C 
ATOM     20  N   UNL     1       0.002  -0.004   0.002  0.00  0.00    +0.380 N 
ATOM     21  H   UNL     1       0.474  -0.330  -0.828  0.00  0.00    -0.086 HD
ATOM     22  H   UNL     1       0.490  -0.338   0.820  0.00  0.00    -0.086 HD
ENDBRANCH  13  20
ENDBRANCH   1  17
TORSDOF 2
