REMARK  Name = ZINC35361911
REMARK  10 active torsions:
REMARK  status: ('A' for Active; 'I' for Inactive)
REMARK    1  A    between atoms: C_1  and  C_2
REMARK    2  A    between atoms: C_2  and  C_4
REMARK    3  A    between atoms: C_10  and  C_42
REMARK    4  A    between atoms: N_22  and  O_23
REMARK    5  A    between atoms: O_23  and  C_24
REMARK    6  A    between atoms: C_24  and  C_25
REMARK    7  A    between atoms: N_27  and  C_28
REMARK    8  A    between atoms: C_28  and  C_29
REMARK    9  A    between atoms: C_32  and  C_35
REMARK   10  A    between atoms: C_40  and  C_41
REMARK                            x       y       z     vdW  Elec       q    Type
REMARK                         _______ _______ _______ _____ _____    ______ ____
ROOT
ATOM      1  C   UNL     1      -0.006  -0.748  -1.305  0.00  0.00    +0.061 C 
ATOM      2  C   UNL     1       1.440  -0.929  -1.811  0.00  0.00    +0.012 C 
ATOM      3  C   UNL     1       1.682  -2.452  -1.905  0.00  0.00    +0.005 C 
ATOM      4  C   UNL     1       0.252  -3.047  -2.067  0.00  0.00    -0.001 C 
ATOM      5  C   UNL     1      -0.563  -2.164  -1.110  0.00  0.00    -0.019 C 
ATOM      6  C   UNL     1      -2.052  -2.245  -1.366  0.00  0.00    +0.008 C 
ATOM      7  C   UNL     1      -2.359  -1.905  -2.822  0.00  0.00    +0.005 C 
ATOM      8  C   UNL     1      -1.648  -2.915  -3.734  0.00  0.00    +0.002 C 
ATOM      9  C   UNL     1      -0.140  -2.832  -3.535  0.00  0.00    -0.003 C 
ATOM     10  C   UNL     1       0.636  -3.853  -4.364  0.00  0.00    +0.008 C 
ATOM     11  C   UNL     1      -0.048  -4.184  -5.682  0.00  0.00    +0.031 C 
ATOM     12  C   UNL     1      -0.906  -3.019  -6.106  0.00  0.00    -0.062 C 
ATOM     13  C   UNL     1      -0.682  -2.400  -7.256  0.00  0.00    +0.026 C 
ATOM     14  C   UNL     1      -1.504  -1.256  -7.671  0.00  0.00    +0.080 C 
ATOM     15  N   UNL     1      -1.285  -0.680  -8.810  0.00  0.00    -0.089 NA
ATOM     16  C   UNL     1      -2.604  -0.754  -6.770  0.00  0.00    +0.059 C 
ATOM     17  C   UNL     1      -2.241  -1.081  -5.317  0.00  0.00    +0.017 C 
ATOM     18  C   UNL     1      -2.030  -2.562  -5.177  0.00  0.00    -0.007 C 
ATOM     19  C   UNL     1      -3.317  -3.296  -5.558  0.00  0.00    +0.016 C 
ATOM     20  C   UNL     1      -0.296  -2.611   0.329  0.00  0.00    +0.012 C 
ENDROOT
BRANCH   1  22
ATOM     21  C   UNL     1      -1.233   0.765   0.432  0.00  0.00    +0.086 C 
ATOM     22  C   UNL     1      -0.009  -0.003   0.005  0.00  0.00    +0.134 C 
ATOM     23  O   UNL     1       0.970  -0.021   0.712  0.00  0.00    -0.297 OA
ENDBRANCH   1  22
BRANCH  15  24
ATOM     24  O   UNL     1      -2.079   0.422  -9.210  0.00  0.00    -0.384 OA
BRANCH  24  25
ATOM     25  C   UNL     1      -1.727   0.959 -10.487  0.00  0.00    +0.358 C 
BRANCH  25  26
ATOM     26  C   UNL     1      -2.631   2.121 -10.810  0.00  0.00    +0.254 C 
ATOM     27  O   UNL     1      -3.492   2.456 -10.024  0.00  0.00    -0.272 OA
ATOM     28  N   UNL     1      -2.483   2.787 -11.972  0.00  0.00    -0.308 N 
ATOM     29  H   UNL     1      -1.795   2.519 -12.601  0.00  0.00    +0.149 HD
BRANCH  28  30
ATOM     30  C   UNL     1      -3.362   3.917 -12.286  0.00  0.00    +0.139 C 
BRANCH  30  31
ATOM     31  C   UNL     1      -2.991   4.483 -13.632  0.00  0.00    -0.030 A 
ATOM     32  C   UNL     1      -2.043   5.487 -13.720  0.00  0.00    +0.006 A 
ATOM     33  C   UNL     1      -1.699   6.010 -14.949  0.00  0.00    +0.015 A 
ATOM     34  C   UNL     1      -2.310   5.523 -16.107  0.00  0.00    +0.063 A 
ATOM     35  C   UNL     1      -3.266   4.509 -16.011  0.00  0.00    +0.015 A 
ATOM     36  C   UNL     1      -3.596   3.992 -14.776  0.00  0.00    +0.006 A 
BRANCH  34  37
ATOM     37  C   UNL     1      -1.947   6.078 -17.425  0.00  0.00    +0.387 C 
ATOM     38  O   UNL     1      -1.111   6.966 -17.506  0.00  0.00    -0.241 OA
ATOM     39  O   UNL     1      -2.484   5.650 -18.437  0.00  0.00    -0.241 OA
ENDBRANCH  34  37
ENDBRANCH  30  31
ENDBRANCH  28  30
ENDBRANCH  25  26
ENDBRANCH  24  25
ENDBRANCH  15  24
TORSDOF 7
