REMARK  Name = ZINC64979457
REMARK  9 active torsions:
REMARK  status: ('A' for Active; 'I' for Inactive)
REMARK    1  A    between atoms: C_1  and  C_2
REMARK    2  A    between atoms: C_4  and  C_26
REMARK    3  A    between atoms: C_6  and  N_8
REMARK    4  A    between atoms: N_8  and  S_9
REMARK    5  A    between atoms: S_9  and  C_12
REMARK    6  A    between atoms: C_15  and  C_20
REMARK    7  A    between atoms: C_17  and  O_18
REMARK    8  A    between atoms: O_18  and  C_19
REMARK    9  A    between atoms: C_22  and  C_25
REMARK                            x       y       z     vdW  Elec       q    Type
REMARK                         _______ _______ _______ _____ _____    ______ ____
ROOT
ATOM      1  C   UNL     1       0.360  -0.713   4.510  0.00  0.00    +0.150 A 
ATOM      2  C   UNL     1      -0.152  -0.761   5.794  0.00  0.00    +0.033 A 
ATOM      3  C   UNL     1      -0.628   0.386   6.395  0.00  0.00    +0.014 A 
ATOM      4  C   UNL     1      -0.593   1.600   5.705  0.00  0.00    +0.024 A 
ATOM      5  C   UNL     1      -0.077   1.647   4.411  0.00  0.00    +0.059 A 
ATOM      6  C   UNL     1       0.403   0.490   3.819  0.00  0.00    +0.147 A 
ENDROOT
BRANCH   4   7
ATOM      7  C   UNL     1      -1.103   2.831   6.346  0.00  0.00    +0.168 A 
ATOM      8  C   UNL     1      -1.625   2.927   7.598  0.00  0.00    +0.075 A 
ATOM      9  C   UNL     1      -1.987   4.265   7.816  0.00  0.00    +0.081 A 
ATOM     10  N   UNL     1      -1.696   4.947   6.743  0.00  0.00    -0.083 NA
ATOM     11  O   UNL     1      -1.128   4.060   5.796  0.00  0.00    -0.354 OA
ATOM     12  C   UNL     1      -2.606   4.819   9.073  0.00  0.00    +0.069 C 
ENDBRANCH   4   7
BRANCH   1  13
ATOM     13  S   UNL     1       0.965  -2.184   3.751  0.00  0.00    +0.076 S 
ATOM     14  O   UNL     1       0.764  -3.236   4.685  0.00  0.00    -0.150 OA
ATOM     15  O   UNL     1       2.246  -1.870   3.222  0.00  0.00    -0.150 OA
BRANCH  13  16
ATOM     16  N   UNL     1      -0.016  -2.506   2.457  0.00  0.00    -0.216 N 
ATOM     17  H   UNL     1       0.355  -2.528   1.561  0.00  0.00    +0.174 HD
BRANCH  16  23
ATOM     18  C   UNL     1      -3.592  -4.767   4.957  0.00  0.00    +0.044 C 
ATOM     19  C   UNL     1      -3.140  -3.838   3.860  0.00  0.00    -0.048 A 
ATOM     20  C   UNL     1      -4.075  -3.222   3.047  0.00  0.00    +0.006 A 
ATOM     21  C   UNL     1      -3.664  -2.369   2.039  0.00  0.00    -0.048 A 
ATOM     22  C   UNL     1      -2.319  -2.130   1.841  0.00  0.00    +0.028 A 
ATOM     23  C   UNL     1      -1.377  -2.746   2.655  0.00  0.00    +0.049 A 
ATOM     24  C   UNL     1      -1.793  -3.599   3.670  0.00  0.00    +0.028 A 
ATOM     25  C   UNL     1      -4.686  -1.701   1.156  0.00  0.00    +0.044 C 
ENDBRANCH  16  23
ENDBRANCH  13  16
ENDBRANCH   1  13
BRANCH   6  26
ATOM     26  O   UNL     1       0.912   0.532   2.560  0.00  0.00    -0.493 OA
ATOM     27  C   UNL     1       1.021   1.818   1.946  0.00  0.00    +0.277 C 
ENDBRANCH   6  26
TORSDOF 5
