REMARK  Name = ZINC41677818
REMARK  4 active torsions:
REMARK  status: ('A' for Active; 'I' for Inactive)
REMARK    1  A    between atoms: C_5  and  C_6
REMARK    2  A    between atoms: C_6  and  C_8
REMARK    3  A    between atoms: C_6  and  N_10
REMARK    4  A    between atoms: N_10  and  C_11
REMARK                            x       y       z     vdW  Elec       q    Type
REMARK                         _______ _______ _______ _____ _____    ______ ____
ROOT
ATOM      1  C   UNL     1      -1.156  -0.969   0.008  0.00  0.00    +0.195 C 
ENDROOT
BRANCH   1   6
ATOM      2  C   UNL     1      -0.016   1.351   0.009  0.00  0.00    +0.029 A 
ATOM      3  C   UNL     1       1.184   2.038   0.002  0.00  0.00    +0.025 A 
ATOM      4  C   UNL     1       2.343   1.335  -0.013  0.00  0.00    +0.060 A 
ATOM      5  S   UNL     1       1.753  -0.350  -0.017  0.00  0.00    -0.098 S 
ATOM      6  C   UNL     1       0.002  -0.004   0.002  0.00  0.00    +0.022 A 
ATOM      7 BR   UNL     1       1.208   3.929   0.011  0.00  0.00    -0.050 Br
ENDBRANCH   1   6
BRANCH   1   8
ATOM      8  C   UNL     1      -1.392  -1.461  -1.359  0.00  0.00    +0.087 C 
ATOM      9  N   UNL     1      -1.574  -1.840  -2.414  0.00  0.00    -0.195 NA
ENDBRANCH   1   8
BRANCH   1  10
ATOM     10  N   UNL     1      -0.844  -2.102   0.889  0.00  0.00    -0.295 NA
ATOM     11  H   UNL     1      -0.261  -2.777   0.418  0.00  0.00    +0.124 HD
BRANCH  10  12
ATOM     12  C   UNL     1      -2.072  -2.729   1.395  0.00  0.00    +0.055 C 
ATOM     13  C   UNL     1      -2.585  -1.920   2.604  0.00  0.00    +0.019 C 
ATOM     14  C   UNL     1      -4.047  -2.222   2.795  0.00  0.00    +0.002 C 
ATOM     15  C   UNL     1      -4.287  -3.353   3.814  0.00  0.00    +0.000 C 
ATOM     16  C   UNL     1      -3.293  -4.520   3.656  0.00  0.00    +0.000 C 
ATOM     17  C   UNL     1      -3.043  -4.872   2.215  0.00  0.00    +0.002 C 
ATOM     18  C   UNL     1      -1.788  -4.115   1.736  0.00  0.00    +0.019 C 
ENDBRANCH  10  12
ENDBRANCH   1  10
TORSDOF 4
