REMARK  Name = ZINC49937924
REMARK  8 active torsions:
REMARK  status: ('A' for Active; 'I' for Inactive)
REMARK    1  A    between atoms: C_1  and  C_2
REMARK    2  A    between atoms: N_6  and  C_7
REMARK    3  A    between atoms: C_7  and  C_9
REMARK    4  A    between atoms: C_9  and  O_10
REMARK    5  A    between atoms: O_10  and  C_11
REMARK    6  A    between atoms: C_14  and  C_17
REMARK    7  A    between atoms: C_23  and  O_28
REMARK    8  A    between atoms: O_28  and  C_29
REMARK                            x       y       z     vdW  Elec       q    Type
REMARK                         _______ _______ _______ _____ _____    ______ ____
ROOT
ATOM      1  C   UNL     1       0.126  -7.598   3.338  0.00  0.00    +0.121 A 
ATOM      2  C   UNL     1       0.123  -7.326   4.699  0.00  0.00    +0.046 A 
ATOM      3  C   UNL     1       0.143  -8.360   5.611  0.00  0.00    +0.012 A 
ATOM      4  C   UNL     1       0.165  -9.681   5.164  0.00  0.00    -0.011 A 
ATOM      5  C   UNL     1       0.168  -9.951   3.796  0.00  0.00    +0.012 A 
ATOM      6  C   UNL     1       0.142  -8.912   2.890  0.00  0.00    +0.046 A 
ENDROOT
BRANCH   4   7
ATOM      7  C   UNL     1       0.186 -10.795   6.141  0.00  0.00    +0.067 A 
ATOM      8  C   UNL     1      -0.859 -11.681   6.238  0.00  0.00    +0.027 A 
ATOM      9  C   UNL     1      -0.748 -12.750   7.234  0.00  0.00    +0.022 A 
ATOM     10  C   UNL     1      -1.629 -13.839   7.221  0.00  0.00    +0.012 A 
ATOM     11  C   UNL     1      -1.503 -14.826   8.157  0.00  0.00    +0.004 A 
ATOM     12  C   UNL     1      -0.509 -14.761   9.123  0.00  0.00    +0.049 A 
ATOM     13  C   UNL     1       0.371 -13.693   9.157  0.00  0.00    +0.163 A 
ATOM     14  C   UNL     1       0.258 -12.676   8.213  0.00  0.00    +0.180 A 
ATOM     15  O   UNL     1       1.104 -11.618   8.228  0.00  0.00    -0.418 OA
ATOM     16  C   UNL     1       1.332 -11.001   7.044  0.00  0.00    +0.345 A 
ATOM     17  O   UNL     1       2.448 -10.624   6.736  0.00  0.00    -0.245 OA
BRANCH  13  18
ATOM     18  O   UNL     1       1.341 -13.637  10.108  0.00  0.00    -0.491 OA
ATOM     19  C   UNL     1       1.395 -14.717  11.044  0.00  0.00    +0.277 C 
ENDBRANCH  13  18
ENDBRANCH   4   7
BRANCH   1  20
ATOM     20  O   UNL     1       0.107  -6.577   2.442  0.00  0.00    -0.483 OA
BRANCH  20  21
ATOM     21  C   UNL     1       0.091  -5.250   2.972  0.00  0.00    +0.326 C 
BRANCH  21  22
ATOM     22  C   UNL     1       0.071  -4.257   1.838  0.00  0.00    +0.276 C 
ATOM     23  O   UNL     1       0.071  -4.648   0.686  0.00  0.00    -0.270 OA
BRANCH  22  29
ATOM     24  C   UNL     1      -0.018   1.503   0.010  0.00  0.00    +0.064 C 
ATOM     25  C   UNL     1       0.002  -0.004   0.002  0.00  0.00    +0.021 A 
ATOM     26  C   UNL     1       0.006  -0.694  -1.144  0.00  0.00    +0.069 A 
ATOM     27  S   UNL     1       0.033  -2.379  -0.561  0.00  0.00    -0.060 S 
ATOM     28  C   UNL     1       0.036  -2.076   1.093  0.00  0.00    +0.163 A 
ATOM     29  N   UNL     1       0.054  -2.955   2.096  0.00  0.00    -0.154 NA
ATOM     30  N   UNL     1       0.023  -0.718   1.159  0.00  0.00    -0.340 N 
ATOM     31  H   UNL     1       0.025  -0.266   2.018  0.00  0.00    +0.167 HD
ENDBRANCH  22  29
ENDBRANCH  21  22
ENDBRANCH  20  21
ENDBRANCH   1  20
TORSDOF 6
