REMARK  Name = ZINC40780310
REMARK  3 active torsions:
REMARK  status: ('A' for Active; 'I' for Inactive)
REMARK    1  A    between atoms: C_1  and  C_2
REMARK    2  A    between atoms: C_10  and  N_25
REMARK    3  A    between atoms: C_11  and  N_15
REMARK                            x       y       z     vdW  Elec       q    Type
REMARK                         _______ _______ _______ _____ _____    ______ ____
ROOT
ATOM      1  C   UNL     1      -0.143   1.491  -0.167  0.00  0.00    +0.045 C 
ATOM      2  C   UNL     1      -0.085  -0.010  -0.052  0.00  0.00    -0.032 A 
ATOM      3  C   UNL     1      -0.043  -0.617   1.197  0.00  0.00    +0.008 A 
ATOM      4  C   UNL     1       0.009  -1.998   1.258  0.00  0.00    +0.044 A 
ATOM      5  C   UNL     1       0.017  -2.728   0.074  0.00  0.00    +0.124 A 
ATOM      6  N   UNL     1      -0.025  -2.112  -1.097  0.00  0.00    -0.240 NA
ATOM      7  C   UNL     1      -0.080  -0.797  -1.186  0.00  0.00    +0.116 A 
ATOM      8  N   UNL     1       0.068  -4.117   0.121  0.00  0.00    -0.284 N 
ATOM      9  C   UNL     1      -0.036  -4.857  -1.052  0.00  0.00    +0.127 A 
ATOM     10  C   UNL     1      -0.129  -6.250  -1.006  0.00  0.00    +0.104 A 
ATOM     11  C   UNL     1      -0.233  -6.944  -2.213  0.00  0.00    +0.151 A 
ATOM     12  N   UNL     1      -0.239  -6.257  -3.353  0.00  0.00    -0.220 NA
ATOM     13  C   UNL     1      -0.149  -4.942  -3.352  0.00  0.00    +0.200 A 
ATOM     14  N   UNL     1      -0.055  -4.249  -2.235  0.00  0.00    -0.333 N 
ATOM     15  H   UNL     1       0.177  -4.570   0.972  0.00  0.00    +0.155 HD
ATOM     16  H   UNL     1       0.005  -3.282  -2.276  0.00  0.00    +0.168 HD
ENDROOT
BRANCH  11  17
ATOM     17  N   UNL     1      -0.328  -8.331  -2.224  0.00  0.00    -0.283 N 
ATOM     18  C   UNL     1      -1.631  -8.992  -2.071  0.00  0.00    +0.113 C 
ATOM     19  C   UNL     1      -1.456 -10.148  -1.077  0.00  0.00    +0.024 C 
ATOM     20  C   UNL     1      -0.482 -11.165  -1.669  0.00  0.00    +0.038 C 
ATOM     21  C   UNL     1       0.782 -10.483  -2.122  0.00  0.00    -0.026 A 
ATOM     22  C   UNL     1       0.817  -9.121  -2.387  0.00  0.00    +0.038 A 
ATOM     23  C   UNL     1       1.997  -8.523  -2.814  0.00  0.00    +0.024 A 
ATOM     24  C   UNL     1       3.137  -9.285  -2.978  0.00  0.00    +0.002 A 
ATOM     25  C   UNL     1       3.103 -10.642  -2.717  0.00  0.00    +0.000 A 
ATOM     26  C   UNL     1       1.931 -11.239  -2.282  0.00  0.00    +0.005 A 
ENDBRANCH  11  17
BRANCH  10  27
ATOM     27  N   UNL     1      -0.119  -6.933   0.220  0.00  0.00    -0.353 N 
ATOM     28  H   UNL     1      -0.120  -6.436   1.053  0.00  0.00    +0.143 HD
ATOM     29  H   UNL     1      -0.110  -7.903   0.235  0.00  0.00    +0.143 HD
ENDBRANCH  10  27
TORSDOF 2
