REMARK  Name = ZINC39553626
REMARK  6 active torsions:
REMARK  status: ('A' for Active; 'I' for Inactive)
REMARK    1  A    between atoms: C_1  and  C_2
REMARK    2  A    between atoms: C_4  and  C_16
REMARK    3  A    between atoms: N_18  and  C_19
REMARK    4  A    between atoms: C_24  and  C_25
REMARK    5  A    between atoms: C_25  and  C_26
REMARK    6  A    between atoms: C_25  and  C_27
REMARK                            x       y       z     vdW  Elec       q    Type
REMARK                         _______ _______ _______ _____ _____    ______ ____
ROOT
ATOM      1  C   UNL     1       0.030   1.506   0.007  0.00  0.00    +0.065 C 
ATOM      2  C   UNL     1       0.040  -0.000   0.000  0.00  0.00    +0.041 A 
ATOM      3  C   UNL     1       0.032  -0.670  -1.211  0.00  0.00    +0.038 A 
ATOM      4  C   UNL     1       0.043  -2.066  -1.221  0.00  0.00    +0.068 A 
ATOM      5  C   UNL     1       0.061  -2.734   0.021  0.00  0.00    +0.120 A 
ATOM      6  C   UNL     1       0.068  -1.969   1.203  0.00  0.00    +0.161 A 
ATOM      7  N   UNL     1       0.063  -0.649   1.146  0.00  0.00    -0.233 NA
ATOM      8  N   UNL     1       0.082  -2.881   2.236  0.00  0.00    -0.312 N 
ATOM      9  C   UNL     1       0.093  -4.125   1.685  0.00  0.00    +0.112 A 
ATOM     10  N   UNL     1       0.076  -4.030   0.384  0.00  0.00    -0.230 NA
ATOM     11  C   UNL     1       0.130  -5.418   2.465  0.00  0.00    +0.074 C 
ATOM     12  C   UNL     1      -0.904  -5.360   3.592  0.00  0.00    +0.008 C 
ATOM     13  C   UNL     1      -0.270  -4.747   4.837  0.00  0.00    +0.002 C 
ATOM     14  C   UNL     1       0.762  -3.691   4.444  0.00  0.00    +0.022 C 
ATOM     15  C   UNL     1       0.076  -2.565   3.668  0.00  0.00    +0.125 C 
ENDROOT
BRANCH   4  16
ATOM     16  C   UNL     1       0.035  -2.820  -2.492  0.00  0.00    +0.250 C 
ATOM     17  O   UNL     1       0.044  -4.035  -2.478  0.00  0.00    -0.270 OA
ATOM     18  N   UNL     1       0.017  -2.159  -3.666  0.00  0.00    -0.281 N 
ATOM     19  H   UNL     1      -0.072  -1.193  -3.679  0.00  0.00    +0.155 HD
BRANCH  18  20
ATOM     20  C   UNL     1       0.125  -2.867  -4.868  0.00  0.00    +0.037 A 
ATOM     21  C   UNL     1       0.749  -4.108  -4.891  0.00  0.00    +0.023 A 
ATOM     22  C   UNL     1       0.855  -4.803  -6.079  0.00  0.00    +0.002 A 
ATOM     23  C   UNL     1       0.341  -4.266  -7.245  0.00  0.00    +0.000 A 
ATOM     24  C   UNL     1      -0.280  -3.031  -7.226  0.00  0.00    +0.006 A 
ATOM     25  C   UNL     1      -0.395  -2.333  -6.039  0.00  0.00    -0.024 A 
BRANCH  25  26
ATOM     26  C   UNL     1      -1.078  -0.989  -6.018  0.00  0.00    +0.015 C 
ATOM     27  C   UNL     1      -0.416  -0.064  -7.040  0.00  0.00    +0.012 C 
ATOM     28  C   UNL     1      -2.557  -1.163  -6.370  0.00  0.00    +0.012 C 
ENDBRANCH  25  26
ENDBRANCH  18  20
ENDBRANCH   4  16
TORSDOF 3
