REMARK  Name = ZINC35040077
REMARK  15 active torsions:
REMARK  status: ('A' for Active; 'I' for Inactive)
REMARK    1  A    between atoms: C_1  and  C_2
REMARK    2  A    between atoms: C_2  and  C_3
REMARK    3  A    between atoms: C_3  and  C_4
REMARK    4  A    between atoms: C_4  and  C_5
REMARK    5  A    between atoms: C_5  and  C_6
REMARK    6  A    between atoms: C_6  and  N_7
REMARK    7  A    between atoms: N_7  and  C_8
REMARK    8  A    between atoms: C_8  and  C_10
REMARK    9  A    between atoms: C_8  and  C_11
REMARK   10  A    between atoms: N_21  and  C_22
REMARK   11  A    between atoms: C_29  and  C_31
REMARK   12  A    between atoms: C_31  and  C_32
REMARK   13  A    between atoms: C_32  and  C_33
REMARK   14  A    between atoms: C_32  and  C_34
REMARK   15  A    between atoms: C_32  and  C_35
REMARK                            x       y       z     vdW  Elec       q    Type
REMARK                         _______ _______ _______ _____ _____    ______ ____
ROOT
ATOM      1  C   UNL     1      -6.196  -4.196  -0.768  0.00  0.00    +0.138 A 
ATOM      2  N   UNL     1      -6.094  -3.356   0.216  0.00  0.00    -0.231 NA
ATOM      3  C   UNL     1      -7.019  -2.386   0.422  0.00  0.00    +0.078 A 
ATOM      4  C   UNL     1      -6.909  -1.481   1.480  0.00  0.00    +0.028 A 
ATOM      5  C   UNL     1      -7.872  -0.512   1.652  0.00  0.00    +0.002 A 
ATOM      6  C   UNL     1      -8.954  -0.423   0.786  0.00  0.00    +0.001 A 
ATOM      7  C   UNL     1      -9.085  -1.304  -0.265  0.00  0.00    +0.015 A 
ATOM      8  C   UNL     1      -8.121  -2.291  -0.457  0.00  0.00    +0.065 A 
ATOM      9  C   UNL     1      -8.208  -3.258  -1.561  0.00  0.00    +0.266 A 
ATOM     10  O   UNL     1      -9.131  -3.231  -2.354  0.00  0.00    -0.267 OA
ATOM     11  N   UNL     1      -7.219  -4.176  -1.665  0.00  0.00    -0.263 N 
ENDROOT
BRANCH  11  12
ATOM     12  C   UNL     1      -7.251  -5.117  -2.702  0.00  0.00    +0.051 A 
ATOM     13  C   UNL     1      -8.247  -6.085  -2.733  0.00  0.00    +0.027 A 
ATOM     14  C   UNL     1      -8.277  -7.012  -3.756  0.00  0.00    +0.017 A 
ATOM     15  C   UNL     1      -7.315  -6.977  -4.751  0.00  0.00    +0.018 A 
ATOM     16  C   UNL     1      -6.322  -6.014  -4.723  0.00  0.00    +0.017 A 
ATOM     17  C   UNL     1      -6.291  -5.081  -3.705  0.00  0.00    +0.027 A 
ATOM     18 BR   UNL     1      -7.359  -8.248  -6.150  0.00  0.00    -0.050 Br
ENDBRANCH  11  12
BRANCH   1  19
ATOM     19  C   UNL     1      -5.125  -5.244  -0.929  0.00  0.00    +0.139 C 
ATOM     20  C   UNL     1      -5.764  -6.634  -0.917  0.00  0.00    +0.036 C 
BRANCH  19  21
ATOM     21  N   UNL     1      -4.168  -5.137   0.176  0.00  0.00    -0.292 N 
ATOM     22  C   UNL     1      -4.587  -5.292   1.448  0.00  0.00    +0.217 C 
ATOM     23  O   UNL     1      -5.756  -5.520   1.677  0.00  0.00    -0.276 OA
BRANCH  21  24
ATOM     24  C   UNL     1      -2.756  -4.862  -0.102  0.00  0.00    +0.108 C 
BRANCH  24  25
ATOM     25  C   UNL     1      -2.523  -3.350  -0.111  0.00  0.00    +0.019 C 
BRANCH  25  26
ATOM     26  C   UNL     1      -1.049  -3.063  -0.401  0.00  0.00    +0.002 C 
BRANCH  26  27
ATOM     27  C   UNL     1      -0.816  -1.551  -0.411  0.00  0.00    -0.000 C 
BRANCH  27  29
ATOM     28  C   UNL     1       0.891   0.248  -0.710  0.00  0.00    +0.004 C 
ATOM     29  C   UNL     1       0.658  -1.264  -0.701  0.00  0.00    -0.003 C 
ENDBRANCH  27  29
ENDBRANCH  26  27
ENDBRANCH  25  26
ENDBRANCH  24  25
ENDBRANCH  21  24
BRANCH  22  30
ATOM     30  C   UNL     1      -3.603  -5.182   2.584  0.00  0.00    +0.102 C 
BRANCH  30  31
ATOM     31  C   UNL     1      -4.332  -5.397   3.912  0.00  0.00    -0.029 C 
ATOM     32  C   UNL     1      -4.972  -6.787   3.924  0.00  0.00    +0.011 C 
ATOM     33  C   UNL     1      -3.333  -5.285   5.065  0.00  0.00    +0.011 C 
ATOM     34  C   UNL     1      -5.420  -4.333   4.075  0.00  0.00    +0.011 C 
ENDBRANCH  30  31
ENDBRANCH  22  30
ENDBRANCH  19  21
ENDBRANCH   1  19
TORSDOF 10
