REMARK  Name = ZINC14776463
REMARK  7 active torsions:
REMARK  status: ('A' for Active; 'I' for Inactive)
REMARK    1  A    between atoms: C_1  and  C_2
REMARK    2  A    between atoms: C_5  and  C_8
REMARK    3  A    between atoms: N_10  and  C_11
REMARK    4  A    between atoms: C_11  and  N_13
REMARK    5  A    between atoms: N_13  and  N_14
REMARK    6  A    between atoms: C_15  and  C_17
REMARK    7  A    between atoms: C_17  and  N_18
REMARK                            x       y       z     vdW  Elec       q    Type
REMARK                         _______ _______ _______ _____ _____    ______ ____
ROOT
ATOM      1  N   UNL     1       0.002  -0.004   0.002  0.00  0.00    -0.245 N 
ATOM      2  H   UNL     1      -0.831  -0.500   0.007  0.00  0.00    +0.172 HD
ENDROOT
BRANCH   1   3
ATOM      3  N   UNL     1      -0.017   1.397   0.010  0.00  0.00    -0.234 N 
ATOM      4  C   UNL     1      -1.193   2.055   0.019  0.00  0.00    +0.249 C 
ATOM      5  O   UNL     1      -2.235   1.434   0.020  0.00  0.00    -0.272 OA
ATOM      6  H   UNL     1       0.816   1.893   0.004  0.00  0.00    +0.173 HD
BRANCH   4   7
ATOM      7  C   UNL     1      -1.214   3.562   0.027  0.00  0.00    +0.219 C 
BRANCH   7   8
ATOM      8  N   UNL     1      -2.601   4.031   0.036  0.00  0.00    -0.338 N 
ATOM      9  C   UNL     1      -3.320   4.381  -1.074  0.00  0.00    +0.087 A 
ATOM     10  C   UNL     1      -4.556   4.765  -0.717  0.00  0.00    +0.027 A 
ATOM     11  C   UNL     1      -4.635   4.652   0.741  0.00  0.00    -0.000 A 
ATOM     12  C   UNL     1      -3.378   4.180   1.163  0.00  0.00    +0.049 A 
ATOM     13  C   UNL     1      -3.147   3.977   2.519  0.00  0.00    +0.026 A 
ATOM     14  C   UNL     1      -4.151   4.228   3.430  0.00  0.00    +0.002 A 
ATOM     15  C   UNL     1      -5.390   4.688   3.008  0.00  0.00    +0.001 A 
ATOM     16  C   UNL     1      -5.637   4.900   1.681  0.00  0.00    +0.010 A 
ENDBRANCH   7   8
ENDBRANCH   4   7
ENDBRANCH   1   3
BRANCH   1  17
ATOM     17  C   UNL     1       1.178  -0.662  -0.013  0.00  0.00    +0.153 C 
ATOM     18  S   UNL     1       1.202  -2.374  -0.022  0.00  0.00    -0.017 S 
BRANCH  17  21
ATOM     19  C   UNL     1       3.512  -0.630  -0.035  0.00  0.00    +0.250 C 
ATOM     20  O   UNL     1       3.529  -1.845  -0.042  0.00  0.00    -0.270 OA
ATOM     21  N   UNL     1       2.336   0.028  -0.020  0.00  0.00    -0.263 N 
ATOM     22  H   UNL     1       2.323   0.998  -0.015  0.00  0.00    +0.157 HD
BRANCH  19  27
ATOM     23  C   UNL     1       8.456   2.314  -0.066  0.00  0.00    +0.044 C 
ATOM     24  C   UNL     1       7.161   1.543  -0.058  0.00  0.00    -0.050 A 
ATOM     25  C   UNL     1       7.183   0.160  -0.066  0.00  0.00    +0.004 A 
ATOM     26  C   UNL     1       6.002  -0.552  -0.058  0.00  0.00    +0.013 A 
ATOM     27  C   UNL     1       4.782   0.126  -0.043  0.00  0.00    +0.037 A 
ATOM     28  C   UNL     1       4.766   1.522  -0.041  0.00  0.00    +0.013 A 
ATOM     29  C   UNL     1       5.955   2.222  -0.043  0.00  0.00    +0.004 A 
ENDBRANCH  19  27
ENDBRANCH  17  21
ENDBRANCH   1  17
TORSDOF 6
