REMARK  Name = ZINC50831220
REMARK  5 active torsions:
REMARK  status: ('A' for Active; 'I' for Inactive)
REMARK    1  A    between atoms: C_1  and  N_2
REMARK    2  A    between atoms: N_2  and  C_3
REMARK    3  A    between atoms: C_4  and  C_8
REMARK    4  A    between atoms: C_8  and  O_9
REMARK    5  A    between atoms: O_9  and  C_10
REMARK                            x       y       z     vdW  Elec       q    Type
REMARK                         _______ _______ _______ _____ _____    ______ ____
ROOT
ATOM      1  C   UNL     1      -1.825  -4.248   0.173  0.00  0.00    +0.122 A 
ATOM      2  C   UNL     1      -1.165  -4.798   1.278  0.00  0.00    +0.046 A 
ATOM      3  C   UNL     1      -1.788  -5.694   2.089  0.00  0.00    +0.012 A 
ATOM      4  C   UNL     1      -3.113  -6.077   1.817  0.00  0.00    -0.017 A 
ATOM      5  C   UNL     1      -3.787  -7.000   2.635  0.00  0.00    +0.023 A 
ATOM      6  C   UNL     1      -5.071  -7.348   2.342  0.00  0.00    +0.018 A 
ATOM      7  C   UNL     1      -5.730  -6.801   1.242  0.00  0.00    +0.016 A 
ATOM      8  C   UNL     1      -5.109  -5.905   0.428  0.00  0.00    +0.010 A 
ATOM      9  C   UNL     1      -3.784  -5.521   0.699  0.00  0.00    -0.014 A 
ATOM     10  C   UNL     1      -3.114  -4.594  -0.116  0.00  0.00    +0.054 A 
ATOM     11 BR   UNL     1      -5.973  -8.591   3.445  0.00  0.00    -0.050 Br
ENDROOT
BRANCH   1  12
ATOM     12  O   UNL     1      -1.176  -3.354  -0.618  0.00  0.00    -0.486 OA
BRANCH  12  13
ATOM     13  C   UNL     1       0.171  -3.032  -0.265  0.00  0.00    +0.288 C 
BRANCH  13  15
ATOM     14  C   UNL     1       0.604  -0.686  -1.052  0.00  0.00    +0.112 A 
ATOM     15  C   UNL     1       0.723  -2.033  -1.248  0.00  0.00    +0.130 A 
ATOM     16  N   UNL     1       1.346  -2.409  -2.343  0.00  0.00    -0.141 NA
ATOM     17  N   UNL     1       1.799  -1.510  -3.150  0.00  0.00    -0.108 NA
ATOM     18  S   UNL     1       1.367  -0.067  -2.416  0.00  0.00    +0.052 S 
BRANCH  14  20
ATOM     19  C   UNL     1      -0.018   1.461   0.010  0.00  0.00    +0.126 C 
ATOM     20  N   UNL     1       0.002  -0.004   0.002  0.00  0.00    -0.339 N 
ATOM     21  H   UNL     1      -0.404  -0.499   0.731  0.00  0.00    +0.146 HD
ENDBRANCH  14  20
ENDBRANCH  13  15
ENDBRANCH  12  13
ENDBRANCH   1  12
TORSDOF 4
