REMARK  Name = ZINC20580681
REMARK  11 active torsions:
REMARK  status: ('A' for Active; 'I' for Inactive)
REMARK    1  A    between atoms: C_1  and  C_2
REMARK    2  A    between atoms: C_5  and  C_23
REMARK    3  A    between atoms: C_7  and  S_8
REMARK    4  A    between atoms: S_8  and  N_11
REMARK    5  A    between atoms: N_11  and  C_12
REMARK    6  A    between atoms: C_13  and  O_21
REMARK    7  A    between atoms: C_15  and  O_19
REMARK    8  A    between atoms: O_19  and  C_20
REMARK    9  A    between atoms: O_21  and  C_22
REMARK   10  A    between atoms: C_24  and  C_29
REMARK   11  A    between atoms: C_25  and  C_28
REMARK                            x       y       z     vdW  Elec       q    Type
REMARK                         _______ _______ _______ _____ _____    ______ ____
ROOT
ATOM      1  S   UNL     1      -2.785   3.435   4.836  0.00  0.00    +0.073 S 
ATOM      2  O   UNL     1      -3.233   2.520   5.826  0.00  0.00    -0.150 OA
ATOM      3  O   UNL     1      -1.950   4.543   5.145  0.00  0.00    -0.150 OA
ENDROOT
BRANCH   1  10
ATOM      4  C   UNL     1      -2.738   5.416   2.556  0.00  0.00    +0.046 C 
ATOM      5  C   UNL     1      -4.106   4.995   3.027  0.00  0.00    -0.024 A 
ATOM      6  C   UNL     1      -5.235   5.515   2.418  0.00  0.00    +0.006 A 
ATOM      7  C   UNL     1      -6.490   5.134   2.844  0.00  0.00    +0.012 A 
ATOM      8  C   UNL     1      -6.620   4.222   3.893  0.00  0.00    +0.022 A 
ATOM      9  C   UNL     1      -5.478   3.698   4.500  0.00  0.00    +0.040 A 
ATOM     10  C   UNL     1      -4.229   4.091   4.067  0.00  0.00    +0.112 A 
BRANCH   8  11
ATOM     11  C   UNL     1      -7.963   3.809   4.355  0.00  0.00    +0.170 A 
ATOM     12  C   UNL     1      -9.030   4.625   4.613  0.00  0.00    +0.019 A 
ATOM     13  C   UNL     1     -10.046   3.735   5.018  0.00  0.00    +0.084 A 
ATOM     14  N   UNL     1      -9.533   2.539   4.971  0.00  0.00    -0.083 NA
ATOM     15  O   UNL     1      -8.382   2.555   4.601  0.00  0.00    -0.354 OA
ATOM     16  C   UNL     1     -11.451   4.097   5.425  0.00  0.00    +0.069 C 
ATOM     17  C   UNL     1      -9.104   6.126   4.492  0.00  0.00    +0.049 C 
ENDBRANCH   8  11
ENDBRANCH   1  10
BRANCH   1  18
ATOM     18  N   UNL     1      -1.984   2.543   3.694  0.00  0.00    -0.211 N 
ATOM     19  H   UNL     1      -0.999   2.870   3.332  0.00  0.00    +0.174 HD
BRANCH  18  20
ATOM     20  C   UNL     1      -2.563   1.369   3.188  0.00  0.00    +0.108 A 
ATOM     21  C   UNL     1      -2.850   0.309   4.044  0.00  0.00    +0.147 A 
ATOM     22  C   UNL     1      -3.427  -0.847   3.543  0.00  0.00    +0.093 A 
ATOM     23  C   UNL     1      -3.712  -0.948   2.189  0.00  0.00    +0.125 A 
ATOM     24  C   UNL     1      -3.422   0.106   1.337  0.00  0.00    +0.067 A 
ATOM     25  C   UNL     1      -2.846   1.262   1.834  0.00  0.00    +0.070 A 
ATOM     26 CL   UNL     1      -2.482   2.580   0.765  0.00  0.00    -0.081 Cl
BRANCH  23  27
ATOM     27  O   UNL     1      -4.278  -2.083   1.698  0.00  0.00    -0.495 OA
ATOM     28  C   UNL     1      -4.545  -2.119   0.294  0.00  0.00    +0.277 C 
ENDBRANCH  23  27
BRANCH  21  29
ATOM     29  O   UNL     1      -2.570   0.409   5.371  0.00  0.00    -0.493 OA
ATOM     30  C   UNL     1      -2.897  -0.715   6.190  0.00  0.00    +0.277 C 
ENDBRANCH  21  29
ENDBRANCH  18  20
ENDBRANCH   1  18
TORSDOF 6
