REMARK  Name = ZINC40906943
REMARK  5 active torsions:
REMARK  status: ('A' for Active; 'I' for Inactive)
REMARK    1  A    between atoms: C_1  and  O_2
REMARK    2  A    between atoms: O_2  and  C_3
REMARK    3  A    between atoms: C_8  and  C_12
REMARK    4  A    between atoms: C_12  and  C_14
REMARK    5  A    between atoms: C_12  and  N_20
REMARK                            x       y       z     vdW  Elec       q    Type
REMARK                         _______ _______ _______ _____ _____    ______ ____
ROOT
ATOM      1  C   UNL     1       0.606  -0.607  -1.056  0.00  0.00    +0.124 A 
ATOM      2  C   UNL     1       1.173   0.170  -2.062  0.00  0.00    +0.046 A 
ATOM      3  C   UNL     1       1.783  -0.423  -3.132  0.00  0.00    +0.015 A 
ATOM      4  C   UNL     1       1.839  -1.813  -3.215  0.00  0.00    +0.021 A 
ATOM      5  C   UNL     1       2.396  -2.761  -4.188  0.00  0.00    +0.051 A 
ATOM      6  C   UNL     1       2.133  -3.985  -3.711  0.00  0.00    +0.097 A 
ATOM      7  O   UNL     1       1.470  -3.894  -2.544  0.00  0.00    -0.461 OA
ATOM      8  C   UNL     1       1.269  -2.606  -2.204  0.00  0.00    +0.139 A 
ATOM      9  C   UNL     1       0.657  -1.988  -1.121  0.00  0.00    +0.092 A 
ENDROOT
BRANCH   1  11
ATOM     10  C   UNL     1      -0.017   1.425   0.010  0.00  0.00    +0.277 C 
ATOM     11  O   UNL     1       0.002  -0.004   0.002  0.00  0.00    -0.495 OA
ENDBRANCH   1  11
BRANCH   6  12
ATOM     12  C   UNL     1       2.522  -5.275  -4.384  0.00  0.00    +0.030 C 
BRANCH  12  13
ATOM     13  C   UNL     1       1.331  -5.840  -5.115  0.00  0.00    -0.016 A 
ATOM     14  C   UNL     1       1.033  -5.780  -6.435  0.00  0.00    +0.011 A 
ATOM     15  C   UNL     1      -0.129  -6.377  -6.888  0.00  0.00    +0.023 A 
ATOM     16  C   UNL     1      -0.936  -7.004  -5.997  0.00  0.00    +0.055 A 
ATOM     17  S   UNL     1      -0.049  -6.768  -4.466  0.00  0.00    -0.088 S 
ATOM     18 BR   UNL     1      -2.572  -7.903  -6.299  0.00  0.00    -0.043 Br
ENDBRANCH  12  13
BRANCH  12  19
ATOM     19  N   UNL     1       2.977  -6.238  -3.372  0.00  0.00    +0.388 N 
ATOM     20  H   UNL     1       2.232  -6.413  -2.715  0.00  0.00    -0.089 HD
ATOM     21  H   UNL     1       3.238  -7.102  -3.823  0.00  0.00    -0.089 HD
ATOM     22  H   UNL     1       3.775  -5.860  -2.883  0.00  0.00    -0.089 HD
ENDBRANCH  12  19
ENDBRANCH   6  12
TORSDOF 4
