REMARK  Name = ZINC08831265
REMARK  10 active torsions:
REMARK  status: ('A' for Active; 'I' for Inactive)
REMARK    1  A    between atoms: C_1  and  C_2
REMARK    2  A    between atoms: C_2  and  C_3
REMARK    3  A    between atoms: C_3  and  C_5
REMARK    4  A    between atoms: C_3  and  C_6
REMARK    5  A    between atoms: C_11  and  N_12
REMARK    6  A    between atoms: N_12  and  C_13
REMARK    7  A    between atoms: C_13  and  N_15
REMARK    8  A    between atoms: C_16  and  C_18
REMARK    9  A    between atoms: C_19  and  C_20
REMARK   10  A    between atoms: C_23  and  C_25
REMARK                            x       y       z     vdW  Elec       q    Type
REMARK                         _______ _______ _______ _____ _____    ______ ____
ROOT
ATOM      1  N   UNL     1      -1.265  -2.860  -2.952  0.00  0.00    -0.264 N 
ATOM      2  C   UNL     1      -1.619  -3.682  -3.959  0.00  0.00    +0.242 C 
ATOM      3  O   UNL     1      -2.029  -3.219  -5.008  0.00  0.00    -0.270 OA
ATOM      4  H   UNL     1      -0.938  -3.229  -2.116  0.00  0.00    +0.157 HD
ENDROOT
BRANCH   1   5
ATOM      5  C   UNL     1      -1.365  -1.524  -3.105  0.00  0.00    +0.141 C 
ATOM      6  S   UNL     1      -1.942  -0.873  -4.580  0.00  0.00    -0.018 S 
BRANCH   5   7
ATOM      7  N   UNL     1      -1.011  -0.702  -2.098  0.00  0.00    -0.296 N 
ATOM      8  H   UNL     1      -0.615  -1.066  -1.291  0.00  0.00    +0.154 HD
BRANCH   7  14
ATOM      9  C   UNL     1      -0.222   1.563  -1.818  0.00  0.00    -0.023 A 
ATOM     10  C   UNL     1      -0.428   2.925  -1.931  0.00  0.00    +0.006 A 
ATOM     11  C   UNL     1      -1.617   3.405  -2.450  0.00  0.00    +0.000 A 
ATOM     12  C   UNL     1      -2.606   2.524  -2.848  0.00  0.00    +0.002 A 
ATOM     13  C   UNL     1      -2.409   1.163  -2.733  0.00  0.00    +0.023 A 
ATOM     14  C   UNL     1      -1.214   0.677  -2.217  0.00  0.00    +0.036 A 
BRANCH   9  15
ATOM     15  C   UNL     1       1.075   1.041  -1.257  0.00  0.00    +0.017 C 
ATOM     16  C   UNL     1       1.220   1.492   0.198  0.00  0.00    +0.012 C 
BRANCH  15  18
ATOM     17  C   UNL     1       3.550   0.961  -1.589  0.00  0.00    +0.004 C 
ATOM     18  C   UNL     1       2.244   1.588  -2.080  0.00  0.00    +0.004 C 
ENDBRANCH  15  18
ENDBRANCH   9  15
ENDBRANCH   7  14
ENDBRANCH   5   7
ENDBRANCH   1   5
BRANCH   2  19
ATOM     19  C   UNL     1      -1.514  -5.082  -3.798  0.00  0.00    +0.071 C 
ATOM     20  C   UNL     1      -1.871  -5.911  -4.814  0.00  0.00    +0.051 C 
BRANCH  20  21
ATOM     21  C   UNL     1      -1.766  -7.311  -4.653  0.00  0.00    +0.129 A 
ATOM     22  C   UNL     1      -2.094  -8.262  -5.601  0.00  0.00    +0.050 A 
ATOM     23  C   UNL     1      -1.838  -9.510  -5.027  0.00  0.00    +0.050 A 
ATOM     24  C   UNL     1      -1.366  -9.277  -3.754  0.00  0.00    +0.137 A 
ATOM     25  O   UNL     1      -1.324  -7.949  -3.549  0.00  0.00    -0.455 OA
BRANCH  24  26
ATOM     26  C   UNL     1      -0.966 -10.312  -2.781  0.00  0.00    +0.036 A 
ATOM     27  C   UNL     1      -1.821 -11.382  -2.504  0.00  0.00    +0.014 A 
ATOM     28  C   UNL     1      -1.440 -12.349  -1.599  0.00  0.00    +0.021 A 
ATOM     29  C   UNL     1      -0.216 -12.256  -0.955  0.00  0.00    +0.042 A 
ATOM     30  C   UNL     1       0.634 -11.197  -1.220  0.00  0.00    +0.040 A 
ATOM     31  C   UNL     1       0.267 -10.224  -2.129  0.00  0.00    +0.053 A 
ATOM     32 CL   UNL     1       1.334  -8.896  -2.461  0.00  0.00    -0.083 Cl
ATOM     33 CL   UNL     1       0.253 -13.475   0.190  0.00  0.00    -0.083 Cl
ENDBRANCH  24  26
ENDBRANCH  20  21
ENDBRANCH   2  19
TORSDOF 8
