REMARK  Name = ZINC39887789
REMARK  7 active torsions:
REMARK  status: ('A' for Active; 'I' for Inactive)
REMARK    1  A    between atoms: C_4  and  C_7
REMARK    2  A    between atoms: C_7  and  C_9
REMARK    3  A    between atoms: C_9  and  C_10
REMARK    4  A    between atoms: N_16  and  N_17
REMARK    5  A    between atoms: C_18  and  C_19
REMARK    6  A    between atoms: N_21  and  C_31
REMARK    7  A    between atoms: C_23  and  C_24
REMARK                            x       y       z     vdW  Elec       q    Type
REMARK                         _______ _______ _______ _____ _____    ______ ____
ROOT
ATOM      1  N   UNL     1       6.628  -5.933  -3.647  0.00  0.00    -0.155 NA
ATOM      2  C   UNL     1       7.275  -6.347  -4.703  0.00  0.00    +0.146 C 
ENDROOT
BRANCH   1   8
ATOM      3  C   UNL     1       4.082  -2.917  -0.580  0.00  0.00    +0.147 C 
ATOM      4  C   UNL     1       4.213  -4.432  -0.567  0.00  0.00    +0.232 C 
ATOM      5  O   UNL     1       3.685  -5.117   0.283  0.00  0.00    -0.274 OA
ATOM      6  N   UNL     1       4.937  -4.955  -1.541  0.00  0.00    -0.263 N 
ATOM      7  C   UNL     1       5.541  -4.183  -2.512  0.00  0.00    +0.183 C 
ATOM      8  N   UNL     1       6.280  -4.582  -3.524  0.00  0.00    -0.127 NA
ATOM      9  S   UNL     1       5.082  -2.512  -2.071  0.00  0.00    -0.075 S 
ATOM     10  H   UNL     1       5.049  -5.918  -1.574  0.00  0.00    +0.157 HD
BRANCH   3  11
ATOM     11  C   UNL     1       2.625  -2.487  -0.756  0.00  0.00    +0.103 C 
BRANCH  11  12
ATOM     12  C   UNL     1       2.538  -0.983  -0.734  0.00  0.00    +0.165 C 
ATOM     13  O   UNL     1       3.543  -0.320  -0.591  0.00  0.00    -0.292 OA
BRANCH  12  17
ATOM     14  C   UNL     1      -1.221   0.932  -1.172  0.00  0.00    +0.000 A 
ATOM     15  C   UNL     1      -0.076   1.692  -1.008  0.00  0.00    +0.001 A 
ATOM     16  C   UNL     1       1.149   1.077  -0.865  0.00  0.00    +0.011 A 
ATOM     17  C   UNL     1       1.234  -0.318  -0.885  0.00  0.00    +0.017 A 
ATOM     18  C   UNL     1       0.072  -1.080  -1.050  0.00  0.00    +0.011 A 
ATOM     19  C   UNL     1      -1.146  -0.450  -1.193  0.00  0.00    +0.001 A 
ENDBRANCH  12  17
ENDBRANCH  11  12
ENDBRANCH   3  11
ENDBRANCH   1   8
BRANCH   2  20
ATOM     20  C   UNL     1       7.750  -7.737  -4.776  0.00  0.00    +0.041 A 
ATOM     21  C   UNL     1       8.437  -8.321  -5.820  0.00  0.00    +0.124 A 
ATOM     22  N   UNL     1       8.683  -9.605  -5.486  0.00  0.00    -0.239 N 
ATOM     23  N   UNL     1       8.157  -9.867  -4.217  0.00  0.00    -0.166 NA
ATOM     24  C   UNL     1       7.594  -8.774  -3.751  0.00  0.00    +0.102 A 
BRANCH  24  25
ATOM     25  C   UNL     1       6.923  -8.620  -2.438  0.00  0.00    +0.003 A 
ATOM     26  C   UNL     1       7.143  -7.477  -1.670  0.00  0.00    +0.011 A 
ATOM     27  C   UNL     1       6.516  -7.339  -0.449  0.00  0.00    +0.020 A 
ATOM     28  C   UNL     1       5.670  -8.332   0.014  0.00  0.00    +0.041 A 
ATOM     29  C   UNL     1       5.448  -9.469  -0.745  0.00  0.00    +0.020 A 
ATOM     30  C   UNL     1       6.065  -9.614  -1.970  0.00  0.00    +0.011 A 
ATOM     31 CL   UNL     1       4.885  -8.152   1.552  0.00  0.00    -0.084 Cl
ENDBRANCH  24  25
BRANCH  22  32
ATOM     32  C   UNL     1       9.362 -10.533  -6.286  0.00  0.00    +0.065 A 
ATOM     33  C   UNL     1       9.847 -10.154  -7.531  0.00  0.00    +0.028 A 
ATOM     34  C   UNL     1      10.515 -11.071  -8.318  0.00  0.00    +0.002 A 
ATOM     35  C   UNL     1      10.702 -12.365  -7.868  0.00  0.00    +0.000 A 
ATOM     36  C   UNL     1      10.220 -12.745  -6.629  0.00  0.00    +0.002 A 
ATOM     37  C   UNL     1       9.556 -11.831  -5.834  0.00  0.00    +0.028 A 
ENDBRANCH  22  32
ENDBRANCH   2  20
TORSDOF 7
