REMARK  Name = ZINC12577547
REMARK  7 active torsions:
REMARK  status: ('A' for Active; 'I' for Inactive)
REMARK    1  A    between atoms: C_1  and  C_2
REMARK    2  A    between atoms: C_2  and  C_4
REMARK    3  A    between atoms: C_2  and  O_18
REMARK    4  A    between atoms: N_6  and  N_7
REMARK    5  A    between atoms: C_8  and  C_9
REMARK    6  A    between atoms: C_14  and  O_15
REMARK    7  A    between atoms: O_18  and  C_19
REMARK                            x       y       z     vdW  Elec       q    Type
REMARK                         _______ _______ _______ _____ _____    ______ ____
ROOT
ATOM      1  C   UNL     1       2.373  -3.931  -0.959  0.00  0.00    +0.273 C 
ATOM      2  O   UNL     1       1.286  -4.260  -1.386  0.00  0.00    -0.270 OA
ATOM      3  N   UNL     1       3.455  -4.694  -1.209  0.00  0.00    -0.204 N 
ATOM      4  H   UNL     1       4.324  -4.430  -0.867  0.00  0.00    +0.177 HD
ENDROOT
BRANCH   1   6
ATOM      5  C   UNL     1       3.052  -3.011   1.242  0.00  0.00    +0.062 C 
ATOM      6  C   UNL     1       2.512  -2.668  -0.148  0.00  0.00    +0.257 C 
BRANCH   6   7
ATOM      7  O   UNL     1       1.235  -2.040  -0.021  0.00  0.00    -0.478 OA
BRANCH   7   8
ATOM      8  C   UNL     1       1.226  -0.698   0.200  0.00  0.00    +0.140 A 
ATOM      9  C   UNL     1       2.419  -0.021   0.405  0.00  0.00    +0.048 A 
ATOM     10  C   UNL     1       2.408   1.343   0.629  0.00  0.00    +0.023 A 
ATOM     11  C   UNL     1       1.209   2.033   0.650  0.00  0.00    +0.043 A 
ATOM     12  C   UNL     1       0.018   1.359   0.446  0.00  0.00    +0.043 A 
ATOM     13  C   UNL     1       0.024  -0.005   0.221  0.00  0.00    +0.084 A 
ATOM     14 CL   UNL     1      -1.470  -0.850  -0.036  0.00  0.00    -0.080 Cl
ATOM     15 CL   UNL     1       1.199   3.745   0.931  0.00  0.00    -0.083 Cl
ENDBRANCH   7   8
ENDBRANCH   6   7
ENDBRANCH   1   6
BRANCH   3  16
ATOM     16  N   UNL     1       3.325  -5.868  -1.962  0.00  0.00    -0.188 NA
ATOM     17  C   UNL     1       4.368  -6.603  -2.203  0.00  0.00    +0.142 C 
BRANCH  17  18
ATOM     18  C   UNL     1       4.231  -7.838  -2.996  0.00  0.00    +0.039 A 
ATOM     19  C   UNL     1       5.351  -8.631  -3.258  0.00  0.00    +0.033 A 
ATOM     20  C   UNL     1       5.217  -9.787  -4.000  0.00  0.00    +0.043 A 
ATOM     21  C   UNL     1       3.976 -10.163  -4.488  0.00  0.00    +0.043 A 
ATOM     22  C   UNL     1       2.860  -9.386  -4.235  0.00  0.00    +0.084 A 
ATOM     23  C   UNL     1       2.978  -8.225  -3.487  0.00  0.00    +0.144 A 
ATOM     24 CL   UNL     1       1.310  -9.867  -4.851  0.00  0.00    -0.080 Cl
ATOM     25 CL   UNL     1       6.608 -10.772  -4.325  0.00  0.00    -0.083 Cl
BRANCH  23  26
ATOM     26  O   UNL     1       1.881  -7.463  -3.234  0.00  0.00    -0.505 OA
ATOM     27  H   UNL     1       1.712  -6.783  -3.901  0.00  0.00    +0.292 HD
ENDBRANCH  23  26
ENDBRANCH  17  18
ENDBRANCH   3  16
TORSDOF 6
