REMARK  Name = ZINC30843352
REMARK  11 active torsions:
REMARK  status: ('A' for Active; 'I' for Inactive)
REMARK    1  A    between atoms: C_1  and  C_2
REMARK    2  A    between atoms: C_6  and  O_9
REMARK    3  A    between atoms: C_7  and  C_8
REMARK    4  A    between atoms: O_9  and  C_10
REMARK    5  A    between atoms: C_10  and  C_11
REMARK    6  A    between atoms: N_13  and  N_14
REMARK    7  A    between atoms: C_15  and  C_16
REMARK    8  A    between atoms: C_19  and  C_22
REMARK    9  A    between atoms: C_22  and  C_23
REMARK   10  A    between atoms: C_22  and  C_24
REMARK   11  A    between atoms: C_22  and  C_25
REMARK                            x       y       z     vdW  Elec       q    Type
REMARK                         _______ _______ _______ _____ _____    ______ ____
ROOT
ATOM      1  C   UNL     1      -0.402   2.125  -1.256  0.00  0.00    +0.270 C 
ATOM      2  O   UNL     1      -1.578   2.345  -1.055  0.00  0.00    -0.270 OA
ATOM      3  N   UNL     1       0.033   1.877  -2.507  0.00  0.00    -0.204 N 
ATOM      4  H   UNL     1       1.100   1.678  -2.689  0.00  0.00    +0.177 HD
ENDROOT
BRANCH   3   5
ATOM      5  N   UNL     1      -0.873   1.872  -3.576  0.00  0.00    -0.188 NA
ATOM      6  C   UNL     1      -0.477   1.518  -4.760  0.00  0.00    +0.138 C 
BRANCH   6   7
ATOM      7  C   UNL     1       0.732   0.688  -4.916  0.00  0.00    -0.005 A 
ATOM      8  C   UNL     1       1.318   0.531  -6.175  0.00  0.00    +0.010 A 
ATOM      9  C   UNL     1       2.452  -0.242  -6.312  0.00  0.00    +0.005 A 
ATOM     10  C   UNL     1       3.002  -0.871  -5.209  0.00  0.00    -0.042 A 
ATOM     11  C   UNL     1       2.423  -0.726  -3.961  0.00  0.00    +0.005 A 
ATOM     12  C   UNL     1       1.293   0.050  -3.808  0.00  0.00    +0.010 A 
BRANCH  10  13
ATOM     13  C   UNL     1       4.237  -1.720  -5.369  0.00  0.00    -0.013 C 
ATOM     14  C   UNL     1       3.930  -3.154  -4.931  0.00  0.00    +0.015 C 
ATOM     15  C   UNL     1       4.672  -1.717  -6.836  0.00  0.00    +0.015 C 
ATOM     16  C   UNL     1       5.362  -1.152  -4.502  0.00  0.00    +0.015 C 
ENDBRANCH  10  13
ENDBRANCH   6   7
ENDBRANCH   3   5
BRANCH   1  17
ATOM     17  C   UNL     1       0.573   2.130  -0.106  0.00  0.00    +0.326 C 
BRANCH  17  18
ATOM     18  O   UNL     1      -0.124   2.416   1.108  0.00  0.00    -0.482 OA
BRANCH  18  24
ATOM     19  C   UNL     1       0.089   3.068   5.940  0.00  0.00    +0.044 C 
ATOM     20  C   UNL     1       0.754   2.772   4.620  0.00  0.00    -0.044 A 
ATOM     21  C   UNL     1       2.117   2.543   4.569  0.00  0.00    +0.004 A 
ATOM     22  C   UNL     1       2.729   2.272   3.360  0.00  0.00    +0.004 A 
ATOM     23  C   UNL     1       1.981   2.228   2.199  0.00  0.00    +0.046 A 
ATOM     24  C   UNL     1       0.614   2.458   2.248  0.00  0.00    +0.124 A 
ATOM     25  C   UNL     1       0.002   2.736   3.462  0.00  0.00    -0.006 A 
ATOM     26  C   UNL     1      -1.482   2.992   3.518  0.00  0.00    +0.048 C 
ENDBRANCH  18  24
ENDBRANCH  17  18
ENDBRANCH   1  17
TORSDOF 6
