REMARK  Name = ZINC35036999
REMARK  8 active torsions:
REMARK  status: ('A' for Active; 'I' for Inactive)
REMARK    1  A    between atoms: C_1  and  C_2
REMARK    2  A    between atoms: C_2  and  C_3
REMARK    3  A    between atoms: C_3  and  N_4
REMARK    4  A    between atoms: C_14  and  C_15
REMARK    5  A    between atoms: C_15  and  C_17
REMARK    6  A    between atoms: C_15  and  N_19
REMARK    7  A    between atoms: C_17  and  C_18
REMARK    8  A    between atoms: N_27  and  C_28
REMARK                            x       y       z     vdW  Elec       q    Type
REMARK                         _______ _______ _______ _____ _____    ______ ____
ROOT
ATOM      1  N   UNL     1      -2.546  -3.296  -2.950  0.00  0.00    +0.388 N 
ATOM      2  C   UNL     1      -2.995  -4.381  -2.068  0.00  0.00    -0.058 C 
ATOM      3  C   UNL     1      -4.075  -5.202  -2.780  0.00  0.00    +0.091 C 
ATOM      4  N   UNL     1      -5.144  -4.290  -3.213  0.00  0.00    -0.289 N 
ATOM      5  C   UNL     1      -4.765  -3.085  -3.966  0.00  0.00    +0.091 C 
ATOM      6  C   UNL     1      -3.652  -2.363  -3.199  0.00  0.00    -0.058 C 
ATOM      7  C   UNL     1      -6.436  -4.552  -2.929  0.00  0.00    +0.306 C 
ATOM      8  O   UNL     1      -6.724  -5.507  -2.234  0.00  0.00    -0.252 OA
ATOM      9  N   UNL     1      -7.407  -3.755  -3.416  0.00  0.00    -0.268 N 
ATOM     10  H   UNL     1      -7.184  -3.035  -4.026  0.00  0.00    +0.156 HD
ATOM     11  H   UNL     1      -2.233  -3.686  -3.827  0.00  0.00    -0.081 HD
ENDROOT
BRANCH   9  12
ATOM     12  C   UNL     1      -8.740  -3.967  -3.042  0.00  0.00    +0.049 A 
ATOM     13  C   UNL     1      -9.034  -4.726  -1.917  0.00  0.00    +0.024 A 
ATOM     14  C   UNL     1     -10.349  -4.933  -1.549  0.00  0.00    +0.002 A 
ATOM     15  C   UNL     1     -11.373  -4.386  -2.301  0.00  0.00    +0.001 A 
ATOM     16  C   UNL     1     -11.084  -3.630  -3.422  0.00  0.00    +0.017 A 
ATOM     17  C   UNL     1      -9.770  -3.415  -3.792  0.00  0.00    +0.039 A 
ATOM     18 BR   UNL     1      -9.375  -2.375  -5.321  0.00  0.00    -0.048 Br
ENDBRANCH   9  12
BRANCH   1  19
ATOM     19  C   UNL     1      -1.435  -2.577  -2.313  0.00  0.00    -0.001 C 
BRANCH  19  30
ATOM     20  N   UNL     1       0.404  -3.337  -0.864  0.00  0.00    -0.297 N 
ATOM     21  C   UNL     1       1.405  -4.183  -0.526  0.00  0.00    +0.262 A 
ATOM     22  O   UNL     1       2.066  -4.010   0.482  0.00  0.00    -0.267 OA
ATOM     23  C   UNL     1       1.663  -5.319  -1.423  0.00  0.00    +0.065 A 
ATOM     24  C   UNL     1       2.670  -6.247  -1.165  0.00  0.00    +0.015 A 
ATOM     25  C   UNL     1       2.868  -7.294  -2.040  0.00  0.00    +0.001 A 
ATOM     26  C   UNL     1       2.075  -7.428  -3.172  0.00  0.00    +0.002 A 
ATOM     27  C   UNL     1       1.075  -6.522  -3.444  0.00  0.00    +0.028 A 
ATOM     28  C   UNL     1       0.854  -5.453  -2.573  0.00  0.00    +0.078 A 
ATOM     29  N   UNL     1      -0.120  -4.537  -2.802  0.00  0.00    -0.235 NA
ATOM     30  C   UNL     1      -0.328  -3.547  -1.989  0.00  0.00    +0.099 A 
BRANCH  20  31
ATOM     31  C   UNL     1       0.104  -2.188  -0.006  0.00  0.00    +0.126 C 
BRANCH  31  33
ATOM     32  C   UNL     1      -1.316  -1.365   1.877  0.00  0.00    +0.005 C 
ATOM     33  C   UNL     1      -1.003  -2.564   0.981  0.00  0.00    +0.018 C 
ENDBRANCH  31  33
ENDBRANCH  20  31
ENDBRANCH  19  30
BRANCH  19  34
ATOM     34  C   UNL     1      -0.909  -1.502  -3.267  0.00  0.00    -0.011 C 
ATOM     35  C   UNL     1      -0.478  -2.155  -4.582  0.00  0.00    +0.002 C 
ENDBRANCH  19  34
ENDBRANCH   1  19
TORSDOF 6
