REMARK  Name = ZINC02651755
REMARK  8 active torsions:
REMARK  status: ('A' for Active; 'I' for Inactive)
REMARK    1  A    between atoms: C_1  and  C_2
REMARK    2  A    between atoms: C_3  and  C_16
REMARK    3  A    between atoms: N_5  and  C_7
REMARK    4  A    between atoms: C_7  and  C_8
REMARK    5  A    between atoms: C_16  and  O_18
REMARK    6  A    between atoms: O_18  and  C_19
REMARK    7  A    between atoms: C_19  and  C_20
REMARK    8  A    between atoms: C_23  and  C_25
REMARK                            x       y       z     vdW  Elec       q    Type
REMARK                         _______ _______ _______ _____ _____    ______ ____
ROOT
ATOM      1  O   UNL     1      -3.371  11.332   1.017  0.00  0.00    -0.452 OA
ENDROOT
BRANCH   1   2
ATOM      2  C   UNL     1      -4.299  12.268   0.734  0.00  0.00    +0.344 C 
ATOM      3  O   UNL     1      -5.383  11.936   0.297  0.00  0.00    -0.245 OA
BRANCH   2   6
ATOM      4  C   UNL     1      -2.997  14.240  -1.385  0.00  0.00    +0.068 C 
ATOM      5  C   UNL     1      -3.420  14.582   0.021  0.00  0.00    +0.075 A 
ATOM      6  C   UNL     1      -3.999  13.692   0.954  0.00  0.00    +0.118 A 
ATOM      7  C   UNL     1      -4.226  14.409   2.115  0.00  0.00    +0.142 A 
ATOM      8  N   UNL     1      -3.812  15.668   1.895  0.00  0.00    -0.248 N 
ATOM      9  N   UNL     1      -3.319  15.752   0.588  0.00  0.00    -0.174 NA
ATOM     10 CL   UNL     1      -4.917  13.796   3.584  0.00  0.00    -0.061 Cl
BRANCH   8  11
ATOM     11  C   UNL     1      -3.866  16.768   2.861  0.00  0.00    +0.181 C 
BRANCH  11  12
ATOM     12  C   UNL     1      -5.123  17.569   2.640  0.00  0.00    -0.008 A 
ATOM     13  C   UNL     1      -6.260  17.288   3.375  0.00  0.00    +0.007 A 
ATOM     14  C   UNL     1      -7.413  18.023   3.172  0.00  0.00    +0.000 A 
ATOM     15  C   UNL     1      -7.431  19.039   2.235  0.00  0.00    +0.001 A 
ATOM     16  C   UNL     1      -6.295  19.320   1.499  0.00  0.00    +0.020 A 
ATOM     17  C   UNL     1      -5.139  18.589   1.705  0.00  0.00    +0.046 A 
ATOM     18 CL   UNL     1      -3.710  18.947   0.787  0.00  0.00    -0.083 Cl
ENDBRANCH  11  12
ENDBRANCH   8  11
ENDBRANCH   2   6
ENDBRANCH   1   2
BRANCH   1  19
ATOM     19  C   UNL     1      -3.736   9.948   0.775  0.00  0.00    +0.328 C 
BRANCH  19  20
ATOM     20  C   UNL     1      -2.582   9.052   1.147  0.00  0.00    +0.257 C 
ATOM     21  O   UNL     1      -1.554   9.533   1.573  0.00  0.00    -0.272 OA
ATOM     22  N   UNL     1      -2.693   7.717   1.005  0.00  0.00    -0.250 N 
ATOM     23  C   UNL     1      -1.661   6.916   1.337  0.00  0.00    +0.263 C 
ATOM     24  O   UNL     1      -0.633   7.397   1.764  0.00  0.00    -0.271 OA
ATOM     25  H   UNL     1      -3.515   7.332   0.663  0.00  0.00    +0.158 HD
BRANCH  23  26
ATOM     26  C   UNL     1      -1.785   5.422   1.179  0.00  0.00    +0.296 C 
ATOM     27  C   UNL     1      -2.861   4.888   2.134  0.00  0.00    +0.283 C 
ATOM     28  O   UNL     1      -2.942   3.468   1.968  0.00  0.00    -0.484 OA
ATOM     29  C   UNL     1      -1.764   2.787   1.938  0.00  0.00    +0.162 A 
ATOM     30  C   UNL     1      -1.766   1.415   2.139  0.00  0.00    +0.049 A 
ATOM     31  C   UNL     1      -0.578   0.710   2.115  0.00  0.00    +0.004 A 
ATOM     32  C   UNL     1       0.615   1.369   1.879  0.00  0.00    +0.004 A 
ATOM     33  C   UNL     1       0.623   2.735   1.674  0.00  0.00    +0.049 A 
ATOM     34  C   UNL     1      -0.565   3.450   1.705  0.00  0.00    +0.163 A 
ATOM     35  O   UNL     1      -0.540   4.797   1.509  0.00  0.00    -0.473 OA
ENDBRANCH  23  26
ENDBRANCH  19  20
ENDBRANCH   1  19
TORSDOF 7
