REMARK  Name = ZINC08832440
REMARK  9 active torsions:
REMARK  status: ('A' for Active; 'I' for Inactive)
REMARK    1  A    between atoms: C_1  and  C_2
REMARK    2  A    between atoms: C_2  and  C_3
REMARK    3  A    between atoms: C_2  and  C_4
REMARK    4  A    between atoms: C_2  and  C_5
REMARK    5  A    between atoms: C_12  and  N_17
REMARK    6  A    between atoms: C_13  and  C_14
REMARK    7  A    between atoms: C_18  and  C_20
REMARK    8  A    between atoms: C_23  and  C_25
REMARK    9  A    between atoms: C_30  and  N_31
REMARK                            x       y       z     vdW  Elec       q    Type
REMARK                         _______ _______ _______ _____ _____    ______ ____
ROOT
ATOM      1  C   UNL     1       9.591   0.623   0.301  0.00  0.00    -0.000 C 
ATOM      2  C   UNL     1       9.643   1.907  -0.531  0.00  0.00    +0.009 C 
ATOM      3  C   UNL     1       8.556   2.876  -0.061  0.00  0.00    +0.037 C 
ATOM      4  C   UNL     1       7.218   2.145  -0.052  0.00  0.00    -0.023 A 
ATOM      5  C   UNL     1       7.163   0.795  -0.057  0.00  0.00    -0.004 A 
ATOM      6  S   UNL     1       5.435   0.413  -0.043  0.00  0.00    -0.077 S 
ATOM      7  C   UNL     1       4.792   2.022  -0.030  0.00  0.00    +0.085 A 
ATOM      8  C   UNL     1       5.930   2.817  -0.042  0.00  0.00    +0.068 A 
ATOM      9  C   UNL     1       8.320  -0.156  -0.071  0.00  0.00    +0.046 C 
ENDROOT
BRANCH   8  10
ATOM     10  C   UNL     1       5.836   4.280  -0.042  0.00  0.00    +0.244 C 
ATOM     11  O   UNL     1       5.808   4.887   1.013  0.00  0.00    -0.270 OA
ATOM     12  N   UNL     1       5.779   4.952  -1.208  0.00  0.00    -0.325 N 
ATOM     13  H   UNL     1       5.801   4.468  -2.049  0.00  0.00    +0.145 HD
ATOM     14  H   UNL     1       5.717   5.920  -1.208  0.00  0.00    +0.145 HD
ENDBRANCH   8  10
BRANCH   1  16
ATOM     15  C   UNL     1      12.087   0.551   0.355  0.00  0.00    +0.011 C 
ATOM     16  C   UNL     1      10.823  -0.233   0.001  0.00  0.00    -0.035 C 
ATOM     17  C   UNL     1      10.768  -1.516   0.833  0.00  0.00    +0.011 C 
ATOM     18  C   UNL     1      10.845  -0.591  -1.487  0.00  0.00    +0.011 C 
ENDBRANCH   1  16
BRANCH   7  19
ATOM     19  N   UNL     1       3.465   2.419  -0.017  0.00  0.00    -0.273 N 
ATOM     20  C   UNL     1       2.485   1.493  -0.012  0.00  0.00    +0.284 C 
ATOM     21  O   UNL     1       2.767   0.309  -0.020  0.00  0.00    -0.266 OA
ATOM     22  H   UNL     1       3.241   3.362  -0.011  0.00  0.00    +0.156 HD
BRANCH  20  23
ATOM     23  C   UNL     1       1.082   1.913   0.002  0.00  0.00    +0.190 A 
ATOM     24  C   UNL     1      -0.013   1.076   0.008  0.00  0.00    +0.055 A 
ATOM     25  C   UNL     1      -1.146   1.895   0.017  0.00  0.00    +0.051 A 
ATOM     26  C   UNL     1      -0.708   3.188   0.025  0.00  0.00    +0.138 A 
ATOM     27  O   UNL     1       0.636   3.187   0.012  0.00  0.00    -0.450 OA
BRANCH  26  28
ATOM     28  C   UNL     1      -1.567   4.388   0.038  0.00  0.00    +0.047 A 
ATOM     29  C   UNL     1      -2.615   4.511  -0.877  0.00  0.00    +0.014 A 
ATOM     30  C   UNL     1      -3.414   5.635  -0.858  0.00  0.00    +0.001 A 
ATOM     31  C   UNL     1      -3.181   6.639   0.065  0.00  0.00    +0.002 A 
ATOM     32  C   UNL     1      -2.144   6.524   0.974  0.00  0.00    +0.033 A 
ATOM     33  C   UNL     1      -1.340   5.403   0.970  0.00  0.00    +0.137 A 
BRANCH  33  34
ATOM     34  N   UNL     1      -0.236   5.279   1.948  0.00  0.00    +0.057 N 
ATOM     35  O   UNL     1      -0.039   6.165   2.760  0.00  0.00    -0.126 OA
ATOM     36  O   UNL     1       0.476   4.290   1.940  0.00  0.00    -0.126 OA
ENDBRANCH  33  34
ENDBRANCH  26  28
ENDBRANCH  20  23
ENDBRANCH   7  19
TORSDOF 6
