REMARK  Name = ZINC13646720
REMARK  9 active torsions:
REMARK  status: ('A' for Active; 'I' for Inactive)
REMARK    1  A    between atoms: C_1  and  C_2
REMARK    2  A    between atoms: C_2  and  O_3
REMARK    3  A    between atoms: O_3  and  C_4
REMARK    4  A    between atoms: C_4  and  C_6
REMARK    5  A    between atoms: C_10  and  N_11
REMARK    6  A    between atoms: N_11  and  C_12
REMARK    7  A    between atoms: C_12  and  N_14
REMARK    8  A    between atoms: C_15  and  C_17
REMARK    9  A    between atoms: C_18  and  C_19
REMARK                            x       y       z     vdW  Elec       q    Type
REMARK                         _______ _______ _______ _____ _____    ______ ____
ROOT
ATOM      1  N   UNL     1      -3.339  -0.283   5.038  0.00  0.00    -0.290 N 
ATOM      2  H   UNL     1      -2.593  -0.862   5.258  0.00  0.00    +0.154 HD
ENDROOT
BRANCH   1   7
ATOM      3  C   UNL     1      -3.548  -1.138   2.700  0.00  0.00    +0.091 A 
ATOM      4  C   UNL     1      -4.308  -0.993   1.472  0.00  0.00    -0.021 A 
ATOM      5  C   UNL     1      -5.301  -0.076   1.514  0.00  0.00    -0.004 A 
ATOM      6  S   UNL     1      -5.231   0.592   3.152  0.00  0.00    -0.077 S 
ATOM      7  C   UNL     1      -3.905  -0.333   3.775  0.00  0.00    +0.086 A 
ATOM      8  C   UNL     1      -6.244   0.286   0.408  0.00  0.00    +0.043 C 
ATOM      9  C   UNL     1      -5.684  -0.272  -0.908  0.00  0.00    +0.005 C 
ATOM     10  C   UNL     1      -5.279  -1.733  -0.691  0.00  0.00    +0.005 C 
ATOM     11  C   UNL     1      -4.044  -1.803   0.208  0.00  0.00    +0.037 C 
BRANCH   3  12
ATOM     12  C   UNL     1      -2.445  -2.095   2.801  0.00  0.00    +0.342 C 
ATOM     13  O   UNL     1      -2.659  -3.233   3.175  0.00  0.00    -0.245 OA
BRANCH  12  14
ATOM     14  O   UNL     1      -1.191  -1.715   2.481  0.00  0.00    -0.461 OA
BRANCH  14  16
ATOM     15  C   UNL     1       1.196  -2.106   2.201  0.00  0.00    +0.048 C 
ATOM     16  C   UNL     1      -0.147  -2.716   2.605  0.00  0.00    +0.229 C 
ENDBRANCH  14  16
ENDBRANCH  12  14
ENDBRANCH   3  12
ENDBRANCH   1   7
BRANCH   1  17
ATOM     17  C   UNL     1      -3.824   0.571   5.961  0.00  0.00    +0.141 C 
ATOM     18  S   UNL     1      -5.141   1.594   5.572  0.00  0.00    -0.018 S 
BRANCH  17  19
ATOM     19  N   UNL     1      -3.273   0.620   7.190  0.00  0.00    -0.264 N 
ATOM     20  C   UNL     1      -3.759   1.474   8.112  0.00  0.00    +0.242 C 
ATOM     21  O   UNL     1      -4.695   2.201   7.836  0.00  0.00    -0.270 OA
ATOM     22  H   UNL     1      -2.527   0.041   7.410  0.00  0.00    +0.157 HD
BRANCH  20  23
ATOM     23  C   UNL     1      -3.161   1.528   9.446  0.00  0.00    +0.068 C 
ATOM     24  C   UNL     1      -3.554   2.474  10.324  0.00  0.00    +0.013 C 
BRANCH  24  25
ATOM     25  C   UNL     1      -4.396   3.592   9.873  0.00  0.00    -0.025 A 
ATOM     26  C   UNL     1      -4.106   4.250   8.673  0.00  0.00    +0.009 A 
ATOM     27  C   UNL     1      -4.904   5.294   8.254  0.00  0.00    +0.016 A 
ATOM     28  C   UNL     1      -5.983   5.698   9.022  0.00  0.00    +0.018 A 
ATOM     29  C   UNL     1      -6.272   5.055  10.214  0.00  0.00    +0.016 A 
ATOM     30  C   UNL     1      -5.487   4.006  10.644  0.00  0.00    +0.009 A 
ATOM     31 BR   UNL     1      -7.065   7.136   8.442  0.00  0.00    -0.050 Br
ENDBRANCH  24  25
ENDBRANCH  20  23
ENDBRANCH  17  19
ENDBRANCH   1  17
TORSDOF 8
