REMARK  Name = ZINC12078706
REMARK  11 active torsions:
REMARK  status: ('A' for Active; 'I' for Inactive)
REMARK    1  A    between atoms: C_1  and  C_2
REMARK    2  A    between atoms: C_2  and  C_4
REMARK    3  A    between atoms: C_2  and  N_58
REMARK    4  A    between atoms: C_6  and  C_10
REMARK    5  A    between atoms: C_16  and  N_58
REMARK    6  A    between atoms: C_17  and  C_18
REMARK    7  A    between atoms: C_17  and  N_58
REMARK    8  A    between atoms: C_23  and  O_32
REMARK    9  A    between atoms: N_26  and  C_29
REMARK   10  A    between atoms: C_29  and  C_30
REMARK   11  A    between atoms: O_32  and  C_33
REMARK                            x       y       z     vdW  Elec       q    Type
REMARK                         _______ _______ _______ _____ _____    ______ ____
ROOT
ATOM      1  C   UNL     1       4.146   3.148   2.396  0.00  0.00    -0.037 C 
ENDROOT
BRANCH   1   2
ATOM      2  C   UNL     1       3.608   3.051   0.991  0.00  0.00    +0.001 A 
ATOM      3  C   UNL     1       4.337   3.535  -0.046  0.00  0.00    +0.017 A 
ATOM      4  C   UNL     1       3.787   3.427  -1.397  0.00  0.00    -0.001 A 
ATOM      5  C   UNL     1       4.493   3.908  -2.506  0.00  0.00    +0.013 A 
ATOM      6  C   UNL     1       3.955   3.793  -3.754  0.00  0.00    +0.046 A 
ATOM      7  C   UNL     1       2.706   3.200  -3.936  0.00  0.00    +0.122 A 
ATOM      8  C   UNL     1       1.992   2.718  -2.852  0.00  0.00    +0.072 A 
ATOM      9  C   UNL     1       2.524   2.826  -1.574  0.00  0.00    +0.056 A 
ATOM     10  N   UNL     1       1.834   2.355  -0.477  0.00  0.00    -0.296 N 
ATOM     11  C   UNL     1       2.346   2.465   0.761  0.00  0.00    +0.254 A 
ATOM     12  O   UNL     1       1.706   2.042   1.709  0.00  0.00    -0.267 OA
BRANCH   7  13
ATOM     13  O   UNL     1       2.186   3.094  -5.185  0.00  0.00    -0.495 OA
ATOM     14  C   UNL     1       2.973   3.611  -6.261  0.00  0.00    +0.277 C 
ENDBRANCH   7  13
BRANCH  10  15
ATOM     15  C   UNL     1       0.522   1.731  -0.663  0.00  0.00    +0.214 C 
BRANCH  15  16
ATOM     16  C   UNL     1       0.692   0.284  -0.873  0.00  0.00    -0.084 C 
ATOM     17  C   UNL     1       0.827  -0.870  -1.041  0.00  0.00    +0.005 C 
ENDBRANCH  15  16
ENDBRANCH  10  15
ENDBRANCH   1   2
BRANCH   1  19
ATOM     18  C   UNL     1       2.161   4.256   3.230  0.00  0.00    -0.095 C 
ATOM     19  N   UNL     1       3.620   4.378   3.024  0.00  0.00    +0.386 N 
ATOM     20  H   UNL     1       3.803   5.175   2.403  0.00  0.00    -0.081 HD
BRANCH  19  22
ATOM     21  C   UNL     1       3.723   5.881   4.955  0.00  0.00    -0.007 C 
ATOM     22  C   UNL     1       4.295   4.612   4.318  0.00  0.00    -0.020 C 
BRANCH  22  23
ATOM     23  C   UNL     1       5.770   4.795   4.073  0.00  0.00    +0.050 A 
ATOM     24  C   UNL     1       6.785   4.557   5.001  0.00  0.00    +0.051 A 
ATOM     25  C   UNL     1       7.978   4.836   4.397  0.00  0.00    +0.066 A 
ATOM     26  N   UNL     1       7.704   5.246   3.126  0.00  0.00    -0.277 N 
ATOM     27  H   UNL     1       8.375   5.524   2.438  0.00  0.00    +0.189 HD
ATOM     28  N   UNL     1       6.314   5.208   2.957  0.00  0.00    -0.180 NA
BRANCH  25  29
ATOM     29  C   UNL     1       9.320   4.721   5.010  0.00  0.00    -0.000 A 
ATOM     30  C   UNL     1       9.451   4.291   6.331  0.00  0.00    +0.010 A 
ATOM     31  C   UNL     1      10.705   4.179   6.895  0.00  0.00    +0.001 A 
ATOM     32  C   UNL     1      11.830   4.504   6.159  0.00  0.00    +0.000 A 
ATOM     33  C   UNL     1      11.706   4.936   4.850  0.00  0.00    +0.001 A 
ATOM     34  C   UNL     1      10.458   5.046   4.272  0.00  0.00    +0.010 A 
ENDBRANCH  25  29
ENDBRANCH  22  23
ENDBRANCH  19  22
ENDBRANCH   1  19
TORSDOF 8
