REMARK  Name = ZINC64393000
REMARK  7 active torsions:
REMARK  status: ('A' for Active; 'I' for Inactive)
REMARK    1  A    between atoms: C_1  and  O_2
REMARK    2  A    between atoms: O_2  and  C_3
REMARK    3  A    between atoms: C_3  and  C_5
REMARK    4  A    between atoms: C_7  and  N_17
REMARK    5  A    between atoms: N_17  and  C_18
REMARK    6  A    between atoms: C_18  and  C_19
REMARK    7  A    between atoms: C_19  and  C_20
REMARK                            x       y       z     vdW  Elec       q    Type
REMARK                         _______ _______ _______ _____ _____    ______ ____
ROOT
ATOM      1  C   UNL     1       2.365  -3.539  -2.392  0.00  0.00    +0.228 C 
ATOM      2  C   UNL     1       1.333  -2.438  -2.546  0.00  0.00    +0.036 C 
ATOM      3  C   UNL     1       0.820  -1.877  -1.367  0.00  0.00    +0.014 A 
ATOM      4  C   UNL     1      -0.141  -0.851  -1.419  0.00  0.00    +0.011 A 
ATOM      5  C   UNL     1      -0.625  -0.324  -0.259  0.00  0.00    +0.001 A 
ATOM      6  C   UNL     1      -0.187  -0.780   0.978  0.00  0.00    +0.002 A 
ATOM      7  C   UNL     1       0.742  -1.772   1.090  0.00  0.00    +0.024 A 
ATOM      8  C   UNL     1       1.282  -2.360  -0.066  0.00  0.00    +0.042 A 
ATOM      9  N   UNL     1       2.195  -3.335   0.047  0.00  0.00    -0.284 N 
ATOM     10  C   UNL     1       2.748  -3.937  -0.985  0.00  0.00    +0.237 C 
ATOM     11  O   UNL     1       3.571  -4.816  -0.805  0.00  0.00    -0.274 OA
ATOM     12  H   UNL     1       2.462  -3.613   0.937  0.00  0.00    +0.155 HD
ENDROOT
BRANCH   1  13
ATOM     13  C   UNL     1       1.840  -4.766  -3.092  0.00  0.00    +0.325 C 
ATOM     14  O   UNL     1       0.680  -5.081  -2.971  0.00  0.00    -0.250 OA
BRANCH  13  16
ATOM     15  C   UNL     1       2.097  -6.657  -4.486  0.00  0.00    +0.280 C 
ATOM     16  O   UNL     1       2.662  -5.508  -3.851  0.00  0.00    -0.467 OA
ENDBRANCH  13  16
ENDBRANCH   1  13
BRANCH   2  17
ATOM     17  N   UNL     1       0.932  -2.019  -3.754  0.00  0.00    -0.345 N 
ATOM     18  H   UNL     1       0.211  -1.374  -3.828  0.00  0.00    +0.146 HD
BRANCH  17  19
ATOM     19  C   UNL     1       1.581  -2.535  -4.961  0.00  0.00    +0.105 C 
BRANCH  19  20
ATOM     20  C   UNL     1       1.008  -1.826  -6.191  0.00  0.00    +0.052 C 
BRANCH  20  21
ATOM     21  C   UNL     1       1.676  -2.357  -7.433  0.00  0.00    -0.040 C 
ATOM     22  C   UNL     1       1.223  -3.341  -8.243  0.00  0.00    -0.001 A 
ATOM     23  C   UNL     1       0.019  -4.180  -8.210  0.00  0.00    +0.010 A 
ATOM     24  C   UNL     1      -0.164  -5.103  -9.182  0.00  0.00    +0.001 A 
ATOM     25  C   UNL     1       0.765  -5.277 -10.217  0.00  0.00    +0.002 A 
ATOM     26  C   UNL     1       1.894  -4.544 -10.314  0.00  0.00    +0.026 A 
ATOM     27  C   UNL     1       2.188  -3.545  -9.347  0.00  0.00    +0.043 A 
ATOM     28  N   UNL     1       3.199  -2.719  -9.224  0.00  0.00    -0.380 N 
ATOM     29  C   UNL     1       2.986  -1.893  -8.030  0.00  0.00    +0.144 C 
ATOM     30  H   UNL     1       3.958  -2.661  -9.824  0.00  0.00    +0.160 HD
ENDBRANCH  20  21
ENDBRANCH  19  20
ENDBRANCH  17  19
ENDBRANCH   2  17
TORSDOF 6
