REMARK  Name = ZINC09435104
REMARK  7 active torsions:
REMARK  status: ('A' for Active; 'I' for Inactive)
REMARK    1  A    between atoms: C_1  and  C_2
REMARK    2  A    between atoms: C_2  and  C_3
REMARK    3  A    between atoms: C_3  and  O_5
REMARK    4  A    between atoms: O_5  and  C_6
REMARK    5  A    between atoms: C_9  and  C_12
REMARK    6  A    between atoms: C_17  and  C_21
REMARK    7  A    between atoms: C_17  and  C_22
REMARK                            x       y       z     vdW  Elec       q    Type
REMARK                         _______ _______ _______ _____ _____    ______ ____
ROOT
ATOM      1  C   UNL     1       6.024   0.606  -0.018  0.00  0.00    +0.089 C 
ATOM      2  C   UNL     1       6.361  -0.835  -0.331  0.00  0.00    +0.024 C 
ATOM      3  C   UNL     1       5.435  -1.815  -0.294  0.00  0.00    +0.016 C 
ATOM      4  C   UNL     1       5.806  -3.243  -0.621  0.00  0.00    +0.058 C 
ATOM      5  C   UNL     1       7.256  -3.505  -0.214  0.00  0.00    -0.023 C 
ATOM      6  C   UNL     1       8.154  -2.519  -0.969  0.00  0.00    +0.086 C 
ATOM      7  C   UNL     1       7.700  -1.118  -0.665  0.00  0.00    +0.162 C 
ATOM      8  O   UNL     1       8.506  -0.210  -0.710  0.00  0.00    -0.292 OA
ATOM      9  C   UNL     1       7.414  -3.296   1.294  0.00  0.00    +0.011 C 
ATOM     10  C   UNL     1       7.644  -4.939  -0.580  0.00  0.00    +0.011 C 
ATOM     11  N   UNL     1       4.122  -1.570   0.031  0.00  0.00    -0.317 N 
ATOM     12  C   UNL     1       3.663  -0.274   0.005  0.00  0.00    +0.047 C 
ATOM     13  C   UNL     1       4.530   0.788  -0.023  0.00  0.00    +0.033 C 
ATOM     14  C   UNL     1       3.799   1.997  -0.054  0.00  0.00    +0.193 C 
ATOM     15  O   UNL     1       4.266   3.119  -0.085  0.00  0.00    -0.287 OA
ATOM     16  C   UNL     1       2.362   1.647  -0.042  0.00  0.00    +0.031 A 
ATOM     17  C   UNL     1       2.287   0.232  -0.003  0.00  0.00    +0.007 A 
ATOM     18  C   UNL     1       1.062  -0.416   0.018  0.00  0.00    +0.010 A 
ATOM     19  C   UNL     1      -0.081   0.388  -0.001  0.00  0.00    +0.001 A 
ATOM     20  C   UNL     1      -0.005   1.760  -0.038  0.00  0.00    +0.001 A 
ATOM     21  C   UNL     1       1.223   2.430  -0.060  0.00  0.00    +0.012 A 
ATOM     22  H   UNL     1       3.459  -2.404   0.306  0.00  0.00    +0.152 HD
ENDROOT
BRANCH   1  26
ATOM     23  C   UNL     1       7.566   1.624   3.835  0.00  0.00    +0.132 A 
ATOM     24  C   UNL     1       7.992   2.317   2.711  0.00  0.00    +0.046 A 
ATOM     25  C   UNL     1       7.492   1.985   1.467  0.00  0.00    +0.008 A 
ATOM     26  C   UNL     1       6.568   0.965   1.341  0.00  0.00    -0.035 A 
ATOM     27  C   UNL     1       6.138   0.277   2.461  0.00  0.00    +0.008 A 
ATOM     28  C   UNL     1       6.639   0.600   3.706  0.00  0.00    +0.046 A 
BRANCH  23  29
ATOM     29  O   UNL     1       8.056   1.948   5.061  0.00  0.00    -0.426 OA
BRANCH  29  30
ATOM     30  C   UNL     1       8.865   1.053   5.651  0.00  0.00    +0.312 C 
ATOM     31  O   UNL     1       9.210   0.063   5.050  0.00  0.00    -0.250 OA
BRANCH  30  33
ATOM     32  C   UNL     1      10.242   0.123   7.491  0.00  0.00    +0.015 C 
ATOM     33  C   UNL     1       9.342   1.283   7.062  0.00  0.00    +0.118 C 
ENDBRANCH  30  33
ENDBRANCH  29  30
ENDBRANCH  23  29
ENDBRANCH   1  26
TORSDOF 4
