REMARK  Name = ZINC35805254
REMARK  7 active torsions:
REMARK  status: ('A' for Active; 'I' for Inactive)
REMARK    1  A    between atoms: C_1  and  C_2
REMARK    2  A    between atoms: C_2  and  N_3
REMARK    3  A    between atoms: C_7  and  C_9
REMARK    4  A    between atoms: C_9  and  N_10
REMARK    5  A    between atoms: N_10  and  C_11
REMARK    6  A    between atoms: C_11  and  C_12
REMARK    7  A    between atoms: C_15  and  C_17
REMARK                            x       y       z     vdW  Elec       q    Type
REMARK                         _______ _______ _______ _____ _____    ______ ____
ROOT
ATOM      1  C   UNL     1      -2.338  -2.155   3.746  0.00  0.00    -0.007 C 
ENDROOT
BRANCH   1   2
ATOM      2  C   UNL     1      -1.775  -1.459   4.958  0.00  0.00    +0.089 A 
ATOM      3  C   UNL     1      -2.186  -0.272   5.444  0.00  0.00    +0.043 A 
ATOM      4  C   UNL     1      -1.398   0.006   6.579  0.00  0.00    +0.050 A 
ATOM      5  C   UNL     1      -0.540  -1.039   6.725  0.00  0.00    +0.136 A 
ATOM      6  O   UNL     1      -0.784  -1.923   5.738  0.00  0.00    -0.462 OA
BRANCH   5   7
ATOM      7  C   UNL     1       0.478  -1.184   7.786  0.00  0.00    +0.031 A 
ATOM      8  C   UNL     1       1.359  -0.136   8.059  0.00  0.00    +0.014 A 
ATOM      9  C   UNL     1       2.307  -0.276   9.051  0.00  0.00    +0.016 A 
ATOM     10  C   UNL     1       2.387  -1.454   9.775  0.00  0.00    +0.019 A 
ATOM     11  C   UNL     1       1.517  -2.497   9.509  0.00  0.00    +0.031 A 
ATOM     12  C   UNL     1       0.560  -2.367   8.523  0.00  0.00    +0.030 A 
ATOM     13 BR   UNL     1      -0.633  -3.790   8.167  0.00  0.00    -0.050 Br
ATOM     14 BR   UNL     1       3.690  -1.637  11.133  0.00  0.00    -0.050 Br
ENDBRANCH   5   7
ENDBRANCH   1   2
BRANCH   1  15
ATOM     15  N   UNL     1      -1.591  -1.738   2.551  0.00  0.00    +0.383 N 
ATOM     16  H   UNL     1      -0.619  -1.985   2.660  0.00  0.00    -0.085 HD
ATOM     17  H   UNL     1      -1.673  -0.739   2.434  0.00  0.00    -0.085 HD
BRANCH  15  18
ATOM     18  C   UNL     1      -2.139  -2.417   1.369  0.00  0.00    -0.098 C 
BRANCH  18  23
ATOM     19  N   UNL     1      -1.376  -0.512   0.012  0.00  0.00    +0.380 N 
ATOM     20  C   UNL     1      -2.052  -0.144  -1.250  0.00  0.00    -0.079 C 
ATOM     21  C   UNL     1      -1.892  -1.386  -2.162  0.00  0.00    -0.020 C 
ATOM     22  C   UNL     1      -2.041  -2.545  -1.141  0.00  0.00    -0.019 C 
ATOM     23  C   UNL     1      -1.362  -1.983   0.125  0.00  0.00    -0.086 C 
ATOM     24  H   UNL     1      -1.879  -0.117   0.793  0.00  0.00    -0.082 HD
BRANCH  19  26
ATOM     25  C   UNL     1      -0.019   1.526   0.010  0.00  0.00    -0.017 C 
ATOM     26  C   UNL     1       0.002  -0.004   0.002  0.00  0.00    -0.082 C 
ENDBRANCH  19  26
ENDBRANCH  18  23
ENDBRANCH  15  18
ENDBRANCH   1  15
TORSDOF 6
