REMARK  Name = ZINC04525309
REMARK  5 active torsions:
REMARK  status: ('A' for Active; 'I' for Inactive)
REMARK    1  A    between atoms: C_1  and  O_2
REMARK    2  A    between atoms: O_2  and  C_3
REMARK    3  A    between atoms: C_5  and  C_10
REMARK    4  A    between atoms: C_8  and  O_9
REMARK    5  A    between atoms: N_14  and  C_18
REMARK                            x       y       z     vdW  Elec       q    Type
REMARK                         _______ _______ _______ _____ _____    ______ ____
ROOT
ATOM      1  C   UNL     1       2.443   1.136  -0.490  0.00  0.00    +0.028 C 
ATOM      2  C   UNL     1       3.618   1.805  -0.371  0.00  0.00    +0.078 C 
ATOM      3  C   UNL     1       4.998   1.306  -0.523  0.00  0.00    +0.263 C 
ATOM      4  O   UNL     1       5.227   0.141  -0.794  0.00  0.00    -0.269 OA
ATOM      5  N   UNL     1       5.975   2.180  -0.351  0.00  0.00    -0.215 N 
ATOM      6  C   UNL     1       5.692   3.497  -0.043  0.00  0.00    +0.165 C 
ATOM      7  N   UNL     1       6.526   4.480   0.158  0.00  0.00    -0.279 NA
ATOM      8  S   UNL     1       3.908   3.527   0.005  0.00  0.00    -0.049 S 
ATOM      9  H   UNL     1       6.190   5.365   0.369  0.00  0.00    +0.189 HD
ENDROOT
BRANCH   5  10
ATOM     10  C   UNL     1       7.308   1.767  -0.482  0.00  0.00    +0.044 A 
ATOM     11  C   UNL     1       7.864   0.904   0.453  0.00  0.00    +0.025 A 
ATOM     12  C   UNL     1       9.176   0.495   0.319  0.00  0.00    +0.017 A 
ATOM     13  C   UNL     1       9.940   0.953  -0.740  0.00  0.00    +0.018 A 
ATOM     14  C   UNL     1       9.390   1.817  -1.670  0.00  0.00    +0.017 A 
ATOM     15  C   UNL     1       8.077   2.225  -1.544  0.00  0.00    +0.025 A 
ATOM     16 BR   UNL     1      11.739   0.398  -0.915  0.00  0.00    -0.050 Br
ENDBRANCH   5  10
BRANCH   1  19
ATOM     17  C   UNL     1      -1.218   1.890  -0.185  0.00  0.00    +0.162 A 
ATOM     18  C   UNL     1      -0.026   1.193  -0.208  0.00  0.00    +0.057 A 
ATOM     19  C   UNL     1       1.173   1.872  -0.458  0.00  0.00    -0.020 A 
ATOM     20  C   UNL     1       1.157   3.255  -0.678  0.00  0.00    +0.012 A 
ATOM     21  C   UNL     1      -0.037   3.942  -0.648  0.00  0.00    +0.050 A 
ATOM     22  C   UNL     1      -1.225   3.268  -0.400  0.00  0.00    +0.158 A 
BRANCH  17  24
ATOM     23  C   UNL     1      -2.303  -0.177   0.269  0.00  0.00    +0.277 C 
ATOM     24  O   UNL     1      -2.385   1.233   0.052  0.00  0.00    -0.491 OA
ENDBRANCH  17  24
BRANCH  22  25
ATOM     25  O   UNL     1      -2.399   3.951  -0.372  0.00  0.00    -0.503 OA
ATOM     26  H   UNL     1      -2.840   4.010  -1.231  0.00  0.00    +0.292 HD
ENDBRANCH  22  25
ENDBRANCH   1  19
TORSDOF 4
