REMARK  Name = ZINC20693355
REMARK  10 active torsions:
REMARK  status: ('A' for Active; 'I' for Inactive)
REMARK    1  A    between atoms: C_1  and  C_2
REMARK    2  A    between atoms: C_2  and  C_3
REMARK    3  A    between atoms: C_2  and  C_4
REMARK    4  A    between atoms: C_4  and  C_5
REMARK    5  A    between atoms: C_5  and  O_6
REMARK    6  A    between atoms: O_6  and  C_7
REMARK    7  A    between atoms: C_20  and  C_23
REMARK    8  A    between atoms: C_26  and  O_31
REMARK    9  A    between atoms: C_27  and  O_29
REMARK   10  A    between atoms: O_29  and  C_30
REMARK                            x       y       z     vdW  Elec       q    Type
REMARK                         _______ _______ _______ _____ _____    ______ ____
ROOT
ATOM      1  C   UNL     1      -0.695   4.345  -0.142  0.00  0.00    +0.121 A 
ATOM      2  C   UNL     1      -1.043   3.002  -0.175  0.00  0.00    +0.047 A 
ATOM      3  C   UNL     1      -0.053   2.040  -0.146  0.00  0.00    +0.027 A 
ATOM      4  C   UNL     1       1.283   2.416  -0.096  0.00  0.00    +0.032 A 
ATOM      5  C   UNL     1       1.638   3.756  -0.069  0.00  0.00    -0.016 A 
ATOM      6  C   UNL     1       0.637   4.718  -0.092  0.00  0.00    +0.051 A 
ATOM      7  C   UNL     1       3.052   4.199  -0.034  0.00  0.00    +0.049 C 
ATOM      8  C   UNL     1       3.436   4.700   1.361  0.00  0.00    -0.023 C 
ATOM      9  C   UNL     1       4.673   4.371   1.643  0.00  0.00    -0.030 C 
ATOM     10  C   UNL     1       5.297   3.614   0.486  0.00  0.00    +0.033 C 
ATOM     11  C   UNL     1       4.065   3.067  -0.293  0.00  0.00    +0.029 C 
ATOM     12  C   UNL     1       3.610   1.787   0.413  0.00  0.00    +0.105 C 
ATOM     13  N   UNL     1       2.274   1.425  -0.072  0.00  0.00    -0.336 N 
ATOM     14  H   UNL     1       2.071   0.397  -0.406  0.00  0.00    +0.147 HD
ENDROOT
BRANCH  12  15
ATOM     15  C   UNL     1       3.559   2.023   1.901  0.00  0.00    -0.023 A 
ATOM     16  C   UNL     1       4.673   1.765   2.678  0.00  0.00    +0.009 A 
ATOM     17  C   UNL     1       4.633   1.984   4.043  0.00  0.00    +0.049 A 
ATOM     18  C   UNL     1       3.472   2.454   4.636  0.00  0.00    +0.158 A 
ATOM     19  C   UNL     1       2.349   2.708   3.854  0.00  0.00    +0.162 A 
ATOM     20  C   UNL     1       2.398   2.491   2.486  0.00  0.00    +0.054 A 
BRANCH  19  21
ATOM     21  O   UNL     1       1.207   3.168   4.431  0.00  0.00    -0.491 OA
ATOM     22  C   UNL     1       0.094   3.407   3.567  0.00  0.00    +0.277 C 
ENDBRANCH  19  21
BRANCH  18  23
ATOM     23  O   UNL     1       3.430   2.665   5.978  0.00  0.00    -0.503 OA
ATOM     24  H   UNL     1       2.507   3.038   6.447  0.00  0.00    +0.292 HD
ENDBRANCH  18  23
ENDBRANCH  12  15
BRANCH   1  25
ATOM     25  O   UNL     1      -1.666   5.297  -0.165  0.00  0.00    -0.492 OA
BRANCH  25  26
ATOM     26  C   UNL     1      -3.019   4.843  -0.217  0.00  0.00    +0.229 C 
BRANCH  26  27
ATOM     27  C   UNL     1      -3.962   6.048  -0.236  0.00  0.00    +0.044 C 
BRANCH  27  29
ATOM     28  C   UNL     1      -5.746   4.807   0.997  0.00  0.00    +0.007 C 
ATOM     29  C   UNL     1      -5.411   5.561  -0.292  0.00  0.00    -0.014 C 
ATOM     30  C   UNL     1      -6.347   6.763  -0.436  0.00  0.00    +0.007 C 
ENDBRANCH  27  29
ENDBRANCH  26  27
ENDBRANCH  25  26
ENDBRANCH   1  25
TORSDOF 7
