REMARK  Name = ZINC26502441
REMARK  4 active torsions:
REMARK  status: ('A' for Active; 'I' for Inactive)
REMARK    1  A    between atoms: C_1  and  C_2
REMARK    2  A    between atoms: C_5  and  O_30
REMARK    3  A    between atoms: C_17  and  C_29
REMARK    4  A    between atoms: C_22  and  C_23
REMARK                            x       y       z     vdW  Elec       q    Type
REMARK                         _______ _______ _______ _____ _____    ______ ____
ROOT
ATOM      1  C   UNL     1      -0.772   2.050  -1.202  0.00  0.00    +0.016 C 
ATOM      2  C   UNL     1      -0.018   1.508   0.010  0.00  0.00    -0.008 C 
ATOM      3  C   UNL     1      -0.748   1.998   1.272  0.00  0.00    +0.014 C 
ATOM      4  C   UNL     1      -0.715   3.518   1.368  0.00  0.00    +0.032 C 
ATOM      5  C   UNL     1       0.721   4.037   1.410  0.00  0.00    +0.119 C 
ATOM      6  C   UNL     1       1.459   3.627   0.133  0.00  0.00    +0.062 C 
ATOM      7  C   UNL     1       1.357   2.116   0.001  0.00  0.00    -0.065 C 
ATOM      8  C   UNL     1       2.456   1.432  -0.088  0.00  0.00    -0.027 C 
ATOM      9  C   UNL     1       2.501  -0.063  -0.158  0.00  0.00    +0.031 C 
ATOM     10  C   UNL     1       1.192  -0.619  -0.709  0.00  0.00    +0.001 C 
ATOM     11  C   UNL     1       0.002  -0.004   0.002  0.00  0.00    +0.003 C 
ATOM     12  C   UNL     1      -1.293  -0.638  -0.478  0.00  0.00    +0.005 C 
ATOM     13  C   UNL     1      -1.420  -0.781  -1.978  0.00  0.00    +0.012 C 
ATOM     14  C   UNL     1      -0.177  -1.109  -2.750  0.00  0.00    -0.002 C 
ATOM     15  C   UNL     1       1.105  -0.432  -2.221  0.00  0.00    +0.007 C 
ATOM     16  C   UNL     1       2.170  -1.382  -2.851  0.00  0.00    +0.032 C 
ATOM     17  C   UNL     1       1.480  -2.731  -2.864  0.00  0.00    -0.020 C 
ATOM     18  C   UNL     1       0.159  -2.576  -2.806  0.00  0.00    -0.022 C 
ATOM     19  C   UNL     1      -0.388  -0.629  -4.196  0.00  0.00    +0.016 C 
ENDROOT
BRANCH  18  20
ATOM     20  C   UNL     1      -0.809  -3.692  -2.812  0.00  0.00    +0.043 A 
ATOM     21  C   UNL     1      -0.349  -5.008  -2.867  0.00  0.00    +0.026 A 
ATOM     22  C   UNL     1      -1.268  -6.041  -2.872  0.00  0.00    +0.003 A 
ATOM     23  C   UNL     1      -2.620  -5.727  -2.820  0.00  0.00    +0.017 A 
ATOM     24  C   UNL     1      -3.007  -4.401  -2.766  0.00  0.00    +0.083 A 
ATOM     25  N   UNL     1      -2.111  -3.434  -2.759  0.00  0.00    -0.361 N 
ATOM     26  H   UNL     1      -2.465  -2.394  -2.706  0.00  0.00    +0.165 HD
ENDBRANCH  18  20
BRANCH   5  27
ATOM     27  O   UNL     1       1.395   3.495   2.547  0.00  0.00    -0.391 OA
ATOM     28  H   UNL     1       2.445   3.760   2.741  0.00  0.00    +0.210 HD
ENDBRANCH   5  27
TORSDOF 2
