REMARK  Name = ZINC39354570
REMARK  3 active torsions:
REMARK  status: ('A' for Active; 'I' for Inactive)
REMARK    1  A    between atoms: C_4  and  C_7
REMARK    2  A    between atoms: C_17  and  N_19
REMARK    3  A    between atoms: C_23  and  C_26
REMARK                            x       y       z     vdW  Elec       q    Type
REMARK                         _______ _______ _______ _____ _____    ______ ____
ROOT
ATOM      1  N   UNL     1       2.938  -2.444  -1.233  0.00  0.00    -0.287 NA
ATOM      2  C   UNL     1       1.641  -1.757  -1.205  0.00  0.00    +0.085 C 
ATOM      3  C   UNL     1       0.861  -2.083  -2.481  0.00  0.00    +0.016 C 
ATOM      4  C   UNL     1       0.656  -3.598  -2.575  0.00  0.00    +0.015 C 
ATOM      5  C   UNL     1       2.021  -4.292  -2.554  0.00  0.00    +0.089 C 
ATOM      6  C   UNL     1       2.767  -3.902  -1.276  0.00  0.00    +0.098 C 
ENDROOT
BRANCH   5   7
ATOM      7  C   UNL     1       1.826  -5.786  -2.588  0.00  0.00    +0.220 C 
ATOM      8  O   UNL     1       0.787  -6.271  -2.194  0.00  0.00    -0.275 OA
ATOM      9  N   UNL     1       2.807  -6.583  -3.055  0.00  0.00    -0.298 N 
ATOM     10  C   UNL     1       4.029  -6.005  -3.634  0.00  0.00    +0.126 C 
ATOM     11  C   UNL     1       5.241  -6.577  -2.889  0.00  0.00    +0.125 C 
ATOM     12  N   UNL     1       5.109  -8.039  -2.829  0.00  0.00    -0.314 N 
ATOM     13  C   UNL     1       3.888  -8.617  -2.251  0.00  0.00    +0.125 C 
ATOM     14  C   UNL     1       2.678  -8.045  -2.990  0.00  0.00    +0.126 C 
ATOM     15  C   UNL     1       6.121  -8.861  -3.311  0.00  0.00    +0.099 A 
ATOM     16  C   UNL     1       7.326  -8.301  -3.724  0.00  0.00    +0.042 A 
ATOM     17  C   UNL     1       8.324  -9.131  -4.202  0.00  0.00    +0.005 A 
ATOM     18  C   UNL     1       8.083 -10.498  -4.250  0.00  0.00    +0.018 A 
ATOM     19  C   UNL     1       6.864 -10.985  -3.824  0.00  0.00    +0.084 A 
ATOM     20  N   UNL     1       5.932 -10.170  -3.368  0.00  0.00    -0.350 N 
ATOM     21  H   UNL     1       5.085 -10.539  -3.071  0.00  0.00    +0.166 HD
ENDBRANCH   5   7
BRANCH   1  32
ATOM     22  C   UNL     1       5.199  -2.456  -0.389  0.00  0.00    -0.005 C 
ATOM     23  C   UNL     1       5.816  -3.315   0.525  0.00  0.00    +0.003 A 
ATOM     24  C   UNL     1       7.146  -3.742   0.328  0.00  0.00    +0.030 A 
ATOM     25  C   UNL     1       7.723  -4.579   1.233  0.00  0.00    +0.042 A 
ATOM     26  C   UNL     1       7.026  -5.023   2.356  0.00  0.00    +0.022 A 
ATOM     27  C   UNL     1       5.741  -4.646   2.599  0.00  0.00    +0.025 A 
ATOM     28  C   UNL     1       5.082  -3.782   1.706  0.00  0.00    +0.041 A 
ATOM     29  N   UNL     1       3.820  -3.412   1.947  0.00  0.00    -0.283 N 
ATOM     30  C   UNL     1       3.133  -2.608   1.160  0.00  0.00    +0.239 C 
ATOM     31  O   UNL     1       1.986  -2.313   1.442  0.00  0.00    -0.273 OA
ATOM     32  C   UNL     1       3.770  -2.045  -0.090  0.00  0.00    +0.175 C 
ATOM     33 CL   UNL     1       9.360  -5.102   0.986  0.00  0.00    -0.084 Cl
ATOM     34  H   UNL     1       3.386  -3.753   2.745  0.00  0.00    +0.155 HD
BRANCH  22  38
ATOM     35  C   UNL     1       7.211  -1.066  -3.791  0.00  0.00    +0.000 A 
ATOM     36  C   UNL     1       7.077  -2.429  -3.579  0.00  0.00    +0.001 A 
ATOM     37  C   UNL     1       6.418  -2.896  -2.465  0.00  0.00    +0.008 A 
ATOM     38  C   UNL     1       5.880  -1.986  -1.540  0.00  0.00    -0.019 A 
ATOM     39  C   UNL     1       6.022  -0.606  -1.763  0.00  0.00    +0.008 A 
ATOM     40  C   UNL     1       6.685  -0.160  -2.885  0.00  0.00    +0.001 A 
ENDBRANCH  22  38
ENDBRANCH   1  32
TORSDOF 3
