REMARK  Name = ZINC20157537
REMARK  4 active torsions:
REMARK  status: ('A' for Active; 'I' for Inactive)
REMARK    1  A    between atoms: C_1  and  C_2
REMARK    2  A    between atoms: C_2  and  C_23
REMARK    3  A    between atoms: N_3  and  N_4
REMARK    4  A    between atoms: C_5  and  C_16
REMARK                            x       y       z     vdW  Elec       q    Type
REMARK                         _______ _______ _______ _____ _____    ______ ____
ROOT
ATOM      1  N   UNL     1       1.257   2.066   0.110  0.00  0.00    -0.163 N 
ATOM      2  C   UNL     1       1.483   3.484   0.390  0.00  0.00    +0.215 C 
ATOM      3  N   UNL     1       0.374   4.290  -0.135  0.00  0.00    -0.320 N 
ATOM      4  C   UNL     1      -0.927   3.847   0.076  0.00  0.00    +0.041 A 
ATOM      5  C   UNL     1      -1.991   4.724   0.189  0.00  0.00    +0.024 A 
ATOM      6  C   UNL     1      -3.264   4.232   0.404  0.00  0.00    +0.002 A 
ATOM      7  C   UNL     1      -3.483   2.867   0.508  0.00  0.00    +0.001 A 
ATOM      8  C   UNL     1      -2.434   1.978   0.395  0.00  0.00    +0.015 A 
ATOM      9  C   UNL     1      -1.146   2.462   0.171  0.00  0.00    +0.059 A 
ATOM     10  C   UNL     1       0.010   1.556   0.044  0.00  0.00    +0.270 C 
ATOM     11  O   UNL     1      -0.159   0.363  -0.122  0.00  0.00    -0.268 OA
ATOM     12  H   UNL     1       0.582   5.221  -0.681  0.00  0.00    +0.148 HD
ENDROOT
BRANCH   2  13
ATOM     13  C   UNL     1       1.582   3.688   1.880  0.00  0.00    -0.008 A 
ATOM     14  C   UNL     1       2.068   2.675   2.686  0.00  0.00    +0.008 A 
ATOM     15  C   UNL     1       2.163   2.863   4.051  0.00  0.00    +0.015 A 
ATOM     16  C   UNL     1       1.763   4.062   4.614  0.00  0.00    +0.018 A 
ATOM     17  C   UNL     1       1.272   5.074   3.808  0.00  0.00    +0.015 A 
ATOM     18  C   UNL     1       1.182   4.886   2.441  0.00  0.00    +0.008 A 
ATOM     19 BR   UNL     1       1.886   4.318   6.483  0.00  0.00    -0.050 Br
ENDBRANCH   2  13
BRANCH   1  22
ATOM     20  C   UNL     1       2.734   2.386  -2.196  0.00  0.00    +0.068 C 
ATOM     21  C   UNL     1       3.112   1.381  -1.138  0.00  0.00    +0.064 C 
ATOM     22  N   UNL     1       2.356   1.222  -0.095  0.00  0.00    -0.179 NA
BRANCH  21  23
ATOM     23  C   UNL     1       4.340   0.579  -1.288  0.00  0.00    -0.003 A 
ATOM     24  C   UNL     1       4.697  -0.349  -0.307  0.00  0.00    +0.010 A 
ATOM     25  C   UNL     1       5.845  -1.099  -0.456  0.00  0.00    +0.001 A 
ATOM     26  C   UNL     1       6.648  -0.926  -1.570  0.00  0.00    +0.000 A 
ATOM     27  C   UNL     1       6.303  -0.006  -2.543  0.00  0.00    +0.001 A 
ATOM     28  C   UNL     1       5.156   0.748  -2.410  0.00  0.00    +0.010 A 
ENDBRANCH  21  23
ENDBRANCH   1  22
TORSDOF 3
