REMARK  Name = ZINC18152749
REMARK  7 active torsions:
REMARK  status: ('A' for Active; 'I' for Inactive)
REMARK    1  A    between atoms: C_1  and  C_2
REMARK    2  A    between atoms: C_2  and  C_36
REMARK    3  A    between atoms: N_5  and  C_9
REMARK    4  A    between atoms: C_9  and  C_10
REMARK    5  A    between atoms: N_25  and  C_28
REMARK    6  A    between atoms: C_31  and  O_34
REMARK    7  A    between atoms: O_34  and  C_35
REMARK                            x       y       z     vdW  Elec       q    Type
REMARK                         _______ _______ _______ _____ _____    ______ ____
ROOT
ATOM      1  C   UNL     1      -0.019   1.526   0.010  0.00  0.00    +0.017 C 
ATOM      2  C   UNL     1       0.002  -0.004   0.002  0.00  0.00    +0.012 C 
ATOM      3  C   UNL     1      -1.396  -0.488  -0.136  0.00  0.00    +0.031 A 
ATOM      4  C   UNL     1      -2.029  -1.444   0.568  0.00  0.00    +0.091 A 
ATOM      5  N   UNL     1      -3.327  -1.688   0.176  0.00  0.00    -0.288 N 
ATOM      6  C   UNL     1      -3.875  -0.972  -0.822  0.00  0.00    +0.292 A 
ATOM      7  O   UNL     1      -5.000  -1.055  -1.282  0.00  0.00    -0.259 OA
ATOM      8  S   UNL     1      -2.634   0.065  -1.282  0.00  0.00    -0.030 S 
ATOM      9  S   UNL     1      -1.228  -2.285   1.908  0.00  0.00    -0.093 S 
ATOM     10  C   UNL     1       0.539  -1.922   1.655  0.00  0.00    +0.152 C 
ATOM     11  C   UNL     1       0.723  -0.465   1.211  0.00  0.00    +0.109 C 
ATOM     12  C   UNL     1       0.584   0.308   2.485  0.00  0.00    +0.232 C 
ATOM     13  O   UNL     1       0.208   1.454   2.607  0.00  0.00    -0.274 OA
ATOM     14  N   UNL     1       0.964  -0.536   3.474  0.00  0.00    -0.209 N 
ATOM     15  C   UNL     1       1.138  -1.809   3.068  0.00  0.00    +0.240 C 
ATOM     16  O   UNL     1       1.667  -2.699   3.698  0.00  0.00    -0.274 OA
ATOM     17  C   UNL     1       0.787  -0.463  -1.228  0.00  0.00    +0.017 C 
ENDROOT
BRANCH  14  18
ATOM     18  C   UNL     1       1.159  -0.122   4.801  0.00  0.00    +0.044 A 
ATOM     19  C   UNL     1       0.957   1.206   5.151  0.00  0.00    +0.027 A 
ATOM     20  C   UNL     1       1.148   1.613   6.457  0.00  0.00    +0.047 A 
ATOM     21  C   UNL     1       1.543   0.695   7.418  0.00  0.00    +0.120 A 
ATOM     22  C   UNL     1       1.746  -0.632   7.069  0.00  0.00    +0.047 A 
ATOM     23  C   UNL     1       1.549  -1.041   5.765  0.00  0.00    +0.027 A 
BRANCH  21  24
ATOM     24  O   UNL     1       1.732   1.096   8.704  0.00  0.00    -0.495 OA
ATOM     25  C   UNL     1       2.139   0.098   9.642  0.00  0.00    +0.277 C 
ENDBRANCH  21  24
ENDBRANCH  14  18
BRANCH   5  26
ATOM     26  C   UNL     1      -4.111  -2.727   0.848  0.00  0.00    +0.222 C 
BRANCH  26  27
ATOM     27  C   UNL     1      -4.843  -2.126   2.020  0.00  0.00    +0.235 C 
ATOM     28  O   UNL     1      -4.723  -0.945   2.269  0.00  0.00    -0.274 OA
ATOM     29  N   UNL     1      -5.632  -2.901   2.790  0.00  0.00    -0.300 N 
ATOM     30  C   UNL     1      -5.784  -4.334   2.504  0.00  0.00    +0.108 C 
ATOM     31  C   UNL     1      -5.459  -5.127   3.774  0.00  0.00    +0.019 C 
ATOM     32  C   UNL     1      -6.332  -4.620   4.924  0.00  0.00    +0.003 C 
ATOM     33  C   UNL     1      -6.027  -3.143   5.186  0.00  0.00    +0.019 C 
ATOM     34  C   UNL     1      -6.353  -2.329   3.936  0.00  0.00    +0.108 C 
ENDBRANCH  26  27
ENDBRANCH   5  26
TORSDOF 4
