REMARK  Name = ZINC59040491
REMARK  7 active torsions:
REMARK  status: ('A' for Active; 'I' for Inactive)
REMARK    1  A    between atoms: C_6  and  C_7
REMARK    2  A    between atoms: C_7  and  S_8
REMARK    3  A    between atoms: S_8  and  C_9
REMARK    4  A    between atoms: C_15  and  C_17
REMARK    5  A    between atoms: C_17  and  S_18
REMARK    6  A    between atoms: S_18  and  C_19
REMARK    7  A    between atoms: N_24  and  N_25
REMARK                            x       y       z     vdW  Elec       q    Type
REMARK                         _______ _______ _______ _____ _____    ______ ____
ROOT
ATOM      1  C   UNL     1      -3.335  -1.973  -1.518  0.00  0.00    +0.160 A 
ATOM      2  N   UNL     1      -3.972  -2.358  -0.422  0.00  0.00    -0.133 NA
ATOM      3  N   UNL     1      -5.055  -3.003  -0.473  0.00  0.00    -0.125 NA
ATOM      4  C   UNL     1      -5.621  -3.335  -1.621  0.00  0.00    +0.189 A 
ATOM      5  S   UNL     1      -4.444  -2.620  -2.766  0.00  0.00    -0.024 S 
ATOM      6  N   UNL     1      -6.798  -4.037  -1.870  0.00  0.00    -0.263 N 
ATOM      7  C   UNL     1      -7.545  -4.486  -0.842  0.00  0.00    +0.229 C 
ATOM      8  O   UNL     1      -7.191  -4.280   0.300  0.00  0.00    -0.275 OA
ATOM      9  H   UNL     1      -7.081  -4.201  -2.783  0.00  0.00    +0.157 HD
ENDROOT
BRANCH   1  10
ATOM     10  S   UNL     1      -1.829  -1.075  -1.696  0.00  0.00    -0.092 S 
BRANCH  10  11
ATOM     11  C   UNL     1      -1.293  -0.775   0.011  0.00  0.00    +0.111 C 
BRANCH  11  17
ATOM     12  C   UNL     1      -0.017   1.378   0.010  0.00  0.00    +0.006 A 
ATOM     13  C   UNL     1       1.171   2.086   0.002  0.00  0.00    +0.020 A 
ATOM     14  C   UNL     1       2.378   1.410  -0.013  0.00  0.00    +0.041 A 
ATOM     15  C   UNL     1       2.396   0.027  -0.021  0.00  0.00    +0.020 A 
ATOM     16  C   UNL     1       1.208  -0.679  -0.013  0.00  0.00    +0.006 A 
ATOM     17  C   UNL     1       0.002  -0.004   0.002  0.00  0.00    -0.037 A 
ATOM     18 CL   UNL     1       3.870   2.298  -0.023  0.00  0.00    -0.084 Cl
ENDBRANCH  11  17
ENDBRANCH  10  11
ENDBRANCH   1  10
BRANCH   7  19
ATOM     19  C   UNL     1      -8.819  -5.245  -1.111  0.00  0.00    +0.173 C 
BRANCH  19  20
ATOM     20  S   UNL     1      -9.589  -5.711   0.464  0.00  0.00    -0.075 S 
BRANCH  20  21
ATOM     21  C   UNL     1     -11.046  -6.578  -0.014  0.00  0.00    +0.211 A 
ATOM     22  N   UNL     1     -11.943  -7.110   0.823  0.00  0.00    -0.186 NA
ATOM     23  C   UNL     1     -12.907  -7.683   0.133  0.00  0.00    +0.232 A 
ATOM     24  N   UNL     1     -12.633  -7.521  -1.179  0.00  0.00    -0.245 N 
ATOM     25  N   UNL     1     -11.430  -6.801  -1.248  0.00  0.00    -0.144 NA
ATOM     26  N   UNL     1     -14.007  -8.337   0.659  0.00  0.00    -0.205 N 
ATOM     27  H   UNL     1     -14.667  -8.730   0.067  0.00  0.00    +0.177 HD
ATOM     28  H   UNL     1     -13.164  -7.838  -1.927  0.00  0.00    +0.192 HD
BRANCH  26  29
ATOM     29  N   UNL     1     -14.167  -8.431   2.048  0.00  0.00    -0.189 NA
ATOM     30  C   UNL     1     -15.184  -9.036   2.535  0.00  0.00    +0.037 C 
ATOM     31  C   UNL     1     -16.293  -9.704   1.749  0.00  0.00    +0.052 C 
ATOM     32  C   UNL     1     -17.287 -10.280   2.778  0.00  0.00    +0.006 C 
ATOM     33  C   UNL     1     -17.037  -9.429   4.049  0.00  0.00    +0.006 C 
ATOM     34  C   UNL     1     -15.500  -9.223   4.009  0.00  0.00    +0.052 C 
ENDBRANCH  26  29
ENDBRANCH  20  21
ENDBRANCH  19  20
ENDBRANCH   7  19
TORSDOF 7
