REMARK  Name = ZINC14461494
REMARK  8 active torsions:
REMARK  status: ('A' for Active; 'I' for Inactive)
REMARK    1  A    between atoms: C_1  and  C_2
REMARK    2  A    between atoms: C_2  and  N_3
REMARK    3  A    between atoms: N_3  and  C_4
REMARK    4  A    between atoms: N_3  and  C_6
REMARK    5  A    between atoms: C_4  and  C_5
REMARK    6  A    between atoms: C_9  and  C_12
REMARK    7  A    between atoms: C_24  and  N_29
REMARK    8  A    between atoms: C_25  and  C_28
REMARK                            x       y       z     vdW  Elec       q    Type
REMARK                         _______ _______ _______ _____ _____    ______ ____
ROOT
ATOM      1  C   UNL     1      -2.168  -5.696   0.827  0.00  0.00    +0.105 C 
ATOM      2  C   UNL     1      -3.292  -6.595   0.407  0.00  0.00    +0.029 C 
ATOM      3  C   UNL     1      -4.663  -6.088   0.901  0.00  0.00    +0.033 C 
ATOM      4  C   UNL     1      -5.490  -7.350   1.027  0.00  0.00    -0.030 C 
ATOM      5  C   UNL     1      -4.725  -8.410   1.056  0.00  0.00    -0.023 C 
ATOM      6  C   UNL     1      -3.273  -8.007   0.985  0.00  0.00    +0.049 C 
ATOM      7  C   UNL     1      -2.705  -8.069   2.375  0.00  0.00    -0.019 A 
ATOM      8  C   UNL     1      -2.910  -9.223   3.118  0.00  0.00    +0.008 A 
ATOM      9  C   UNL     1      -2.417  -9.323   4.404  0.00  0.00    +0.033 A 
ATOM     10  C   UNL     1      -1.715  -8.271   4.963  0.00  0.00    +0.131 A 
ATOM     11  C   UNL     1      -1.503  -7.122   4.229  0.00  0.00    +0.001 A 
ATOM     12  C   UNL     1      -1.994  -7.021   2.930  0.00  0.00    +0.036 A 
ATOM     13  N   UNL     1      -1.730  -5.881   2.195  0.00  0.00    -0.336 N 
ATOM     14  C   UNL     1      -0.740  -5.973   4.836  0.00  0.00    +0.048 C 
ATOM     15  H   UNL     1      -1.250  -5.160   2.631  0.00  0.00    +0.147 HD
ENDROOT
BRANCH   1  19
ATOM     16  C   UNL     1      -3.428  -1.643   0.347  0.00  0.00    +0.013 A 
ATOM     17  C   UNL     1      -2.667  -2.250  -0.634  0.00  0.00    +0.022 A 
ATOM     18  C   UNL     1      -2.259  -3.562  -0.478  0.00  0.00    +0.007 A 
ATOM     19  C   UNL     1      -2.612  -4.266   0.658  0.00  0.00    -0.027 A 
ATOM     20  C   UNL     1      -3.372  -3.658   1.639  0.00  0.00    +0.007 A 
ATOM     21  C   UNL     1      -3.777  -2.345   1.486  0.00  0.00    +0.022 A 
BRANCH  16  22
ATOM     22  N   UNL     1      -3.841  -0.316   0.190  0.00  0.00    -0.394 NA
ATOM     23  H   UNL     1      -4.379  -0.034   0.995  0.00  0.00    +0.126 HD
BRANCH  22  25
ATOM     24  C   UNL     1      -1.880   0.549   1.375  0.00  0.00    +0.022 C 
ATOM     25  C   UNL     1      -2.662   0.551   0.060  0.00  0.00    +0.081 C 
ENDBRANCH  22  25
BRANCH  22  26
ATOM     26  C   UNL     1      -4.669  -0.201  -1.018  0.00  0.00    +0.081 C 
ATOM     27  C   UNL     1      -5.955  -1.008  -0.833  0.00  0.00    +0.022 C 
ENDBRANCH  22  26
ENDBRANCH  16  22
ENDBRANCH   1  19
BRANCH  10  28
ATOM     28  N   UNL     1      -1.193  -8.377   6.343  0.00  0.00    +0.057 N 
ATOM     29  O   UNL     1      -0.122  -7.891   6.624  0.00  0.00    -0.126 OA
ATOM     30  O   UNL     1      -1.837  -8.950   7.191  0.00  0.00    -0.126 OA
ENDBRANCH  10  28
TORSDOF 5
