REMARK  Name = ZINC41077844
REMARK  8 active torsions:
REMARK  status: ('A' for Active; 'I' for Inactive)
REMARK    1  A    between atoms: C_1  and  O_2
REMARK    2  A    between atoms: O_2  and  C_3
REMARK    3  A    between atoms: C_5  and  C_17
REMARK    4  A    between atoms: C_8  and  O_9
REMARK    5  A    between atoms: O_9  and  C_10
REMARK    6  A    between atoms: C_10  and  C_12
REMARK    7  A    between atoms: C_27  and  S_29
REMARK    8  A    between atoms: S_29  and  C_32
REMARK                            x       y       z     vdW  Elec       q    Type
REMARK                         _______ _______ _______ _____ _____    ______ ____
ROOT
ATOM      1  C   UNL     1      -4.845   0.226   0.037  0.00  0.00    +0.024 C 
ATOM      2  C   UNL     1      -5.947  -0.153  -0.696  0.00  0.00    +0.081 C 
ATOM      3  C   UNL     1      -7.240   0.583  -0.610  0.00  0.00    +0.153 C 
ATOM      4  N   UNL     1      -7.319   1.871  -0.404  0.00  0.00    -0.283 NA
ATOM      5  N   UNL     1      -8.369  -0.247  -0.773  0.00  0.00    -0.150 N 
ATOM      6  C   UNL     1      -8.194  -1.434  -1.451  0.00  0.00    +0.182 C 
ATOM      7  N   UNL     1      -7.071  -1.944  -1.892  0.00  0.00    -0.152 NA
ATOM      8  C   UNL     1      -5.909  -1.314  -1.621  0.00  0.00    +0.273 C 
ATOM      9  O   UNL     1      -4.858  -1.688  -2.117  0.00  0.00    -0.268 OA
ATOM     10  S   UNL     1      -9.850  -2.062  -1.534  0.00  0.00    -0.015 S 
ATOM     11  C   UNL     1     -10.639  -0.769  -0.585  0.00  0.00    +0.235 C 
ATOM     12  N   UNL     1      -9.643   0.027  -0.322  0.00  0.00    -0.145 NA
ATOM     13  H   UNL     1      -8.187   2.301  -0.357  0.00  0.00    +0.188 HD
ENDROOT
BRANCH   1  16
ATOM     14  C   UNL     1      -1.259  -0.860   0.118  0.00  0.00    +0.163 A 
ATOM     15  C   UNL     1      -2.377  -0.050   0.092  0.00  0.00    +0.057 A 
ATOM     16  C   UNL     1      -3.655  -0.627   0.065  0.00  0.00    -0.021 A 
ATOM     17  C   UNL     1      -3.788  -2.023   0.064  0.00  0.00    +0.012 A 
ATOM     18  C   UNL     1      -2.667  -2.821   0.090  0.00  0.00    +0.051 A 
ATOM     19  C   UNL     1      -1.402  -2.248   0.111  0.00  0.00    +0.173 A 
BRANCH  14  21
ATOM     20  C   UNL     1       0.053   1.123   0.150  0.00  0.00    +0.277 C 
ATOM     21  O   UNL     1      -0.018  -0.304   0.145  0.00  0.00    -0.491 OA
ENDBRANCH  14  21
BRANCH  19  22
ATOM     22  O   UNL     1      -0.300  -3.041   0.131  0.00  0.00    -0.416 OA
BRANCH  22  23
ATOM     23  C   UNL     1       0.247  -3.335   1.329  0.00  0.00    +0.380 C 
ATOM     24  O   UNL     1      -0.300  -2.972   2.353  0.00  0.00    -0.241 OA
BRANCH  23  25
ATOM     25  C   UNL     1       1.498  -4.093   1.396  0.00  0.00    +0.212 A 
ATOM     26  C   UNL     1       2.154  -4.462   2.537  0.00  0.00    +0.056 A 
ATOM     27  C   UNL     1       3.298  -5.167   2.135  0.00  0.00    +0.042 A 
ATOM     28  C   UNL     1       3.293  -5.197   0.784  0.00  0.00    +0.196 A 
ATOM     29  O   UNL     1       2.204  -4.554   0.343  0.00  0.00    -0.456 OA
ENDBRANCH  23  25
ENDBRANCH  22  23
ENDBRANCH  19  22
ENDBRANCH   1  16
BRANCH  11  30
ATOM     30  S   UNL     1     -12.332  -0.613  -0.121  0.00  0.00    +0.019 S 
ATOM     31  O   UNL     1     -12.794  -1.950   0.017  0.00  0.00    -0.168 OA
ATOM     32  O   UNL     1     -12.323   0.269   0.993  0.00  0.00    -0.168 OA
ATOM     33  C   UNL     1     -13.133   0.181  -1.541  0.00  0.00    +0.202 C 
ENDBRANCH  11  30
TORSDOF 6
