REMARK  Name = ZINC12380343
REMARK  4 active torsions:
REMARK  status: ('A' for Active; 'I' for Inactive)
REMARK    1  A    between atoms: C_1  and  C_2
REMARK    2  A    between atoms: C_2  and  C_4
REMARK    3  A    between atoms: C_2  and  O_17
REMARK    4  A    between atoms: O_17  and  C_18
REMARK                            x       y       z     vdW  Elec       q    Type
REMARK                         _______ _______ _______ _____ _____    ______ ____
ROOT
ATOM      1  C   UNL     1      -0.027   1.125   2.535  0.00  0.00    +0.261 C 
ATOM      2  O   UNL     1      -0.343   0.016   2.913  0.00  0.00    -0.271 OA
ATOM      3  N   UNL     1       0.885   1.837   3.225  0.00  0.00    -0.258 N 
ATOM      4  C   UNL     1       1.391   3.120   2.714  0.00  0.00    +0.209 C 
ATOM      5  C   UNL     1       2.879   3.189   2.943  0.00  0.00    +0.235 C 
ATOM      6  O   UNL     1       3.572   3.839   2.190  0.00  0.00    -0.274 OA
ATOM      7  N   UNL     1       3.449   2.536   3.974  0.00  0.00    -0.283 N 
ATOM      8  C   UNL     1       2.680   1.739   4.829  0.00  0.00    +0.055 A 
ATOM      9  C   UNL     1       1.380   1.381   4.457  0.00  0.00    +0.058 A 
ATOM     10  C   UNL     1       0.607   0.593   5.289  0.00  0.00    +0.025 A 
ATOM     11  C   UNL     1       1.121   0.163   6.500  0.00  0.00    +0.002 A 
ATOM     12  C   UNL     1       2.402   0.520   6.877  0.00  0.00    +0.002 A 
ATOM     13  C   UNL     1       3.190   1.302   6.040  0.00  0.00    +0.025 A 
ATOM     14  H   UNL     1       4.403   2.620   4.126  0.00  0.00    +0.155 HD
ENDROOT
BRANCH   1  16
ATOM     15  C   UNL     1       0.311   1.564   0.118  0.00  0.00    +0.062 C 
ATOM     16  C   UNL     1      -0.656   1.706   1.295  0.00  0.00    +0.256 C 
BRANCH  16  17
ATOM     17  O   UNL     1      -1.868   1.007   1.003  0.00  0.00    -0.480 OA
BRANCH  17  18
ATOM     18  C   UNL     1      -2.806   1.673   0.280  0.00  0.00    +0.122 A 
ATOM     19  C   UNL     1      -2.506   2.935  -0.242  0.00  0.00    +0.046 A 
ATOM     20  C   UNL     1      -3.424   3.627  -0.969  0.00  0.00    +0.012 A 
ATOM     21  C   UNL     1      -4.693   3.068  -1.203  0.00  0.00    -0.018 A 
ATOM     22  C   UNL     1      -5.665   3.755  -1.950  0.00  0.00    +0.008 A 
ATOM     23  C   UNL     1      -6.883   3.184  -2.157  0.00  0.00    +0.001 A 
ATOM     24  C   UNL     1      -7.184   1.926  -1.638  0.00  0.00    +0.001 A 
ATOM     25  C   UNL     1      -6.268   1.232  -0.909  0.00  0.00    +0.008 A 
ATOM     26  C   UNL     1      -4.999   1.789  -0.675  0.00  0.00    -0.014 A 
ATOM     27  C   UNL     1      -4.026   1.099   0.068  0.00  0.00    +0.054 A 
ENDBRANCH  17  18
ENDBRANCH  16  17
ENDBRANCH   1  16
TORSDOF 3
