REMARK  Name = ZINC40062753
REMARK  5 active torsions:
REMARK  status: ('A' for Active; 'I' for Inactive)
REMARK    1  A    between atoms: C_1  and  C_2
REMARK    2  A    between atoms: C_12  and  C_13
REMARK    3  A    between atoms: N_16  and  C_26
REMARK    4  A    between atoms: C_17  and  C_19
REMARK    5  A    between atoms: C_26  and  C_27
REMARK                            x       y       z     vdW  Elec       q    Type
REMARK                         _______ _______ _______ _____ _____    ______ ____
ROOT
ATOM      1  C   UNL     1      -0.018   1.503   0.010  0.00  0.00    +0.044 C 
ATOM      2  C   UNL     1       0.002  -0.004   0.002  0.00  0.00    -0.044 A 
ATOM      3  C   UNL     1       0.005  -0.683  -1.209  0.00  0.00    +0.004 A 
ATOM      4  C   UNL     1       0.021  -2.050  -1.232  0.00  0.00    +0.015 A 
ATOM      5  C   UNL     1       0.033  -2.761  -0.032  0.00  0.00    +0.065 A 
ATOM      6  C   UNL     1       0.036  -4.246  -0.038  0.00  0.00    +0.199 A 
ATOM      7  O   UNL     1       0.200  -4.908  -1.047  0.00  0.00    -0.287 OA
ATOM      8  C   UNL     1      -0.176  -4.839   1.286  0.00  0.00    +0.072 A 
ATOM      9  C   UNL     1      -0.158  -4.068   2.414  0.00  0.00    +0.199 A 
ATOM     10  O   UNL     1       0.060  -2.739   2.383  0.00  0.00    -0.449 OA
ATOM     11  C   UNL     1       0.036  -2.085   1.199  0.00  0.00    +0.143 A 
ATOM     12  C   UNL     1       0.023  -0.690   1.195  0.00  0.00    -0.005 A 
ATOM     13  C   UNL     1       0.025   0.066   2.499  0.00  0.00    +0.048 C 
ATOM     14  C   UNL     1      -0.408  -4.941   3.575  0.00  0.00    +0.284 C 
ATOM     15  O   UNL     1      -0.459  -4.566   4.729  0.00  0.00    -0.267 OA
ATOM     16  N   UNL     1      -0.571  -6.217   3.168  0.00  0.00    -0.276 N 
ATOM     17  C   UNL     1      -0.436  -6.249   1.703  0.00  0.00    +0.145 C 
ENDROOT
BRANCH  17  18
ATOM     18  C   UNL     1      -1.711  -6.750   1.075  0.00  0.00    -0.022 A 
ATOM     19  C   UNL     1      -2.934  -6.379   1.603  0.00  0.00    +0.007 A 
ATOM     20  C   UNL     1      -4.103  -6.838   1.028  0.00  0.00    +0.020 A 
ATOM     21  C   UNL     1      -4.051  -7.669  -0.077  0.00  0.00    +0.041 A 
ATOM     22  C   UNL     1      -2.827  -8.040  -0.606  0.00  0.00    +0.020 A 
ATOM     23  C   UNL     1      -1.658  -7.575  -0.033  0.00  0.00    +0.007 A 
ATOM     24 CL   UNL     1      -5.519  -8.247  -0.801  0.00  0.00    -0.084 Cl
ENDBRANCH  17  18
BRANCH  16  25
ATOM     25  C   UNL     1      -0.834  -7.369   4.034  0.00  0.00    +0.183 C 
BRANCH  25  26
ATOM     26  C   UNL     1      -2.322  -7.544   4.198  0.00  0.00    +0.122 A 
ATOM     27  C   UNL     1      -3.118  -8.292   3.413  0.00  0.00    +0.046 A 
ATOM     28  C   UNL     1      -4.430  -8.170   3.925  0.00  0.00    +0.041 A 
ATOM     29  C   UNL     1      -4.358  -7.356   4.993  0.00  0.00    +0.195 A 
ATOM     30  O   UNL     1      -3.078  -6.984   5.157  0.00  0.00    -0.466 OA
ENDBRANCH  25  26
ENDBRANCH  16  25
TORSDOF 3
