REMARK  Name = ZINC11394332
REMARK  9 active torsions:
REMARK  status: ('A' for Active; 'I' for Inactive)
REMARK    1  A    between atoms: C_1  and  C_2
REMARK    2  A    between atoms: C_2  and  C_4
REMARK    3  A    between atoms: C_2  and  S_23
REMARK    4  A    between atoms: N_6  and  C_7
REMARK    5  A    between atoms: C_10  and  S_13
REMARK    6  A    between atoms: S_13  and  N_16
REMARK    7  A    between atoms: S_23  and  C_24
REMARK    8  A    between atoms: N_29  and  C_30
REMARK    9  A    between atoms: C_30  and  C_31
REMARK                            x       y       z     vdW  Elec       q    Type
REMARK                         _______ _______ _______ _____ _____    ______ ____
ROOT
ATOM      1  C   UNL     1       5.474   5.415   3.689  0.00  0.00    +0.230 C 
ATOM      2  O   UNL     1       4.827   5.723   2.711  0.00  0.00    -0.274 OA
ATOM      3  N   UNL     1       5.883   4.141   3.852  0.00  0.00    -0.285 N 
ATOM      4  H   UNL     1       6.334   3.878   4.670  0.00  0.00    +0.155 HD
ENDROOT
BRANCH   3   5
ATOM      5  C   UNL     1       5.659   3.199   2.842  0.00  0.00    +0.034 A 
ATOM      6  C   UNL     1       5.683   3.589   1.510  0.00  0.00    +0.025 A 
ATOM      7  C   UNL     1       5.461   2.656   0.515  0.00  0.00    +0.030 A 
ATOM      8  C   UNL     1       5.215   1.336   0.845  0.00  0.00    +0.109 A 
ATOM      9  C   UNL     1       5.185   0.946   2.172  0.00  0.00    +0.030 A 
ATOM     10  C   UNL     1       5.411   1.873   3.171  0.00  0.00    +0.025 A 
BRANCH   8  11
ATOM     11  S   UNL     1       4.933   0.150  -0.426  0.00  0.00    +0.075 S 
ATOM     12  O   UNL     1       4.468   0.871  -1.559  0.00  0.00    -0.150 OA
ATOM     13  O   UNL     1       4.187  -0.907   0.163  0.00  0.00    -0.150 OA
BRANCH  11  14
ATOM     14  N   UNL     1       6.405  -0.484  -0.841  0.00  0.00    -0.184 N 
ATOM     15  C   UNL     1       7.123  -1.227   0.080  0.00  0.00    +0.235 A 
ATOM     16  N   UNL     1       8.137  -1.971  -0.338  0.00  0.00    -0.222 NA
ATOM     17  C   UNL     1       8.843  -2.693   0.516  0.00  0.00    +0.116 A 
ATOM     18  C   UNL     1       8.511  -2.664   1.861  0.00  0.00    +0.039 A 
ATOM     19  C   UNL     1       7.445  -1.876   2.264  0.00  0.00    +0.116 A 
ATOM     20  N   UNL     1       6.780  -1.178   1.359  0.00  0.00    -0.222 NA
ATOM     21  H   UNL     1       6.765  -0.334  -1.729  0.00  0.00    +0.177 HD
ENDBRANCH  11  14
ENDBRANCH   8  11
ENDBRANCH   3   5
BRANCH   1  23
ATOM     22  C   UNL     1       4.858   6.339   5.906  0.00  0.00    +0.029 C 
ATOM     23  C   UNL     1       5.820   6.456   4.722  0.00  0.00    +0.136 C 
BRANCH  23  24
ATOM     24  S   UNL     1       5.676   8.108   3.988  0.00  0.00    -0.084 S 
BRANCH  24  25
ATOM     25  C   UNL     1       6.247   9.190   5.256  0.00  0.00    +0.161 A 
ATOM     26  N   UNL     1       6.679   8.902   6.468  0.00  0.00    -0.133 NA
ATOM     27  N   UNL     1       7.088   9.913   7.308  0.00  0.00    -0.125 NA
ATOM     28  C   UNL     1       7.035  11.165   6.900  0.00  0.00    +0.183 A 
ATOM     29  S   UNL     1       6.390  10.971   5.246  0.00  0.00    -0.025 S 
ATOM     30  N   UNL     1       7.388  12.327   7.576  0.00  0.00    -0.319 N 
ATOM     31  H   UNL     1       7.294  13.189   7.142  0.00  0.00    +0.148 HD
BRANCH  30  32
ATOM     32  C   UNL     1       7.903  12.250   8.946  0.00  0.00    +0.130 C 
BRANCH  32  33
ATOM     33  C   UNL     1       8.208  13.638   9.447  0.00  0.00    -0.016 C 
ATOM     34  C   UNL     1       7.671  14.064  10.563  0.00  0.00    +0.005 C 
ENDBRANCH  32  33
ENDBRANCH  30  32
ENDBRANCH  24  25
ENDBRANCH  23  24
ENDBRANCH   1  23
TORSDOF 8
