REMARK  Name = ZINC10315480
REMARK  8 active torsions:
REMARK  status: ('A' for Active; 'I' for Inactive)
REMARK    1  A    between atoms: C_1  and  C_2
REMARK    2  A    between atoms: C_3  and  C_20
REMARK    3  A    between atoms: N_10  and  C_11
REMARK    4  A    between atoms: C_11  and  C_12
REMARK    5  A    between atoms: C_20  and  N_66
REMARK    6  A    between atoms: C_21  and  C_23
REMARK    7  A    between atoms: C_21  and  C_24
REMARK    8  A    between atoms: C_21  and  N_66
REMARK                            x       y       z     vdW  Elec       q    Type
REMARK                         _______ _______ _______ _____ _____    ______ ____
ROOT
ATOM      1  C   UNL     1       0.094  -0.444   2.793  0.00  0.00    +0.064 C 
ATOM      2  C   UNL     1       0.067  -0.770   1.322  0.00  0.00    +0.018 A 
ATOM      3  C   UNL     1       0.053   0.136   0.332  0.00  0.00    -0.036 A 
ATOM      4  C   UNL     1       0.021  -0.608  -0.929  0.00  0.00    +0.001 A 
ATOM      5  C   UNL     1      -0.008  -0.236  -2.275  0.00  0.00    +0.010 A 
ATOM      6  C   UNL     1      -0.035  -1.198  -3.244  0.00  0.00    +0.001 A 
ATOM      7  C   UNL     1      -0.032  -2.544  -2.902  0.00  0.00    +0.002 A 
ATOM      8  C   UNL     1       0.005  -2.933  -1.581  0.00  0.00    +0.026 A 
ATOM      9  C   UNL     1       0.027  -1.970  -0.578  0.00  0.00    +0.050 A 
ATOM     10  N   UNL     1       0.052  -2.034   0.797  0.00  0.00    -0.339 N 
ENDROOT
BRANCH  10  11
ATOM     11  C   UNL     1       0.061  -3.271   1.582  0.00  0.00    +0.158 C 
BRANCH  11  12
ATOM     12  C   UNL     1      -1.346  -3.609   2.004  0.00  0.00    -0.009 A 
ATOM     13  C   UNL     1      -1.885  -3.031   3.138  0.00  0.00    +0.008 A 
ATOM     14  C   UNL     1      -3.177  -3.337   3.522  0.00  0.00    +0.020 A 
ATOM     15  C   UNL     1      -3.928  -4.229   2.778  0.00  0.00    +0.042 A 
ATOM     16  C   UNL     1      -3.387  -4.811   1.645  0.00  0.00    +0.040 A 
ATOM     17  C   UNL     1      -2.096  -4.501   1.258  0.00  0.00    +0.047 A 
ATOM     18 CL   UNL     1      -1.416  -5.232  -0.162  0.00  0.00    -0.083 Cl
ATOM     19 CL   UNL     1      -5.548  -4.618   3.264  0.00  0.00    -0.083 Cl
ENDBRANCH  11  12
ENDBRANCH  10  11
BRANCH   3  20
ATOM     20  C   UNL     1       0.061   1.635   0.489  0.00  0.00    -0.044 C 
BRANCH  20  21
ATOM     21  N   UNL     1       1.458   2.111   0.515  0.00  0.00    +0.384 N 
ATOM     22  H   UNL     1       1.921   1.849  -0.363  0.00  0.00    -0.085 HD
ATOM     23  H   UNL     1       1.949   1.675   1.304  0.00  0.00    -0.085 HD
BRANCH  21  24
ATOM     24  C   UNL     1       1.497   3.577   0.668  0.00  0.00    -0.068 C 
ATOM     25  C   UNL     1       1.412   3.938   2.152  0.00  0.00    -0.013 C 
BRANCH  24  26
ATOM     26  C   UNL     1       2.809   4.108   0.088  0.00  0.00    -0.041 C 
ATOM     27  C   UNL     1       2.894   3.747  -1.396  0.00  0.00    +0.009 C 
ATOM     28  C   UNL     1       4.207   4.277  -1.976  0.00  0.00    -0.010 C 
ATOM     29  C   UNL     1       4.256   5.798  -1.818  0.00  0.00    +0.007 C 
ATOM     30  C   UNL     1       4.171   6.160  -0.333  0.00  0.00    -0.010 C 
ATOM     31  C   UNL     1       2.859   5.629   0.246  0.00  0.00    +0.009 C 
ATOM     32  C   UNL     1       5.350   5.530   0.413  0.00  0.00    +0.007 C 
ATOM     33  C   UNL     1       5.300   4.009   0.254  0.00  0.00    -0.010 C 
ATOM     34  C   UNL     1       5.385   3.648  -1.230  0.00  0.00    +0.007 C 
ATOM     35  C   UNL     1       3.988   3.479   0.834  0.00  0.00    +0.009 C 
ENDBRANCH  24  26
ENDBRANCH  21  24
ENDBRANCH  20  21
ENDBRANCH   3  20
TORSDOF 6
