REMARK  Name = ZINC08819898
REMARK  12 active torsions:
REMARK  status: ('A' for Active; 'I' for Inactive)
REMARK    1  A    between atoms: C_1  and  O_2
REMARK    2  A    between atoms: O_2  and  C_3
REMARK    3  A    between atoms: C_6  and  C_9
REMARK    4  A    between atoms: N_13  and  C_17
REMARK    5  A    between atoms: C_17  and  C_18
REMARK    6  A    between atoms: C_18  and  C_19
REMARK    7  A    between atoms: C_19  and  C_20
REMARK    8  A    between atoms: C_20  and  C_21
REMARK    9  A    between atoms: C_21  and  C_22
REMARK   10  A    between atoms: N_24  and  N_25
REMARK   11  A    between atoms: C_26  and  C_28
REMARK   12  A    between atoms: C_31  and  O_34
REMARK                            x       y       z     vdW  Elec       q    Type
REMARK                         _______ _______ _______ _____ _____    ______ ____
ROOT
ATOM      1  C   UNL     1       4.629  -9.441  -0.125  0.00  0.00    +0.002 C 
ENDROOT
BRANCH   1   2
ATOM      2  C   UNL     1       6.115  -9.794  -0.201  0.00  0.00    +0.019 C 
BRANCH   2   3
ATOM      3  C   UNL     1       6.304 -11.278   0.124  0.00  0.00    +0.115 C 
BRANCH   3   8
ATOM      4  C   UNL     1      10.890 -11.847   1.928  0.00  0.00    +0.028 C 
ATOM      5  C   UNL     1       9.900 -11.863   0.999  0.00  0.00    +0.077 C 
ATOM      6  C   UNL     1       8.474 -11.506   1.138  0.00  0.00    +0.258 C 
ATOM      7  O   UNL     1       8.009 -11.129   2.197  0.00  0.00    -0.269 OA
ATOM      8  N   UNL     1       7.727 -11.616   0.052  0.00  0.00    -0.255 N 
ATOM      9  C   UNL     1       8.245 -12.039  -1.119  0.00  0.00    +0.121 C 
ATOM     10  S   UNL     1       7.448 -12.252  -2.619  0.00  0.00    -0.027 S 
ATOM     11  S   UNL     1       9.964 -12.320  -0.728  0.00  0.00    -0.061 S 
BRANCH   4  15
ATOM     12  C   UNL     1      14.699 -13.460   0.994  0.00  0.00    +0.120 A 
ATOM     13  C   UNL     1      14.515 -12.760   2.180  0.00  0.00    +0.046 A 
ATOM     14  C   UNL     1      13.281 -12.234   2.489  0.00  0.00    +0.011 A 
ATOM     15  C   UNL     1      12.209 -12.406   1.604  0.00  0.00    -0.024 A 
ATOM     16  C   UNL     1      12.398 -13.117   0.413  0.00  0.00    +0.011 A 
ATOM     17  C   UNL     1      13.638 -13.633   0.112  0.00  0.00    +0.046 A 
BRANCH  12  19
ATOM     18  C   UNL     1      16.037 -14.685  -0.541  0.00  0.00    +0.277 C 
ATOM     19  O   UNL     1      15.918 -13.977   0.695  0.00  0.00    -0.495 OA
ENDBRANCH  12  19
ENDBRANCH   4  15
ENDBRANCH   3   8
ENDBRANCH   2   3
ENDBRANCH   1   2
BRANCH   1  20
ATOM     20  C   UNL     1       4.440  -7.958  -0.450  0.00  0.00    +0.009 C 
BRANCH  20  21
ATOM     21  C   UNL     1       2.953  -7.604  -0.374  0.00  0.00    +0.097 C 
BRANCH  21  22
ATOM     22  C   UNL     1       2.768  -6.143  -0.694  0.00  0.00    +0.229 C 
ATOM     23  O   UNL     1       3.730  -5.453  -0.957  0.00  0.00    -0.274 OA
ATOM     24  N   UNL     1       1.533  -5.604  -0.688  0.00  0.00    -0.234 N 
ATOM     25  H   UNL     1       0.763  -6.156  -0.478  0.00  0.00    +0.173 HD
BRANCH  24  26
ATOM     26  N   UNL     1       1.360  -4.245  -0.986  0.00  0.00    -0.230 N 
ATOM     27  C   UNL     1       0.125  -3.706  -0.980  0.00  0.00    +0.260 C 
ATOM     28  O   UNL     1      -0.840  -4.398  -0.717  0.00  0.00    -0.269 OA
ATOM     29  H   UNL     1       2.129  -3.693  -1.196  0.00  0.00    +0.173 HD
BRANCH  27  30
ATOM     30  C   UNL     1      -0.057  -2.275  -1.293  0.00  0.00    +0.038 A 
ATOM     31  C   UNL     1      -1.337  -1.714  -1.288  0.00  0.00    +0.016 A 
ATOM     32  C   UNL     1      -1.502  -0.379  -1.580  0.00  0.00    +0.046 A 
ATOM     33  C   UNL     1      -0.399   0.411  -1.881  0.00  0.00    +0.117 A 
ATOM     34  C   UNL     1       0.876  -0.143  -1.887  0.00  0.00    +0.046 A 
ATOM     35  C   UNL     1       1.050  -1.478  -1.596  0.00  0.00    +0.016 A 
BRANCH  33  36
ATOM     36  O   UNL     1      -0.566   1.726  -2.169  0.00  0.00    -0.507 OA
ATOM     37  H   UNL     1      -0.524   2.307  -1.396  0.00  0.00    +0.292 HD
ENDBRANCH  33  36
ENDBRANCH  27  30
ENDBRANCH  24  26
ENDBRANCH  21  22
ENDBRANCH  20  21
ENDBRANCH   1  20
TORSDOF 11
