REMARK  Name = ZINC02256860
REMARK  7 active torsions:
REMARK  status: ('A' for Active; 'I' for Inactive)
REMARK    1  A    between atoms: C_1  and  C_2
REMARK    2  A    between atoms: C_3  and  C_18
REMARK    3  A    between atoms: C_4  and  N_12
REMARK    4  A    between atoms: N_5  and  C_11
REMARK    5  A    between atoms: C_8  and  C_9
REMARK    6  A    between atoms: C_17  and  N_61
REMARK    7  A    between atoms: N_22  and  C_26
REMARK                            x       y       z     vdW  Elec       q    Type
REMARK                         _______ _______ _______ _____ _____    ______ ____
ROOT
ATOM      1  C   UNL     1       2.524   4.471  -0.227  0.00  0.00    +0.046 C 
ATOM      2  C   UNL     1       1.338   3.552  -0.088  0.00  0.00    -0.017 A 
ATOM      3  C   UNL     1       0.055   4.072   0.151  0.00  0.00    +0.019 A 
ATOM      4  C   UNL     1      -1.035   3.194   0.276  0.00  0.00    +0.111 A 
ATOM      5  N   UNL     1      -0.856   1.853   0.162  0.00  0.00    -0.298 N 
ATOM      6  C   UNL     1       0.363   1.330  -0.062  0.00  0.00    +0.270 A 
ATOM      7  O   UNL     1       0.494   0.122  -0.155  0.00  0.00    -0.266 OA
ATOM      8  C   UNL     1       1.495   2.173  -0.196  0.00  0.00    +0.120 A 
ATOM      9  C   UNL     1      -2.010   0.960   0.290  0.00  0.00    +0.154 C 
ENDROOT
BRANCH   4  10
ATOM     10  N   UNL     1      -2.283   3.693   0.508  0.00  0.00    -0.320 N 
ATOM     11  C   UNL     1      -2.750   4.495  -0.631  0.00  0.00    +0.088 C 
ATOM     12  C   UNL     1      -4.181   4.970  -0.366  0.00  0.00    -0.060 C 
ATOM     13  C   UNL     1      -3.744   4.954   2.015  0.00  0.00    -0.060 C 
ATOM     14  C   UNL     1      -2.313   4.480   1.749  0.00  0.00    +0.088 C 
ATOM     15  C   UNL     1      -5.555   6.293   1.126  0.00  0.00    -0.096 C 
ATOM     16  N   UNL     1      -4.193   5.777   0.872  0.00  0.00    +0.380 N 
ATOM     17  H   UNL     1      -3.551   6.570   0.760  0.00  0.00    -0.082 HD
ENDBRANCH   4  10
BRANCH   3  18
ATOM     18  C   UNL     1      -0.145   5.518   0.269  0.00  0.00    +0.032 C 
ATOM     19  C   UNL     1       0.380   6.194   1.327  0.00  0.00    +0.077 C 
ATOM     20  C   UNL     1       0.314   7.585   1.639  0.00  0.00    +0.259 C 
ATOM     21  O   UNL     1      -0.277   8.364   0.913  0.00  0.00    -0.269 OA
ATOM     22  N   UNL     1       0.910   8.003   2.743  0.00  0.00    -0.252 N 
ATOM     23  C   UNL     1       1.572   7.139   3.545  0.00  0.00    +0.121 C 
ATOM     24  S   UNL     1       2.412   7.458   5.002  0.00  0.00    -0.027 S 
ATOM     25  S   UNL     1       1.347   5.582   2.700  0.00  0.00    -0.061 S 
BRANCH  22  26
ATOM     26  C   UNL     1       0.858   9.423   3.098  0.00  0.00    +0.083 C 
ATOM     27  C   UNL     1       2.280   9.985   3.163  0.00  0.00    +0.023 C 
ATOM     28  C   UNL     1       2.226  11.468   3.534  0.00  0.00    +0.002 C 
ATOM     29  C   UNL     1       1.551  11.628   4.898  0.00  0.00    +0.000 C 
ATOM     30  C   UNL     1       0.130  11.066   4.833  0.00  0.00    +0.002 C 
ATOM     31  C   UNL     1       0.183   9.583   4.462  0.00  0.00    +0.023 C 
ENDBRANCH  22  26
ENDBRANCH   3  18
BRANCH   8  32
ATOM     32  C   UNL     1       2.789   1.611  -0.439  0.00  0.00    +0.105 C 
ATOM     33  N   UNL     1       3.816   1.165  -0.632  0.00  0.00    -0.191 NA
ENDBRANCH   8  32
TORSDOF 4
