REMARK  Name = ZINC13418226
REMARK  7 active torsions:
REMARK  status: ('A' for Active; 'I' for Inactive)
REMARK    1  A    between atoms: C_1  and  C_2
REMARK    2  A    between atoms: N_7  and  C_10
REMARK    3  A    between atoms: C_10  and  C_11
REMARK    4  A    between atoms: N_13  and  C_14
REMARK    5  A    between atoms: C_14  and  C_16
REMARK    6  A    between atoms: C_14  and  C_17
REMARK    7  A    between atoms: C_25  and  C_26
REMARK                            x       y       z     vdW  Elec       q    Type
REMARK                         _______ _______ _______ _____ _____    ______ ____
ROOT
ATOM      1  C   UNL     1      -2.742  -7.364  -0.818  0.00  0.00    +0.046 C 
ATOM      2  C   UNL     1      -1.964  -7.246  -2.103  0.00  0.00    -0.015 A 
ATOM      3  C   UNL     1      -1.691  -5.988  -2.643  0.00  0.00    +0.076 A 
ATOM      4  C   UNL     1      -0.955  -5.983  -3.850  0.00  0.00    +0.116 A 
ATOM      5  N   UNL     1      -0.630  -4.854  -4.466  0.00  0.00    -0.230 NA
ATOM      6  C   UNL     1      -0.978  -3.689  -3.990  0.00  0.00    +0.203 A 
ATOM      7  N   UNL     1      -1.680  -3.567  -2.837  0.00  0.00    -0.290 N 
ATOM      8  C   UNL     1      -2.062  -4.649  -2.131  0.00  0.00    +0.263 A 
ATOM      9  O   UNL     1      -2.698  -4.529  -1.098  0.00  0.00    -0.267 OA
ATOM     10  S   UNL     1      -0.684  -7.707  -4.170  0.00  0.00    -0.062 S 
ATOM     11  C   UNL     1      -1.525  -8.370  -2.742  0.00  0.00    +0.106 A 
ENDROOT
BRANCH  11  12
ATOM     12  C   UNL     1      -1.700  -9.771  -2.352  0.00  0.00    +0.393 C 
ATOM     13  O   UNL     1      -2.307 -10.048  -1.335  0.00  0.00    -0.240 OA
ATOM     14  O   UNL     1      -1.187 -10.754  -3.121  0.00  0.00    -0.240 OA
ENDBRANCH  11  12
BRANCH   7  15
ATOM     15  C   UNL     1      -2.036  -2.232  -2.351  0.00  0.00    +0.222 C 
BRANCH  15  16
ATOM     16  C   UNL     1      -0.946  -1.719  -1.446  0.00  0.00    +0.233 C 
ATOM     17  O   UNL     1       0.032  -2.403  -1.227  0.00  0.00    -0.274 OA
ATOM     18  N   UNL     1      -1.058  -0.502  -0.878  0.00  0.00    -0.307 N 
ATOM     19  H   UNL     1      -1.840   0.045  -1.053  0.00  0.00    +0.149 HD
BRANCH  18  20
ATOM     20  C   UNL     1       0.002  -0.004   0.002  0.00  0.00    +0.100 C 
ATOM     21  C   UNL     1      -0.228  -0.525   1.422  0.00  0.00    +0.033 C 
BRANCH  20  22
ATOM     22  C   UNL     1      -0.018   1.503   0.010  0.00  0.00    -0.027 A 
ATOM     23  C   UNL     1      -1.225   2.177   0.020  0.00  0.00    +0.006 A 
ATOM     24  C   UNL     1      -1.244   3.559   0.032  0.00  0.00    +0.015 A 
ATOM     25  C   UNL     1      -0.056   4.268   0.025  0.00  0.00    +0.018 A 
ATOM     26  C   UNL     1       1.151   3.592   0.010  0.00  0.00    +0.015 A 
ATOM     27  C   UNL     1       1.169   2.210   0.003  0.00  0.00    +0.006 A 
ATOM     28 BR   UNL     1      -0.082   6.158   0.034  0.00  0.00    -0.050 Br
ENDBRANCH  20  22
ENDBRANCH  18  20
ENDBRANCH  15  16
ENDBRANCH   7  15
TORSDOF 5
