REMARK  Name = ZINC60376468
REMARK  8 active torsions:
REMARK  status: ('A' for Active; 'I' for Inactive)
REMARK    1  A    between atoms: C_4  and  C_7
REMARK    2  A    between atoms: C_10  and  C_14
REMARK    3  A    between atoms: C_14  and  S_15
REMARK    4  A    between atoms: S_15  and  C_16
REMARK    5  A    between atoms: C_19  and  C_22
REMARK    6  A    between atoms: N_20  and  N_21
REMARK    7  A    between atoms: C_22  and  O_23
REMARK    8  A    between atoms: O_23  and  C_24
REMARK                            x       y       z     vdW  Elec       q    Type
REMARK                         _______ _______ _______ _____ _____    ______ ____
ROOT
ATOM      1  C   UNL     1      10.230  -2.606   0.505  0.00  0.00    +0.209 A 
ATOM      2  N   UNL     1      10.329  -3.584  -0.365  0.00  0.00    -0.121 NA
ATOM      3  N   UNL     1      11.558  -3.943  -0.480  0.00  0.00    -0.128 NA
ATOM      4  C   UNL     1      12.310  -3.221   0.303  0.00  0.00    +0.189 A 
ATOM      5  N   UNL     1      11.492  -2.340   0.954  0.00  0.00    -0.225 N 
ENDROOT
BRANCH   5   6
ATOM      6  N   UNL     1      11.860  -1.393   1.866  0.00  0.00    -0.295 N 
ATOM      7  H   UNL     1      11.842  -1.767   2.803  0.00  0.00    +0.163 HD
ATOM      8  H   UNL     1      12.768  -1.012   1.646  0.00  0.00    +0.163 HD
ENDBRANCH   5   6
BRANCH   1   9
ATOM      9  S   UNL     1       8.749  -1.786   0.995  0.00  0.00    -0.081 S 
BRANCH   9  10
ATOM     10  C   UNL     1       7.451  -2.614   0.035  0.00  0.00    +0.126 C 
BRANCH  10  14
ATOM     11  C   UNL     1       3.697  -0.686  -0.037  0.00  0.00    +0.165 C 
ATOM     12  N   UNL     1       4.802  -0.013  -0.039  0.00  0.00    -0.068 NA
ATOM     13  O   UNL     1       6.072  -0.628  -0.065  0.00  0.00    -0.387 OA
ATOM     14  C   UNL     1       6.094  -1.991   0.368  0.00  0.00    +0.231 C 
ATOM     15  C   UNL     1       4.978  -2.752  -0.363  0.00  0.00    +0.151 C 
ATOM     16  N   UNL     1       3.708  -2.074  -0.045  0.00  0.00    -0.322 N 
ATOM     17  H   UNL     1       2.905  -2.582   0.150  0.00  0.00    +0.148 HD
BRANCH  11  21
ATOM     18  C   UNL     1      -0.017   1.379   0.010  0.00  0.00    +0.000 A 
ATOM     19  C   UNL     1       1.169   2.093   0.002  0.00  0.00    +0.001 A 
ATOM     20  C   UNL     1       2.377   1.428  -0.013  0.00  0.00    +0.011 A 
ATOM     21  C   UNL     1       2.403   0.033  -0.021  0.00  0.00    +0.018 A 
ATOM     22  C   UNL     1       1.205  -0.680  -0.013  0.00  0.00    +0.011 A 
ATOM     23  C   UNL     1       0.002  -0.004   0.002  0.00  0.00    +0.001 A 
ENDBRANCH  11  21
ENDBRANCH  10  14
ENDBRANCH   9  10
ENDBRANCH   1   9
BRANCH   4  24
ATOM     24  C   UNL     1      13.805  -3.333   0.457  0.00  0.00    +0.306 C 
BRANCH  24  25
ATOM     25  O   UNL     1      14.447  -2.471  -0.484  0.00  0.00    -0.484 OA
BRANCH  25  26
ATOM     26  C   UNL     1      15.806  -2.452  -0.477  0.00  0.00    +0.121 A 
ATOM     27  C   UNL     1      16.506  -3.252   0.414  0.00  0.00    +0.048 A 
ATOM     28  C   UNL     1      17.888  -3.232   0.420  0.00  0.00    +0.042 A 
ATOM     29  C   UNL     1      18.573  -2.414  -0.462  0.00  0.00    +0.124 A 
ATOM     30  C   UNL     1      17.875  -1.614  -1.351  0.00  0.00    +0.042 A 
ATOM     31  C   UNL     1      16.494  -1.637  -1.364  0.00  0.00    +0.048 A 
ATOM     32  F   UNL     1      19.924  -2.395  -0.454  0.00  0.00    -0.205 F 
ENDBRANCH  25  26
ENDBRANCH  24  25
ENDBRANCH   4  24
TORSDOF 8
