REMARK  Name = ZINC46031225
REMARK  9 active torsions:
REMARK  status: ('A' for Active; 'I' for Inactive)
REMARK    1  A    between atoms: C_1  and  C_2
REMARK    2  A    between atoms: N_7  and  C_9
REMARK    3  A    between atoms: C_9  and  C_10
REMARK    4  A    between atoms: C_15  and  C_16
REMARK    5  A    between atoms: C_16  and  N_17
REMARK    6  A    between atoms: N_20  and  C_21
REMARK    7  A    between atoms: C_26  and  C_27
REMARK    8  A    between atoms: C_27  and  O_28
REMARK    9  A    between atoms: O_28  and  C_29
REMARK                            x       y       z     vdW  Elec       q    Type
REMARK                         _______ _______ _______ _____ _____    ______ ____
ROOT
ATOM      1  C   UNL     1       3.181  -3.330   1.225  0.00  0.00    +0.141 C 
ENDROOT
BRANCH   1   7
ATOM      2  C   UNL     1       1.407  -3.353   2.991  0.00  0.00    -0.059 A 
ATOM      3  C   UNL     1       0.409  -3.995   3.700  0.00  0.00    +0.002 A 
ATOM      4  C   UNL     1       0.105  -5.315   3.427  0.00  0.00    +0.000 A 
ATOM      5  C   UNL     1       0.800  -5.995   2.443  0.00  0.00    +0.000 A 
ATOM      6  C   UNL     1       1.797  -5.353   1.732  0.00  0.00    +0.005 A 
ATOM      7  C   UNL     1       2.097  -4.031   2.003  0.00  0.00    -0.029 A 
BRANCH   2   8
ATOM      8  C   UNL     1       1.738  -1.914   3.289  0.00  0.00    -0.043 C 
BRANCH   8  14
ATOM      9  C   UNL     1       4.967   1.066   5.448  0.00  0.00    +0.005 C 
ATOM     10  C   UNL     1       4.549  -0.394   5.256  0.00  0.00    -0.031 C 
ATOM     11  C   UNL     1       4.243  -1.021   6.618  0.00  0.00    -0.001 C 
ATOM     12  C   UNL     1       3.751  -2.457   6.409  0.00  0.00    -0.018 C 
ATOM     13  C   UNL     1       2.529  -2.442   5.489  0.00  0.00    -0.078 C 
ATOM     14  N   UNL     1       2.893  -1.855   4.194  0.00  0.00    +0.383 N 
ATOM     15  C   UNL     1       3.298  -0.456   4.378  0.00  0.00    -0.075 C 
ATOM     16  H   UNL     1       3.659  -2.375   3.794  0.00  0.00    -0.081 HD
ENDBRANCH   8  14
ENDBRANCH   2   8
ENDBRANCH   1   7
BRANCH   1  17
ATOM     17  N   UNL     1       4.415  -3.311   2.015  0.00  0.00    -0.295 N 
ATOM     18  C   UNL     1       5.525  -2.730   1.517  0.00  0.00    +0.304 C 
ATOM     19  O   UNL     1       5.502  -2.221   0.413  0.00  0.00    -0.252 OA
ATOM     20  N   UNL     1       6.660  -2.713   2.244  0.00  0.00    -0.269 N 
ATOM     21  H   UNL     1       4.433  -3.717   2.896  0.00  0.00    +0.151 HD
ATOM     22  H   UNL     1       6.703  -3.190   3.087  0.00  0.00    +0.156 HD
BRANCH  20  23
ATOM     23  C   UNL     1       7.776  -2.008   1.781  0.00  0.00    +0.040 A 
ATOM     24  C   UNL     1       7.623  -1.014   0.822  0.00  0.00    +0.024 A 
ATOM     25  C   UNL     1       8.727  -0.319   0.368  0.00  0.00    +0.002 A 
ATOM     26  C   UNL     1       9.983  -0.612   0.866  0.00  0.00    +0.000 A 
ATOM     27  C   UNL     1      10.139  -1.601   1.819  0.00  0.00    +0.008 A 
ATOM     28  C   UNL     1       9.038  -2.296   2.282  0.00  0.00    -0.001 A 
BRANCH  28  29
ATOM     29  C   UNL     1       9.208  -3.369   3.326  0.00  0.00    +0.196 C 
BRANCH  29  30
ATOM     30  O   UNL     1      10.589  -3.476   3.679  0.00  0.00    -0.378 OA
ATOM     31  C   UNL     1      10.861  -4.471   4.668  0.00  0.00    +0.194 C 
ENDBRANCH  29  30
ENDBRANCH  28  29
ENDBRANCH  20  23
ENDBRANCH   1  17
TORSDOF 7
