REMARK  Name = ZINC14667378
REMARK  11 active torsions:
REMARK  status: ('A' for Active; 'I' for Inactive)
REMARK    1  A    between atoms: C_1  and  C_2
REMARK    2  A    between atoms: C_2  and  C_3
REMARK    3  A    between atoms: C_2  and  C_4
REMARK    4  A    between atoms: C_4  and  O_5
REMARK    5  A    between atoms: O_5  and  C_6
REMARK    6  A    between atoms: C_11  and  C_12
REMARK    7  A    between atoms: N_14  and  C_15
REMARK    8  A    between atoms: C_15  and  N_17
REMARK    9  A    between atoms: N_17  and  N_18
REMARK   10  A    between atoms: C_19  and  C_21
REMARK   11  A    between atoms: C_25  and  N_27
REMARK                            x       y       z     vdW  Elec       q    Type
REMARK                         _______ _______ _______ _____ _____    ______ ____
ROOT
ATOM      1  C   UNL     1       6.651   1.700  -0.173  0.00  0.00    +0.153 C 
ATOM      2  S   UNL     1       5.672   2.161   1.154  0.00  0.00    -0.017 S 
ENDROOT
BRANCH   1   5
ATOM      3  C   UNL     1       4.812   0.660  -1.167  0.00  0.00    +0.253 C 
ATOM      4  O   UNL     1       4.117   0.987  -0.224  0.00  0.00    -0.270 OA
ATOM      5  N   UNL     1       6.116   0.999  -1.192  0.00  0.00    -0.263 N 
ATOM      6  H   UNL     1       6.670   0.737  -1.944  0.00  0.00    +0.157 HD
BRANCH   3  12
ATOM      7  C   UNL     1       2.872  -0.462  -2.259  0.00  0.00    +0.133 A 
ATOM      8  C   UNL     1       2.330  -1.179  -3.316  0.00  0.00    +0.047 A 
ATOM      9  C   UNL     1       3.126  -1.546  -4.383  0.00  0.00    +0.019 A 
ATOM     10  C   UNL     1       4.469  -1.203  -4.407  0.00  0.00    +0.019 A 
ATOM     11  C   UNL     1       5.024  -0.491  -3.365  0.00  0.00    +0.032 A 
ATOM     12  C   UNL     1       4.227  -0.108  -2.282  0.00  0.00    +0.080 A 
ATOM     13 BR   UNL     1       5.546  -1.715  -5.875  0.00  0.00    -0.050 Br
BRANCH   7  14
ATOM     14  O   UNL     1       2.090  -0.101  -1.210  0.00  0.00    -0.491 OA
BRANCH  14  15
ATOM     15  C   UNL     1       0.718  -0.497  -1.257  0.00  0.00    +0.232 C 
BRANCH  15  17
ATOM     16  C   UNL     1      -0.019   1.526   0.010  0.00  0.00    +0.010 C 
ATOM     17  C   UNL     1       0.002  -0.004   0.002  0.00  0.00    +0.020 C 
ATOM     18  C   UNL     1      -1.433  -0.534   0.013  0.00  0.00    +0.010 C 
ENDBRANCH  15  17
ENDBRANCH  14  15
ENDBRANCH   7  14
ENDBRANCH   3  12
ENDBRANCH   1   5
BRANCH   1  19
ATOM     19  N   UNL     1       7.955   2.039  -0.199  0.00  0.00    -0.245 N 
ATOM     20  H   UNL     1       8.339   2.544   0.535  0.00  0.00    +0.172 HD
BRANCH  19  21
ATOM     21  N   UNL     1       8.755   1.662  -1.285  0.00  0.00    -0.231 N 
ATOM     22  C   UNL     1      10.059   2.001  -1.311  0.00  0.00    +0.260 C 
ATOM     23  O   UNL     1      10.541   2.633  -0.392  0.00  0.00    -0.269 OA
ATOM     24  H   UNL     1       8.371   1.157  -2.019  0.00  0.00    +0.173 HD
BRANCH  22  25
ATOM     25  C   UNL     1      10.904   1.603  -2.457  0.00  0.00    +0.040 A 
ATOM     26  C   UNL     1      10.352   0.881  -3.517  0.00  0.00    +0.013 A 
ATOM     27  C   UNL     1      11.146   0.513  -4.584  0.00  0.00    +0.003 A 
ATOM     28  C   UNL     1      12.486   0.857  -4.604  0.00  0.00    +0.033 A 
ATOM     29  C   UNL     1      13.039   1.572  -3.557  0.00  0.00    +0.127 A 
ATOM     30  C   UNL     1      12.255   1.952  -2.487  0.00  0.00    +0.045 A 
BRANCH  29  31
ATOM     31  N   UNL     1      14.473   1.937  -3.587  0.00  0.00    +0.056 N 
ATOM     32  O   UNL     1      15.160   1.609  -4.527  0.00  0.00    -0.126 OA
ATOM     33  O   UNL     1      14.958   2.561  -2.673  0.00  0.00    -0.126 OA
ENDBRANCH  29  31
ENDBRANCH  22  25
ENDBRANCH  19  21
ENDBRANCH   1  19
TORSDOF 9
