REMARK  Name = ZINC63108666
REMARK  6 active torsions:
REMARK  status: ('A' for Active; 'I' for Inactive)
REMARK    1  A    between atoms: C_7  and  C_10
REMARK    2  A    between atoms: C_10  and  C_11
REMARK    3  A    between atoms: C_11  and  N_12
REMARK    4  A    between atoms: C_13  and  C_15
REMARK    5  A    between atoms: C_16  and  S_20
REMARK    6  A    between atoms: S_20  and  N_23
REMARK                            x       y       z     vdW  Elec       q    Type
REMARK                         _______ _______ _______ _____ _____    ______ ____
ROOT
ATOM      1  N   UNL     1      -0.222  -4.970  -1.473  0.00  0.00    -0.311 N 
ATOM      2  C   UNL     1      -0.650  -5.502  -2.636  0.00  0.00    +0.253 C 
ATOM      3  O   UNL     1      -0.227  -5.073  -3.693  0.00  0.00    -0.270 OA
ATOM      4  H   UNL     1      -0.559  -5.312  -0.631  0.00  0.00    +0.149 HD
ENDROOT
BRANCH   2   5
ATOM      5  C   UNL     1      -1.625  -6.596  -2.626  0.00  0.00    +0.100 A 
ATOM      6  C   UNL     1      -2.247  -7.221  -3.696  0.00  0.00    +0.125 A 
ATOM      7  C   UNL     1      -3.125  -8.227  -3.370  0.00  0.00    +0.037 A 
ATOM      8  C   UNL     1      -3.321  -8.534  -2.064  0.00  0.00    +0.048 A 
ATOM      9  S   UNL     1      -2.315  -7.474  -1.237  0.00  0.00    -0.090 S 
BRANCH   6  10
ATOM     10  S   UNL     1      -1.933  -6.756  -5.366  0.00  0.00    +0.062 S 
ATOM     11  O   UNL     1      -2.710  -5.593  -5.617  0.00  0.00    -0.153 OA
ATOM     12  O   UNL     1      -0.522  -6.780  -5.535  0.00  0.00    -0.153 OA
BRANCH  10  13
ATOM     13  N   UNL     1      -2.546  -7.953  -6.332  0.00  0.00    -0.177 NA
ATOM     14  C   UNL     1      -1.763  -9.164  -6.612  0.00  0.00    +0.109 C 
ATOM     15  C   UNL     1      -2.607 -10.391  -6.255  0.00  0.00    +0.017 C 
ATOM     16  C   UNL     1      -3.943 -10.320  -6.999  0.00  0.00    +0.003 C 
ATOM     17  C   UNL     1      -4.705  -9.066  -6.564  0.00  0.00    +0.017 C 
ATOM     18  C   UNL     1      -3.887  -7.827  -6.920  0.00  0.00    +0.109 C 
ENDBRANCH  10  13
ENDBRANCH   6  10
ENDBRANCH   2   5
BRANCH   1  19
ATOM     19  C   UNL     1       0.753  -3.877  -1.483  0.00  0.00    +0.109 C 
BRANCH  19  20
ATOM     20  C   UNL     1       1.067  -3.461  -0.044  0.00  0.00    +0.052 C 
BRANCH  20  27
ATOM     21  C   UNL     1       0.610   1.102   0.130  0.00  0.00    +0.001 A 
ATOM     22  C   UNL     1       1.830   1.790   0.094  0.00  0.00    +0.002 A 
ATOM     23  C   UNL     1       3.021   1.161   0.017  0.00  0.00    +0.026 A 
ATOM     24  C   UNL     1       3.081  -0.260  -0.033  0.00  0.00    +0.043 A 
ATOM     25  N   UNL     1       4.094  -1.088  -0.110  0.00  0.00    -0.380 N 
ATOM     26  C   UNL     1       3.575  -2.461  -0.131  0.00  0.00    +0.144 C 
ATOM     27  C   UNL     1       2.070  -2.336  -0.054  0.00  0.00    -0.040 C 
ATOM     28  C   UNL     1       1.806  -1.011   0.003  0.00  0.00    -0.001 A 
ATOM     29  C   UNL     1       0.554  -0.249   0.088  0.00  0.00    +0.010 A 
ATOM     30  H   UNL     1       5.030  -0.836  -0.147  0.00  0.00    +0.160 HD
ENDBRANCH  20  27
ENDBRANCH  19  20
ENDBRANCH   1  19
TORSDOF 6
