REMARK  Name = ZINC59310928
REMARK  11 active torsions:
REMARK  status: ('A' for Active; 'I' for Inactive)
REMARK    1  A    between atoms: C_1  and  C_2
REMARK    2  A    between atoms: C_2  and  C_3
REMARK    3  A    between atoms: C_2  and  C_4
REMARK    4  A    between atoms: C_4  and  S_5
REMARK    5  A    between atoms: S_5  and  C_6
REMARK    6  A    between atoms: C_12  and  C_14
REMARK    7  A    between atoms: C_14  and  S_15
REMARK    8  A    between atoms: S_15  and  C_16
REMARK    9  A    between atoms: N_21  and  N_22
REMARK   10  A    between atoms: C_23  and  C_24
REMARK   11  A    between atoms: N_27  and  C_29
REMARK                            x       y       z     vdW  Elec       q    Type
REMARK                         _______ _______ _______ _____ _____    ______ ____
ROOT
ATOM      1  S   UNL     1     -10.629  -3.503   0.113  0.00  0.00    -0.075 S 
ENDROOT
BRANCH   1   2
ATOM      2  C   UNL     1     -12.049  -4.546   0.083  0.00  0.00    +0.211 A 
ATOM      3  N   UNL     1     -13.319  -4.132   0.160  0.00  0.00    -0.186 NA
ATOM      4  C   UNL     1     -14.127  -5.170   0.108  0.00  0.00    +0.232 A 
ATOM      5  N   UNL     1     -13.370  -6.282  -0.005  0.00  0.00    -0.245 N 
ATOM      6  N   UNL     1     -12.033  -5.853  -0.025  0.00  0.00    -0.144 NA
ATOM      7  N   UNL     1     -15.508  -5.128   0.160  0.00  0.00    -0.205 N 
ATOM      8  H   UNL     1     -16.020  -5.951   0.115  0.00  0.00    +0.177 HD
ATOM      9  H   UNL     1     -13.687  -7.197  -0.065  0.00  0.00    +0.192 HD
BRANCH   7  10
ATOM     10  N   UNL     1     -16.167  -3.898   0.279  0.00  0.00    -0.187 NA
ATOM     11  C   UNL     1     -17.463  -3.859   0.328  0.00  0.00    +0.141 C 
BRANCH  11  12
ATOM     12  C   UNL     1     -18.158  -2.562   0.453  0.00  0.00    +0.032 A 
ATOM     13  C   UNL     1     -17.551  -1.290   0.523  0.00  0.00    +0.143 A 
ATOM     14  N   UNL     1     -18.495  -0.394   0.627  0.00  0.00    -0.179 NA
ATOM     15  N   UNL     1     -19.735  -1.043   0.628  0.00  0.00    -0.274 N 
ATOM     16  C   UNL     1     -19.521  -2.369   0.516  0.00  0.00    +0.117 A 
ATOM     17  C   UNL     1     -21.043  -0.391   0.730  0.00  0.00    +0.172 C 
ENDBRANCH  11  12
ENDBRANCH   7  10
ENDBRANCH   1   2
BRANCH   1  18
ATOM     18  C   UNL     1      -9.236  -4.656  -0.035  0.00  0.00    +0.173 C 
BRANCH  18  25
ATOM     19  C   UNL     1      -3.116  -2.791  -0.118  0.00  0.00    +0.160 A 
ATOM     20  N   UNL     1      -4.196  -2.031  -0.014  0.00  0.00    -0.133 NA
ATOM     21  N   UNL     1      -5.358  -2.521  -0.009  0.00  0.00    -0.125 NA
ATOM     22  C   UNL     1      -5.571  -3.823  -0.108  0.00  0.00    +0.189 A 
ATOM     23  S   UNL     1      -3.882  -4.405  -0.228  0.00  0.00    -0.024 S 
ATOM     24  N   UNL     1      -6.766  -4.536  -0.120  0.00  0.00    -0.263 N 
ATOM     25  C   UNL     1      -7.942  -3.884  -0.022  0.00  0.00    +0.229 C 
ATOM     26  O   UNL     1      -7.958  -2.675   0.078  0.00  0.00    -0.275 OA
ATOM     27  H   UNL     1      -6.754  -5.503  -0.199  0.00  0.00    +0.157 HD
BRANCH  19  28
ATOM     28  S   UNL     1      -1.412  -2.341  -0.146  0.00  0.00    -0.097 S 
BRANCH  28  29
ATOM     29  C   UNL     1      -1.433  -0.534   0.013  0.00  0.00    +0.079 C 
BRANCH  29  31
ATOM     30  C   UNL     1      -0.019   1.526   0.010  0.00  0.00    +0.008 C 
ATOM     31  C   UNL     1       0.002  -0.004   0.002  0.00  0.00    -0.007 C 
ATOM     32  C   UNL     1       0.742  -0.511   1.242  0.00  0.00    +0.008 C 
ENDBRANCH  29  31
ENDBRANCH  28  29
ENDBRANCH  19  28
ENDBRANCH  18  25
ENDBRANCH   1  18
TORSDOF 8
