REMARK  Name = ZINC58490466
REMARK  8 active torsions:
REMARK  status: ('A' for Active; 'I' for Inactive)
REMARK    1  A    between atoms: C_1  and  C_2
REMARK    2  A    between atoms: C_2  and  C_4
REMARK    3  A    between atoms: C_7  and  N_10
REMARK    4  A    between atoms: C_11  and  C_13
REMARK    5  A    between atoms: C_13  and  C_14
REMARK    6  A    between atoms: C_14  and  N_15
REMARK    7  A    between atoms: C_18  and  C_22
REMARK    8  A    between atoms: C_18  and  C_23
REMARK                            x       y       z     vdW  Elec       q    Type
REMARK                         _______ _______ _______ _____ _____    ______ ____
ROOT
ATOM      1  N   UNL     1      -7.038  -7.293  -0.379  0.00  0.00    -0.224 N 
ATOM      2  C   UNL     1      -7.741  -7.752   0.675  0.00  0.00    +0.251 C 
ATOM      3  O   UNL     1      -7.439  -7.675   1.847  0.00  0.00    -0.272 OA
ATOM      4  C   UNL     1      -8.989  -8.385   0.091  0.00  0.00    +0.136 C 
ATOM      5  N   UNL     1      -8.828  -8.190  -1.361  0.00  0.00    -0.281 N 
ATOM      6  C   UNL     1      -7.664  -7.540  -1.535  0.00  0.00    +0.310 C 
ATOM      7  O   UNL     1      -7.227  -7.217  -2.622  0.00  0.00    -0.252 OA
ATOM      8  C   UNL     1      -9.046  -9.876   0.431  0.00  0.00    +0.047 C 
ATOM      9  H   UNL     1      -9.444  -8.473  -2.055  0.00  0.00    +0.152 HD
ENDROOT
BRANCH   4  10
ATOM     10  C   UNL     1     -10.224  -7.679   0.587  0.00  0.00    -0.008 A 
ATOM     11  C   UNL     1     -11.042  -7.033  -0.289  0.00  0.00    +0.007 A 
ATOM     12  C   UNL     1     -12.188  -6.375   0.152  0.00  0.00    +0.001 A 
ATOM     13  C   UNL     1     -12.523  -6.357   1.471  0.00  0.00    +0.008 A 
ATOM     14  C   UNL     1     -11.703  -7.013   2.405  0.00  0.00    -0.018 A 
ATOM     15  C   UNL     1     -10.540  -7.688   1.956  0.00  0.00    -0.012 A 
ATOM     16  C   UNL     1      -9.723  -8.348   2.890  0.00  0.00    +0.009 A 
ATOM     17  C   UNL     1     -10.061  -8.336   4.208  0.00  0.00    +0.001 A 
ATOM     18  C   UNL     1     -11.208  -7.678   4.649  0.00  0.00    +0.001 A 
ATOM     19  C   UNL     1     -12.016  -7.016   3.775  0.00  0.00    +0.008 A 
ENDBRANCH   4  10
BRANCH   1  20
ATOM     20  C   UNL     1      -5.751  -6.602  -0.271  0.00  0.00    +0.127 C 
BRANCH  20  21
ATOM     21  C   UNL     1      -5.989  -5.097  -0.133  0.00  0.00    +0.115 C 
BRANCH  21  23
ATOM     22  N   UNL     1      -4.629  -3.045   0.109  0.00  0.00    -0.285 N 
ATOM     23  C   UNL     1      -4.665  -4.386  -0.022  0.00  0.00    +0.219 C 
ATOM     24  O   UNL     1      -3.632  -5.021  -0.051  0.00  0.00    -0.275 OA
ATOM     25  H   UNL     1      -5.454  -2.545   0.205  0.00  0.00    +0.155 HD
BRANCH  22  29
ATOM     26  C   UNL     1      -0.977  -1.053   0.100  0.00  0.00    +0.017 A 
ATOM     27  C   UNL     1      -1.151  -2.203  -0.679  0.00  0.00    +0.013 A 
ATOM     28  C   UNL     1      -2.356  -2.857  -0.673  0.00  0.00    +0.024 A 
ATOM     29  C   UNL     1      -3.406  -2.378   0.106  0.00  0.00    +0.033 A 
ATOM     30  C   UNL     1      -3.237  -1.234   0.882  0.00  0.00    +0.024 A 
ATOM     31  C   UNL     1      -2.034  -0.578   0.886  0.00  0.00    +0.013 A 
BRANCH  26  33
ATOM     32  C   UNL     1       1.449  -0.863  -0.750  0.00  0.00    +0.091 C 
ATOM     33  C   UNL     1       0.313  -0.350   0.097  0.00  0.00    +0.160 C 
ATOM     34  O   UNL     1       0.463   0.644   0.777  0.00  0.00    -0.292 OA
ENDBRANCH  26  33
ENDBRANCH  22  29
ENDBRANCH  21  23
ENDBRANCH  20  21
ENDBRANCH   1  20
TORSDOF 6
