REMARK  Name = ZINC31384644
REMARK  12 active torsions:
REMARK  status: ('A' for Active; 'I' for Inactive)
REMARK    1  A    between atoms: C_1  and  C_2
REMARK    2  A    between atoms: C_2  and  C_3
REMARK    3  A    between atoms: C_3  and  C_4
REMARK    4  A    between atoms: C_3  and  C_5
REMARK    5  A    between atoms: C_3  and  C_6
REMARK    6  A    between atoms: N_14  and  C_18
REMARK    7  A    between atoms: C_18  and  C_19
REMARK    8  A    between atoms: N_21  and  C_22
REMARK    9  A    between atoms: C_22  and  C_24
REMARK   10  A    between atoms: C_22  and  C_25
REMARK   11  A    between atoms: C_25  and  C_26
REMARK   12  A    between atoms: C_25  and  C_32
REMARK                            x       y       z     vdW  Elec       q    Type
REMARK                         _______ _______ _______ _____ _____    ______ ____
ROOT
ATOM      1  C   UNL     1      -2.425  -8.748  -1.829  0.00  0.00    +0.213 C 
ENDROOT
BRANCH   1  10
ATOM      2  C   UNL     1       0.245  -4.934   2.889  0.00  0.00    -0.005 C 
ATOM      3  C   UNL     1       0.821  -4.967   1.472  0.00  0.00    +0.006 C 
ATOM      4  C   UNL     1       0.574  -6.346   0.854  0.00  0.00    +0.035 C 
ATOM      5  C   UNL     1      -0.923  -6.630   0.819  0.00  0.00    +0.113 C 
ATOM      6  C   UNL     1      -1.516  -6.576   2.223  0.00  0.00    +0.035 C 
ATOM      7  C   UNL     1      -1.261  -5.197   2.835  0.00  0.00    +0.006 C 
ATOM      8  C   UNL     1      -1.189  -7.977   0.187  0.00  0.00    +0.247 C 
ATOM      9  O   UNL     1      -0.812  -9.060   0.580  0.00  0.00    -0.273 OA
ATOM     10  N   UNL     1      -1.935  -7.721  -0.908  0.00  0.00    -0.215 N 
ATOM     11  C   UNL     1      -2.171  -6.410  -1.047  0.00  0.00    +0.310 C 
ATOM     12  O   UNL     1      -2.820  -5.934  -1.958  0.00  0.00    -0.252 OA
ATOM     13  N   UNL     1      -1.608  -5.679  -0.066  0.00  0.00    -0.285 N 
ATOM     14  H   UNL     1      -1.581  -4.603   0.157  0.00  0.00    +0.151 HD
BRANCH   2  15
ATOM     15  C   UNL     1       0.502  -3.561   3.512  0.00  0.00    -0.032 C 
ATOM     16  C   UNL     1      -0.072  -3.528   4.930  0.00  0.00    +0.011 C 
ATOM     17  C   UNL     1      -0.173  -2.482   2.663  0.00  0.00    +0.011 C 
BRANCH  15  19
ATOM     18  C   UNL     1       2.265  -1.925   4.189  0.00  0.00    +0.004 C 
ATOM     19  C   UNL     1       2.008  -3.299   3.566  0.00  0.00    +0.003 C 
ENDBRANCH  15  19
ENDBRANCH   2  15
ENDBRANCH   1  10
BRANCH   1  20
ATOM     20  C   UNL     1      -3.777  -9.231  -1.370  0.00  0.00    +0.231 C 
ATOM     21  O   UNL     1      -4.281  -8.763  -0.371  0.00  0.00    -0.274 OA
ATOM     22  N   UNL     1      -4.426 -10.183  -2.069  0.00  0.00    -0.311 N 
ATOM     23  H   UNL     1      -3.969 -10.608  -2.975  0.00  0.00    +0.149 HD
BRANCH  22  24
ATOM     24  C   UNL     1      -5.740 -10.652  -1.623  0.00  0.00    +0.082 C 
ATOM     25  C   UNL     1      -5.560 -11.752  -0.574  0.00  0.00    +0.029 C 
BRANCH  24  26
ATOM     26  C   UNL     1      -6.516 -11.210  -2.818  0.00  0.00    +0.069 C 
BRANCH  26  27
ATOM     27  C   UNL     1      -7.867 -11.692  -2.358  0.00  0.00    -0.038 A 
ATOM     28  C   UNL     1      -8.289 -12.970  -2.675  0.00  0.00    +0.004 A 
ATOM     29  C   UNL     1      -9.527 -13.415  -2.250  0.00  0.00    +0.000 A 
ATOM     30  C   UNL     1     -10.348 -12.578  -1.516  0.00  0.00    +0.000 A 
ATOM     31  C   UNL     1      -9.928 -11.298  -1.204  0.00  0.00    +0.000 A 
ATOM     32  C   UNL     1      -8.688 -10.855  -1.625  0.00  0.00    +0.004 A 
ENDBRANCH  26  27
BRANCH  26  33
ATOM     33  C   UNL     1      -6.694 -10.127  -3.850  0.00  0.00    -0.038 A 
ATOM     34  C   UNL     1      -7.227  -8.905  -3.486  0.00  0.00    +0.004 A 
ATOM     35  C   UNL     1      -7.386  -7.909  -4.432  0.00  0.00    +0.000 A 
ATOM     36  C   UNL     1      -7.020  -8.140  -5.745  0.00  0.00    +0.000 A 
ATOM     37  C   UNL     1      -6.492  -9.364  -6.111  0.00  0.00    +0.000 A 
ATOM     38  C   UNL     1      -6.328 -10.357  -5.164  0.00  0.00    +0.004 A 
ENDBRANCH  26  33
ENDBRANCH  24  26
ENDBRANCH  22  24
ENDBRANCH   1  20
TORSDOF 8
