REMARK  Name = ZINC55996328
REMARK  6 active torsions:
REMARK  status: ('A' for Active; 'I' for Inactive)
REMARK    1  A    between atoms: C_1  and  C_2
REMARK    2  A    between atoms: N_8  and  C_9
REMARK    3  A    between atoms: C_9  and  C_10
REMARK    4  A    between atoms: C_15  and  C_16
REMARK    5  A    between atoms: C_16  and  N_17
REMARK    6  A    between atoms: C_18  and  C_20
REMARK                            x       y       z     vdW  Elec       q    Type
REMARK                         _______ _______ _______ _____ _____    ______ ____
ROOT
ATOM      1  C   UNL     1       3.281  -2.538   1.215  0.00  0.00    +0.140 C 
ENDROOT
BRANCH   1   7
ATOM      2  C   UNL     1       2.527  -0.328   2.116  0.00  0.00    -0.059 A 
ATOM      3  C   UNL     1       2.426   0.595   3.141  0.00  0.00    +0.002 A 
ATOM      4  C   UNL     1       2.980   0.319   4.377  0.00  0.00    +0.000 A 
ATOM      5  C   UNL     1       3.635  -0.880   4.588  0.00  0.00    +0.000 A 
ATOM      6  C   UNL     1       3.735  -1.804   3.565  0.00  0.00    +0.005 A 
ATOM      7  C   UNL     1       3.176  -1.529   2.330  0.00  0.00    -0.029 A 
BRANCH   2   8
ATOM      8  C   UNL     1       1.923  -0.027   0.769  0.00  0.00    -0.042 C 
BRANCH   8  15
ATOM      9  C   UNL     1       1.771  -0.650  -1.965  0.00  0.00    -0.013 C 
ATOM     10  C   UNL     1       2.400   0.657  -1.478  0.00  0.00    -0.071 C 
ATOM     11  C   UNL     1       3.505   1.083  -2.447  0.00  0.00    -0.016 C 
ATOM     12  C   UNL     1       4.131   2.392  -1.956  0.00  0.00    -0.003 C 
ATOM     13  C   UNL     1       4.655   2.192  -0.531  0.00  0.00    -0.019 C 
ATOM     14  C   UNL     1       3.508   1.725   0.367  0.00  0.00    -0.078 C 
ATOM     15  N   UNL     1       2.970   0.457  -0.140  0.00  0.00    +0.384 N 
ATOM     16  H   UNL     1       3.711  -0.226  -0.190  0.00  0.00    -0.081 HD
ENDBRANCH   8  15
ENDBRANCH   2   8
ENDBRANCH   1   7
BRANCH   1  17
ATOM     17  N   UNL     1       4.392  -2.176   0.331  0.00  0.00    -0.306 N 
ATOM     18  C   UNL     1       4.610  -2.878  -0.799  0.00  0.00    +0.261 C 
ATOM     19  O   UNL     1       3.885  -3.810  -1.084  0.00  0.00    -0.269 OA
ATOM     20  H   UNL     1       4.970  -1.432   0.559  0.00  0.00    +0.149 HD
BRANCH  18  21
ATOM     21  C   UNL     1       5.735  -2.511  -1.693  0.00  0.00    +0.106 A 
ATOM     22  C   UNL     1       6.533  -1.469  -1.349  0.00  0.00    +0.082 A 
ATOM     23  C   UNL     1       7.617  -1.099  -2.189  0.00  0.00    +0.190 A 
ATOM     24  O   UNL     1       8.347  -0.167  -1.900  0.00  0.00    -0.287 OA
ATOM     25  C   UNL     1       7.830  -1.877  -3.421  0.00  0.00    +0.045 A 
ATOM     26  C   UNL     1       8.873  -1.577  -4.298  0.00  0.00    +0.014 A 
ATOM     27  C   UNL     1       9.040  -2.323  -5.431  0.00  0.00    +0.001 A 
ATOM     28  C   UNL     1       8.180  -3.376  -5.717  0.00  0.00    +0.002 A 
ATOM     29  C   UNL     1       7.145  -3.689  -4.865  0.00  0.00    +0.026 A 
ATOM     30  C   UNL     1       6.956  -2.944  -3.704  0.00  0.00    +0.051 A 
ATOM     31  N   UNL     1       5.935  -3.237  -2.831  0.00  0.00    -0.350 N 
ATOM     32  H   UNL     1       5.339  -3.976  -3.032  0.00  0.00    +0.166 HD
ENDBRANCH  18  21
ENDBRANCH   1  17
TORSDOF 5
