REMARK  Name = ZINC02647594
REMARK  6 active torsions:
REMARK  status: ('A' for Active; 'I' for Inactive)
REMARK    1  A    between atoms: C_1  and  C_2
REMARK    2  A    between atoms: C_12  and  C_14
REMARK    3  A    between atoms: C_14  and  N_15
REMARK    4  A    between atoms: C_18  and  C_22
REMARK    5  A    between atoms: C_18  and  C_29
REMARK    6  A    between atoms: C_22  and  C_23
REMARK                            x       y       z     vdW  Elec       q    Type
REMARK                         _______ _______ _______ _____ _____    ______ ____
ROOT
ATOM      1  N   UNL     1      -0.923   4.648  -3.154  0.00  0.00    -0.215 N 
ATOM      2  C   UNL     1      -1.347   5.405  -2.123  0.00  0.00    +0.252 C 
ATOM      3  O   UNL     1      -2.494   5.665  -1.828  0.00  0.00    -0.272 OA
ATOM      4  C   UNL     1      -0.091   5.865  -1.409  0.00  0.00    +0.142 C 
ATOM      5  N   UNL     1       0.999   5.259  -2.193  0.00  0.00    -0.281 N 
ATOM      6  C   UNL     1       0.412   4.566  -3.190  0.00  0.00    +0.310 C 
ATOM      7  O   UNL     1       1.028   3.939  -4.029  0.00  0.00    -0.252 OA
ATOM      8  H   UNL     1       1.950   5.343  -2.024  0.00  0.00    +0.152 HD
ENDROOT
BRANCH   4   9
ATOM      9  C   UNL     1       0.011   7.368  -1.431  0.00  0.00    -0.015 A 
ATOM     10  C   UNL     1      -0.502   8.112  -0.385  0.00  0.00    +0.006 A 
ATOM     11  C   UNL     1      -0.404   9.490  -0.403  0.00  0.00    +0.000 A 
ATOM     12  C   UNL     1       0.199  10.126  -1.473  0.00  0.00    +0.000 A 
ATOM     13  C   UNL     1       0.707   9.383  -2.522  0.00  0.00    +0.000 A 
ATOM     14  C   UNL     1       0.613   8.004  -2.501  0.00  0.00    +0.006 A 
ENDBRANCH   4   9
BRANCH   1  15
ATOM     15  C   UNL     1      -1.814   3.995  -4.117  0.00  0.00    +0.214 C 
BRANCH  15  26
ATOM     16  C   UNL     1      -3.909   6.631  -7.040  0.00  0.00    +0.029 C 
ATOM     17  C   UNL     1      -3.190   5.349  -7.464  0.00  0.00    +0.083 C 
ATOM     18  C   UNL     1      -4.121   4.472  -8.317  0.00  0.00    +0.059 C 
ATOM     19  C   UNL     1      -4.259   3.187  -7.532  0.00  0.00    -0.024 A 
ATOM     20  C   UNL     1      -4.969   2.033  -7.801  0.00  0.00    +0.005 A 
ATOM     21  C   UNL     1      -4.936   0.974  -6.913  0.00  0.00    +0.000 A 
ATOM     22  C   UNL     1      -4.190   1.072  -5.753  0.00  0.00    +0.002 A 
ATOM     23  C   UNL     1      -3.480   2.222  -5.481  0.00  0.00    +0.024 A 
ATOM     24  C   UNL     1      -3.503   3.293  -6.376  0.00  0.00    +0.040 A 
ATOM     25  N   UNL     1      -2.867   4.535  -6.288  0.00  0.00    -0.267 N 
ATOM     26  C   UNL     1      -2.070   4.926  -5.274  0.00  0.00    +0.238 C 
ATOM     27  O   UNL     1      -1.559   6.025  -5.293  0.00  0.00    -0.273 OA
ENDBRANCH  15  26
ENDBRANCH   1  15
BRANCH   4  28
ATOM     28  C   UNL     1      -0.070   5.347   0.031  0.00  0.00    +0.075 C 
BRANCH  28  29
ATOM     29  C   UNL     1      -0.050   3.840   0.023  0.00  0.00    -0.045 A 
ATOM     30  C   UNL     1       1.156   3.165   0.008  0.00  0.00    +0.004 A 
ATOM     31  C   UNL     1       1.175   1.783   0.000  0.00  0.00    +0.000 A 
ATOM     32  C   UNL     1      -0.013   1.076   0.008  0.00  0.00    +0.000 A 
ATOM     33  C   UNL     1      -1.219   1.751   0.017  0.00  0.00    +0.000 A 
ATOM     34  C   UNL     1      -1.238   3.133   0.030  0.00  0.00    +0.004 A 
ENDBRANCH  28  29
ENDBRANCH   4  28
TORSDOF 5
