REMARK  Name = ZINC24890352
REMARK  9 active torsions:
REMARK  status: ('A' for Active; 'I' for Inactive)
REMARK    1  A    between atoms: C_1  and  C_2
REMARK    2  A    between atoms: C_5  and  S_8
REMARK    3  A    between atoms: S_8  and  N_11
REMARK    4  A    between atoms: N_11  and  C_12
REMARK    5  A    between atoms: C_12  and  C_14
REMARK    6  A    between atoms: C_12  and  C_15
REMARK    7  A    between atoms: N_17  and  C_18
REMARK    8  A    between atoms: C_18  and  C_19
REMARK    9  A    between atoms: C_22  and  C_24
REMARK                            x       y       z     vdW  Elec       q    Type
REMARK                         _______ _______ _______ _____ _____    ______ ____
ROOT
ATOM      1  C   UNL     1       5.152  11.322   1.643  0.00  0.00    +0.232 C 
ATOM      2  O   UNL     1       5.741  11.840   0.718  0.00  0.00    -0.274 OA
ATOM      3  N   UNL     1       4.144  10.460   1.401  0.00  0.00    -0.307 N 
ATOM      4  H   UNL     1       3.610   9.990   2.240  0.00  0.00    +0.149 HD
ENDROOT
BRANCH   1   5
ATOM      5  C   UNL     1       5.547  11.641   3.062  0.00  0.00    +0.159 C 
ATOM      6  C   UNL     1       4.354  12.253   3.798  0.00  0.00    +0.035 C 
BRANCH   5   7
ATOM      7  N   UNL     1       6.659  12.595   3.056  0.00  0.00    -0.178 NA
ATOM      8  H   UNL     1       6.806  13.263   2.195  0.00  0.00    +0.149 HD
BRANCH   7   9
ATOM      9  S   UNL     1       7.835  12.503   4.219  0.00  0.00    +0.059 S 
ATOM     10  O   UNL     1       8.772  13.531   3.930  0.00  0.00    -0.153 OA
ATOM     11  O   UNL     1       7.164  12.413   5.468  0.00  0.00    -0.153 OA
BRANCH   9  16
ATOM     12  C   UNL     1      10.722   7.264   3.429  0.00  0.00    +0.044 C 
ATOM     13  C   UNL     1      10.001   8.572   3.627  0.00  0.00    -0.050 A 
ATOM     14  C   UNL     1      10.443   9.710   2.977  0.00  0.00    +0.005 A 
ATOM     15  C   UNL     1       9.781  10.910   3.158  0.00  0.00    +0.029 A 
ATOM     16  C   UNL     1       8.678  10.973   3.988  0.00  0.00    +0.105 A 
ATOM     17  C   UNL     1       8.238   9.837   4.641  0.00  0.00    +0.029 A 
ATOM     18  C   UNL     1       8.897   8.635   4.457  0.00  0.00    +0.005 A 
ENDBRANCH   9  16
ENDBRANCH   7   9
ENDBRANCH   5   7
ENDBRANCH   1   5
BRANCH   3  19
ATOM     19  C   UNL     1       3.760  10.150   0.022  0.00  0.00    +0.178 C 
BRANCH  19  20
ATOM     20  C   UNL     1       2.616   9.168   0.028  0.00  0.00    +0.123 A 
ATOM     21  C   UNL     1       1.306   9.489   0.043  0.00  0.00    +0.047 A 
ATOM     22  C   UNL     1       0.585   8.281   0.043  0.00  0.00    +0.052 A 
ATOM     23  C   UNL     1       1.505   7.275   0.028  0.00  0.00    +0.160 A 
ATOM     24  O   UNL     1       2.733   7.832   0.025  0.00  0.00    -0.456 OA
BRANCH  23  25
ATOM     25  C   UNL     1       1.210   5.835   0.023  0.00  0.00    +0.144 A 
ATOM     26  N   UNL     1       0.039   5.231   0.031  0.00  0.00    -0.236 NA
ATOM     27  C   UNL     1      -0.083   3.889   0.024  0.00  0.00    +0.079 A 
ATOM     28  C   UNL     1      -1.270   3.119   0.031  0.00  0.00    +0.029 A 
ATOM     29  C   UNL     1      -1.220   1.760   0.017  0.00  0.00    +0.002 A 
ATOM     30  C   UNL     1      -0.013   1.076   0.008  0.00  0.00    +0.001 A 
ATOM     31  C   UNL     1       1.171   1.790   0.001  0.00  0.00    +0.017 A 
ATOM     32  C   UNL     1       1.132   3.163   0.008  0.00  0.00    +0.040 A 
ATOM     33  S   UNL     1       2.348   4.457   0.005  0.00  0.00    -0.064 S 
ENDBRANCH  23  25
ENDBRANCH  19  20
ENDBRANCH   3  19
TORSDOF 7
