REMARK  Name = ZINC03243668
REMARK  11 active torsions:
REMARK  status: ('A' for Active; 'I' for Inactive)
REMARK    1  A    between atoms: C_1  and  C_2
REMARK    2  A    between atoms: C_5  and  N_18
REMARK    3  A    between atoms: C_9  and  O_16
REMARK    4  A    between atoms: C_11  and  O_14
REMARK    5  A    between atoms: O_14  and  C_15
REMARK    6  A    between atoms: O_16  and  C_17
REMARK    7  A    between atoms: N_18  and  C_19
REMARK    8  A    between atoms: C_22  and  O_27
REMARK    9  A    between atoms: C_24  and  O_25
REMARK   10  A    between atoms: O_25  and  C_26
REMARK   11  A    between atoms: O_27  and  C_28
REMARK                            x       y       z     vdW  Elec       q    Type
REMARK                         _______ _______ _______ _____ _____    ______ ____
ROOT
ATOM      1  C   UNL     1      -6.071   2.234  -1.029  0.00  0.00    +0.028 C 
ATOM      2  C   UNL     1      -4.952   1.510  -0.278  0.00  0.00    +0.069 C 
ATOM      3  C   UNL     1      -3.608   2.186  -0.579  0.00  0.00    +0.049 C 
ATOM      4  C   UNL     1      -2.499   1.319   0.021  0.00  0.00    +0.104 C 
ATOM      5  C   UNL     1      -2.857   0.943   1.437  0.00  0.00    +0.001 A 
ATOM      6  C   UNL     1      -1.852   0.445   2.254  0.00  0.00    +0.053 A 
ATOM      7  C   UNL     1      -2.124   0.079   3.561  0.00  0.00    +0.124 A 
ATOM      8  C   UNL     1      -3.412   0.210   4.060  0.00  0.00    +0.093 A 
ATOM      9  C   UNL     1      -4.415   0.708   3.251  0.00  0.00    +0.145 A 
ATOM     10  C   UNL     1      -4.141   1.081   1.929  0.00  0.00    +0.075 A 
ATOM     11  N   UNL     1      -5.200   1.583   1.163  0.00  0.00    -0.338 N 
ATOM     12  H   UNL     1      -5.433   2.525   1.443  0.00  0.00    +0.146 HD
ENDROOT
BRANCH   9  13
ATOM     13  O   UNL     1      -5.678   0.837   3.741  0.00  0.00    -0.493 OA
ATOM     14  C   UNL     1      -5.891   0.439   5.096  0.00  0.00    +0.277 C 
ENDBRANCH   9  13
BRANCH   7  15
ATOM     15  O   UNL     1      -1.132  -0.408   4.353  0.00  0.00    -0.495 OA
ATOM     16  C   UNL     1      -1.487  -0.765   5.691  0.00  0.00    +0.277 C 
ENDBRANCH   7  15
BRANCH   4  17
ATOM     17  N   UNL     1      -1.240   2.068   0.019  0.00  0.00    -0.334 N 
ATOM     18  H   UNL     1      -1.253   3.038   0.025  0.00  0.00    +0.147 HD
BRANCH  17  19
ATOM     19  C   UNL     1      -0.017   1.383   0.010  0.00  0.00    +0.070 A 
ATOM     20  C   UNL     1       0.002  -0.004   0.002  0.00  0.00    +0.030 A 
ATOM     21  C   UNL     1       1.208  -0.679  -0.014  0.00  0.00    +0.047 A 
ATOM     22  C   UNL     1       2.401   0.027  -0.021  0.00  0.00    +0.124 A 
ATOM     23  C   UNL     1       2.387   1.414  -0.013  0.00  0.00    +0.093 A 
ATOM     24  C   UNL     1       1.181   2.094   0.002  0.00  0.00    +0.144 A 
BRANCH  24  25
ATOM     25  O   UNL     1       1.165   3.454   0.009  0.00  0.00    -0.493 OA
ATOM     26  C   UNL     1       2.431   4.117   0.001  0.00  0.00    +0.277 C 
ENDBRANCH  24  25
BRANCH  22  27
ATOM     27  O   UNL     1       3.586  -0.640  -0.036  0.00  0.00    -0.495 OA
ATOM     28  C   UNL     1       3.526  -2.068  -0.043  0.00  0.00    +0.277 C 
ENDBRANCH  22  27
ENDBRANCH  17  19
ENDBRANCH   4  17
TORSDOF 6
