REMARK  Name = ZINC15800568
REMARK  7 active torsions:
REMARK  status: ('A' for Active; 'I' for Inactive)
REMARK    1  A    between atoms: C_1  and  C_2
REMARK    2  A    between atoms: C_4  and  O_9
REMARK    3  A    between atoms: O_9  and  C_10
REMARK    4  A    between atoms: C_10  and  C_11
REMARK    5  A    between atoms: C_11  and  O_12
REMARK    6  A    between atoms: O_12  and  C_13
REMARK    7  A    between atoms: C_18  and  C_19
REMARK                            x       y       z     vdW  Elec       q    Type
REMARK                         _______ _______ _______ _____ _____    ______ ____
ROOT
ATOM      1  C   UNL     1       5.593   6.263   1.217  0.00  0.00    +0.128 A 
ATOM      2  C   UNL     1       6.460   6.677   0.219  0.00  0.00    +0.047 A 
ATOM      3  C   UNL     1       7.513   7.520   0.520  0.00  0.00    +0.019 A 
ATOM      4  C   UNL     1       7.711   7.959   1.820  0.00  0.00    +0.019 A 
ATOM      5  C   UNL     1       6.859   7.559   2.827  0.00  0.00    +0.026 A 
ATOM      6  C   UNL     1       5.785   6.709   2.535  0.00  0.00    +0.019 A 
ATOM      7 BR   UNL     1       9.157   9.112   2.214  0.00  0.00    -0.050 Br
ENDROOT
BRANCH   6   8
ATOM      8  C   UNL     1       4.870   6.283   3.600  0.00  0.00    +0.032 C 
ATOM      9  C   UNL     1       5.245   6.390   4.901  0.00  0.00    +0.080 C 
ATOM     10  C   UNL     1       4.456   6.169   6.129  0.00  0.00    +0.258 C 
ATOM     11  O   UNL     1       3.285   5.839   6.086  0.00  0.00    -0.269 OA
ATOM     12  N   UNL     1       5.086   6.347   7.278  0.00  0.00    -0.243 N 
ATOM     13  C   UNL     1       6.383   6.713   7.321  0.00  0.00    +0.283 C 
ATOM     14  O   UNL     1       7.080   6.910   8.298  0.00  0.00    -0.262 OA
ATOM     15  S   UNL     1       6.832   6.830   5.596  0.00  0.00    -0.026 S 
ATOM     16  H   UNL     1       4.604   6.212   8.108  0.00  0.00    +0.159 HD
ENDBRANCH   6   8
BRANCH   1  17
ATOM     17  O   UNL     1       4.559   5.436   0.922  0.00  0.00    -0.488 OA
BRANCH  17  18
ATOM     18  C   UNL     1       4.422   5.028  -0.441  0.00  0.00    +0.270 C 
BRANCH  18  19
ATOM     19  C   UNL     1       3.210   4.105  -0.579  0.00  0.00    +0.270 C 
BRANCH  19  20
ATOM     20  O   UNL     1       2.019   4.836  -0.281  0.00  0.00    -0.489 OA
BRANCH  20  24
ATOM     21  C   UNL     1      -2.844   4.817   0.138  0.00  0.00    +0.045 C 
ATOM     22  C   UNL     1      -1.545   4.113  -0.161  0.00  0.00    -0.029 A 
ATOM     23  C   UNL     1      -0.352   4.805  -0.083  0.00  0.00    +0.050 A 
ATOM     24  C   UNL     1       0.844   4.157  -0.358  0.00  0.00    +0.121 A 
ATOM     25  C   UNL     1       0.838   2.815  -0.712  0.00  0.00    +0.047 A 
ATOM     26  C   UNL     1      -0.357   2.128  -0.789  0.00  0.00    +0.024 A 
ATOM     27  C   UNL     1      -1.549   2.777  -0.520  0.00  0.00    +0.044 A 
ATOM     28 CL   UNL     1      -3.051   1.913  -0.625  0.00  0.00    -0.083 Cl
ENDBRANCH  20  24
ENDBRANCH  19  20
ENDBRANCH  18  19
ENDBRANCH  17  18
ENDBRANCH   1  17
TORSDOF 6
