REMARK  Name = ZINC08877643
REMARK  3 active torsions:
REMARK  status: ('A' for Active; 'I' for Inactive)
REMARK    1  A    between atoms: C_5  and  S_6
REMARK    2  A    between atoms: S_6  and  N_9
REMARK    3  A    between atoms: N_9  and  C_10
REMARK                            x       y       z     vdW  Elec       q    Type
REMARK                         _______ _______ _______ _____ _____    ______ ____
ROOT
ATOM      1  N   UNL     1       4.477   2.088   1.552  0.00  0.00    -0.214 N 
ATOM      2  H   UNL     1       4.689   2.966   1.907  0.00  0.00    +0.174 HD
ENDROOT
BRANCH   1   3
ATOM      3  C   UNL     1       4.490   0.971   2.394  0.00  0.00    +0.070 A 
ATOM      4  C   UNL     1       4.920  -0.258   1.912  0.00  0.00    +0.075 A 
ATOM      5  C   UNL     1       4.937  -1.364   2.748  0.00  0.00    +0.164 A 
ATOM      6  C   UNL     1       4.514  -1.243   4.066  0.00  0.00    +0.164 A 
ATOM      7  C   UNL     1       4.080  -0.016   4.544  0.00  0.00    +0.071 A 
ATOM      8  C   UNL     1       4.067   1.088   3.712  0.00  0.00    +0.067 A 
ATOM      9 CL   UNL     1       3.522   2.622   4.315  0.00  0.00    -0.081 Cl
ATOM     10  O   UNL     1       4.523  -2.319   4.902  0.00  0.00    -0.485 OA
ATOM     11  C   UNL     1       4.611  -3.610   4.289  0.00  0.00    +0.270 C 
ATOM     12  C   UNL     1       5.714  -3.561   3.223  0.00  0.00    +0.270 C 
ATOM     13  O   UNL     1       5.362  -2.562   2.260  0.00  0.00    -0.485 OA
ENDBRANCH   1   3
BRANCH   1  14
ATOM     14  S   UNL     1       4.101   1.913  -0.051  0.00  0.00    +0.079 S 
ATOM     15  O   UNL     1       4.970   0.912  -0.565  0.00  0.00    -0.149 OA
ATOM     16  O   UNL     1       4.040   3.222  -0.600  0.00  0.00    -0.149 OA
BRANCH  14  21
ATOM     17  C   UNL     1       1.286   1.913  -0.190  0.00  0.00    +0.038 A 
ATOM     18  C   UNL     1       0.114   1.182  -0.251  0.00  0.00    +0.030 A 
ATOM     19  C   UNL     1       0.184  -0.173  -0.254  0.00  0.00    +0.080 A 
ATOM     20  S   UNL     1       1.945  -0.451  -0.169  0.00  0.00    -0.057 S 
ATOM     21  C   UNL     1       2.469   1.255  -0.135  0.00  0.00    +0.147 A 
ATOM     22 CL   UNL     1      -1.105  -1.334  -0.324  0.00  0.00    -0.076 Cl
ENDBRANCH  14  21
ENDBRANCH   1  14
TORSDOF 3
