REMARK  Name = ZINC38705008
REMARK  12 active torsions:
REMARK  status: ('A' for Active; 'I' for Inactive)
REMARK    1  A    between atoms: C_1  and  C_2
REMARK    2  A    between atoms: C_2  and  C_3
REMARK    3  A    between atoms: C_3  and  C_4
REMARK    4  A    between atoms: C_4  and  N_5
REMARK    5  A    between atoms: C_6  and  C_25
REMARK    6  A    between atoms: C_9  and  C_16
REMARK    7  A    between atoms: C_17  and  C_24
REMARK    8  A    between atoms: C_19  and  C_23
REMARK    9  A    between atoms: C_21  and  O_22
REMARK   10  A    between atoms: C_28  and  O_33
REMARK   11  A    between atoms: C_29  and  O_31
REMARK   12  A    between atoms: O_31  and  C_32
REMARK                            x       y       z     vdW  Elec       q    Type
REMARK                         _______ _______ _______ _____ _____    ______ ____
ROOT
ATOM      1  N   UNL     1       1.394  -2.552  -2.547  0.00  0.00    -0.285 N 
ATOM      2  C   UNL     1       0.820  -2.776  -3.880  0.00  0.00    +0.141 C 
ATOM      3  C   UNL     1       1.954  -3.249  -4.747  0.00  0.00    +0.035 A 
ATOM      4  C   UNL     1       2.373  -3.672  -6.013  0.00  0.00    +0.102 A 
ATOM      5  N   UNL     1       3.663  -3.932  -5.935  0.00  0.00    -0.173 NA
ATOM      6  N   UNL     1       4.100  -3.715  -4.746  0.00  0.00    -0.272 N 
ATOM      7  H   UNL     1       5.018  -3.839  -4.458  0.00  0.00    +0.189 HD
ATOM      8  C   UNL     1       3.079  -3.284  -3.947  0.00  0.00    +0.126 A 
ATOM      9  C   UNL     1       2.706  -2.845  -2.598  0.00  0.00    +0.265 C 
ATOM     10  O   UNL     1       3.473  -2.759  -1.658  0.00  0.00    -0.268 OA
ENDROOT
BRANCH   4  11
ATOM     11  C   UNL     1       1.522  -3.804  -7.222  0.00  0.00    +0.047 A 
ATOM     12  C   UNL     1       1.553  -4.975  -7.975  0.00  0.00    -0.037 A 
ATOM     13  C   UNL     1       0.760  -5.094  -9.098  0.00  0.00    +0.007 A 
ATOM     14  C   UNL     1      -0.068  -4.052  -9.479  0.00  0.00    -0.047 A 
ATOM     15  C   UNL     1      -0.106  -2.886  -8.739  0.00  0.00    +0.049 A 
ATOM     16  C   UNL     1       0.681  -2.756  -7.606  0.00  0.00    +0.127 A 
ATOM     17  C   UNL     1      -0.930  -4.191 -10.707  0.00  0.00    +0.044 C 
ATOM     18  C   UNL     1       2.453  -6.112  -7.564  0.00  0.00    +0.044 C 
BRANCH  16  19
ATOM     19  O   UNL     1       0.640  -1.612  -6.875  0.00  0.00    -0.506 OA
ATOM     20  H   UNL     1       1.222  -0.913  -7.205  0.00  0.00    +0.292 HD
ENDBRANCH  16  19
ENDBRANCH   4  11
BRANCH   2  21
ATOM     21  C   UNL     1      -0.257  -3.828  -3.811  0.00  0.00    -0.019 A 
ATOM     22  C   UNL     1      -0.037  -4.994  -3.100  0.00  0.00    +0.009 A 
ATOM     23  C   UNL     1      -1.021  -5.962  -3.034  0.00  0.00    +0.049 A 
ATOM     24  C   UNL     1      -2.231  -5.766  -3.680  0.00  0.00    +0.158 A 
ATOM     25  C   UNL     1      -2.452  -4.593  -4.395  0.00  0.00    +0.162 A 
ATOM     26  C   UNL     1      -1.463  -3.624  -4.453  0.00  0.00    +0.055 A 
BRANCH  25  27
ATOM     27  O   UNL     1      -3.638  -4.395  -5.031  0.00  0.00    -0.491 OA
ATOM     28  C   UNL     1      -3.795  -3.168  -5.745  0.00  0.00    +0.277 C 
ENDBRANCH  25  27
BRANCH  24  29
ATOM     29  O   UNL     1      -3.200  -6.718  -3.616  0.00  0.00    -0.503 OA
ATOM     30  H   UNL     1      -3.807  -6.612  -2.870  0.00  0.00    +0.292 HD
ENDBRANCH  24  29
ENDBRANCH   2  21
BRANCH   1  31
ATOM     31  C   UNL     1       0.664  -2.083  -1.366  0.00  0.00    +0.109 C 
BRANCH  31  32
ATOM     32  C   UNL     1       0.702  -0.555  -1.316  0.00  0.00    +0.019 C 
BRANCH  32  34
ATOM     33  C   UNL     1      -0.022   1.463  -0.033  0.00  0.00    +0.004 C 
ATOM     34  C   UNL     1      -0.060  -0.066  -0.083  0.00  0.00    -0.002 C 
ENDBRANCH  32  34
ENDBRANCH  31  32
ENDBRANCH   1  31
TORSDOF 8
