REMARK  Name = ZINC66606842
REMARK  4 active torsions:
REMARK  status: ('A' for Active; 'I' for Inactive)
REMARK    1  A    between atoms: C_4  and  C_7
REMARK    2  A    between atoms: C_19  and  C_21
REMARK    3  A    between atoms: N_23  and  N_24
REMARK    4  A    between atoms: N_24  and  C_25
REMARK                            x       y       z     vdW  Elec       q    Type
REMARK                         _______ _______ _______ _____ _____    ______ ____
ROOT
ATOM      1  C   UNL     1       3.696  -0.685  -0.037  0.00  0.00    +0.247 C 
ATOM      2  O   UNL     1       4.735  -0.064  -0.148  0.00  0.00    -0.270 OA
ATOM      3  N   UNL     1       3.720  -2.029   0.057  0.00  0.00    -0.283 N 
ATOM      4  C   UNL     1       4.905  -2.865   0.163  0.00  0.00    +0.080 C 
ATOM      5  C   UNL     1       6.170  -2.384  -0.515  0.00  0.00    +0.023 C 
ATOM      6  C   UNL     1       7.270  -3.419  -0.223  0.00  0.00    +0.002 C 
ATOM      7  C   UNL     1       6.865  -4.810  -0.700  0.00  0.00    +0.000 C 
ATOM      8  C   UNL     1       5.516  -5.240  -0.102  0.00  0.00    +0.005 C 
ATOM      9  C   UNL     1       4.494  -4.193  -0.530  0.00  0.00    +0.012 C 
ATOM     10  C   UNL     1       3.090  -4.387   0.064  0.00  0.00    +0.037 C 
ATOM     11  C   UNL     1       2.545  -2.932   0.079  0.00  0.00    +0.164 C 
ENDROOT
BRANCH   1  15
ATOM     12  C   UNL     1      -0.014   1.383   0.053  0.00  0.00    +0.000 A 
ATOM     13  C   UNL     1       0.165   0.255   0.835  0.00  0.00    +0.001 A 
ATOM     14  C   UNL     1       1.367  -0.421   0.810  0.00  0.00    +0.013 A 
ATOM     15  C   UNL     1       2.404   0.035  -0.006  0.00  0.00    +0.037 A 
ATOM     16  C   UNL     1       2.217   1.173  -0.791  0.00  0.00    +0.013 A 
ATOM     17  C   UNL     1       1.010   1.840  -0.757  0.00  0.00    +0.001 A 
ENDBRANCH   1  15
BRANCH  11  18
ATOM     18  C   UNL     1       1.691  -2.693  -1.139  0.00  0.00    +0.250 C 
ATOM     19  O   UNL     1       2.157  -2.126  -2.105  0.00  0.00    -0.272 OA
ATOM     20  N   UNL     1       0.410  -3.111  -1.157  0.00  0.00    -0.235 N 
ATOM     21  H   UNL     1       0.037  -3.564  -0.385  0.00  0.00    +0.173 HD
BRANCH  20  22
ATOM     22  N   UNL     1      -0.384  -2.889  -2.290  0.00  0.00    -0.264 N 
ATOM     23  H   UNL     1      -0.011  -2.434  -3.062  0.00  0.00    +0.170 HD
BRANCH  22  24
ATOM     24  C   UNL     1      -1.713  -3.321  -2.308  0.00  0.00    +0.045 A 
ATOM     25  C   UNL     1      -2.249  -3.966  -1.201  0.00  0.00    +0.027 A 
ATOM     26  C   UNL     1      -3.563  -4.393  -1.220  0.00  0.00    +0.040 A 
ATOM     27  C   UNL     1      -4.345  -4.178  -2.343  0.00  0.00    +0.124 A 
ATOM     28  C   UNL     1      -3.812  -3.536  -3.447  0.00  0.00    +0.040 A 
ATOM     29  C   UNL     1      -2.501  -3.102  -3.430  0.00  0.00    +0.027 A 
ATOM     30  F   UNL     1      -5.630  -4.596  -2.360  0.00  0.00    -0.205 F 
ENDBRANCH  22  24
ENDBRANCH  20  22
ENDBRANCH  11  18
TORSDOF 4
