REMARK  Name = ZINC12541012
REMARK  7 active torsions:
REMARK  status: ('A' for Active; 'I' for Inactive)
REMARK    1  A    between atoms: C_1  and  C_2
REMARK    2  A    between atoms: C_2  and  C_4
REMARK    3  A    between atoms: C_2  and  O_17
REMARK    4  A    between atoms: N_6  and  C_7
REMARK    5  A    between atoms: O_17  and  C_18
REMARK    6  A    between atoms: C_18  and  C_20
REMARK    7  A    between atoms: C_22  and  C_30
REMARK                            x       y       z     vdW  Elec       q    Type
REMARK                         _______ _______ _______ _____ _____    ______ ____
ROOT
ATOM      1  O   UNL     1      -2.945   7.732  -2.056  0.00  0.00    -0.449 OA
ENDROOT
BRANCH   1   3
ATOM      2  C   UNL     1      -0.710   7.770  -1.091  0.00  0.00    +0.062 C 
ATOM      3  C   UNL     1      -2.142   7.253  -0.945  0.00  0.00    +0.259 C 
BRANCH   3   4
ATOM      4  C   UNL     1      -2.134   5.746  -0.944  0.00  0.00    +0.254 C 
ATOM      5  O   UNL     1      -2.668   5.136  -1.846  0.00  0.00    -0.272 OA
ATOM      6  N   UNL     1      -1.533   5.076   0.059  0.00  0.00    -0.307 N 
ATOM      7  H   UNL     1      -1.106   5.564   0.781  0.00  0.00    +0.149 HD
BRANCH   6   8
ATOM      8  C   UNL     1      -1.525   3.611   0.061  0.00  0.00    +0.035 C 
ATOM      9  C   UNL     1      -0.819   3.104  -1.198  0.00  0.00    +0.029 C 
ATOM     10  C   UNL     1      -0.811   1.574  -1.197  0.00  0.00    -0.008 C 
ATOM     11  C   UNL     1      -0.070   1.069   0.043  0.00  0.00    +0.007 C 
ATOM     12  C   UNL     1      -0.776   1.576   1.302  0.00  0.00    -0.008 C 
ATOM     13  C   UNL     1      -0.784   3.106   1.300  0.00  0.00    +0.029 C 
ATOM     14  C   UNL     1      -2.216   1.058   1.322  0.00  0.00    +0.007 C 
ATOM     15  C   UNL     1      -2.957   1.564   0.082  0.00  0.00    -0.008 C 
ATOM     16  C   UNL     1      -2.250   1.056  -1.176  0.00  0.00    +0.007 C 
ATOM     17  C   UNL     1      -2.965   3.094   0.081  0.00  0.00    +0.029 C 
ENDBRANCH   6   8
ENDBRANCH   3   4
ENDBRANCH   1   3
BRANCH   1  18
ATOM     18  C   UNL     1      -3.573   8.913  -1.893  0.00  0.00    +0.341 C 
ATOM     19  O   UNL     1      -3.452   9.525  -0.851  0.00  0.00    -0.245 OA
BRANCH  18  20
ATOM     20  C   UNL     1      -4.408   9.463  -2.981  0.00  0.00    +0.070 A 
ATOM     21  C   UNL     1      -4.472   8.846  -4.222  0.00  0.00    +0.047 A 
ATOM     22  C   UNL     1      -5.283   9.402  -5.227  0.00  0.00    +0.107 A 
ATOM     23  N   UNL     1      -5.984  10.503  -5.036  0.00  0.00    -0.244 NA
ATOM     24  C   UNL     1      -5.976  11.161  -3.876  0.00  0.00    +0.073 A 
ATOM     25  C   UNL     1      -5.194  10.683  -2.794  0.00  0.00    +0.014 A 
ATOM     26  C   UNL     1      -5.188  11.377  -1.580  0.00  0.00    +0.011 A 
ATOM     27  C   UNL     1      -5.934  12.511  -1.448  0.00  0.00    +0.001 A 
ATOM     28  C   UNL     1      -6.704  12.986  -2.508  0.00  0.00    +0.002 A 
ATOM     29  C   UNL     1      -6.733  12.335  -3.703  0.00  0.00    +0.028 A 
BRANCH  22  30
ATOM     30  C   UNL     1      -5.348   8.734  -6.540  0.00  0.00    +0.153 A 
ATOM     31  C   UNL     1      -6.083   9.144  -7.610  0.00  0.00    +0.051 A 
ATOM     32  C   UNL     1      -5.846   8.220  -8.644  0.00  0.00    +0.042 A 
ATOM     33  C   UNL     1      -4.993   7.294  -8.159  0.00  0.00    +0.196 A 
ATOM     34  O   UNL     1      -4.695   7.608  -6.889  0.00  0.00    -0.461 OA
ENDBRANCH  22  30
ENDBRANCH  18  20
ENDBRANCH   1  18
TORSDOF 6
