REMARK  Name = ZINC13774076
REMARK  7 active torsions:
REMARK  status: ('A' for Active; 'I' for Inactive)
REMARK    1  A    between atoms: C_1  and  C_2
REMARK    2  A    between atoms: C_2  and  C_23
REMARK    3  A    between atoms: N_3  and  N_4
REMARK    4  A    between atoms: C_5  and  C_7
REMARK    5  A    between atoms: C_10  and  C_11
REMARK    6  A    between atoms: C_10  and  C_17
REMARK    7  A    between atoms: C_23  and  C_24
REMARK                            x       y       z     vdW  Elec       q    Type
REMARK                         _______ _______ _______ _____ _____    ______ ____
ROOT
ATOM      1  C   UNL     1       2.546   0.796  -0.130  0.00  0.00    +0.093 C 
ATOM      2  C   UNL     1       3.302   1.060  -1.434  0.00  0.00    +0.031 C 
ATOM      3  C   UNL     1       3.737   1.756  -0.142  0.00  0.00    +0.033 C 
ENDROOT
BRANCH   3   4
ATOM      4  C   UNL     1       3.446   3.228  -0.013  0.00  0.00    -0.036 A 
ATOM      5  C   UNL     1       3.825   4.099  -1.018  0.00  0.00    +0.004 A 
ATOM      6  C   UNL     1       3.553   5.449  -0.901  0.00  0.00    +0.000 A 
ATOM      7  C   UNL     1       2.913   5.931   0.225  0.00  0.00    +0.000 A 
ATOM      8  C   UNL     1       2.540   5.061   1.233  0.00  0.00    +0.000 A 
ATOM      9  C   UNL     1       2.806   3.710   1.114  0.00  0.00    +0.004 A 
ENDBRANCH   3   4
BRANCH   3  10
ATOM     10  C   UNL     1       5.015   1.286   0.504  0.00  0.00    -0.036 A 
ATOM     11  C   UNL     1       5.041   0.089   1.196  0.00  0.00    +0.004 A 
ATOM     12  C   UNL     1       6.214  -0.344   1.784  0.00  0.00    +0.000 A 
ATOM     13  C   UNL     1       7.359   0.424   1.689  0.00  0.00    +0.000 A 
ATOM     14  C   UNL     1       7.332   1.624   1.002  0.00  0.00    +0.000 A 
ATOM     15  C   UNL     1       6.160   2.054   0.409  0.00  0.00    +0.004 A 
ENDBRANCH   3  10
BRANCH   1  17
ATOM     16  N   UNL     1       0.596   1.488   1.226  0.00  0.00    -0.207 N 
ATOM     17  C   UNL     1       1.170   1.397   0.010  0.00  0.00    +0.236 C 
ATOM     18  O   UNL     1       0.580   1.797  -0.971  0.00  0.00    -0.274 OA
ATOM     19  H   UNL     1       1.068   1.168   2.011  0.00  0.00    +0.177 HD
BRANCH  16  22
ATOM     20  C   UNL     1      -0.499   1.626   3.729  0.00  0.00    +0.063 C 
ATOM     21  C   UNL     1      -1.232   2.124   2.510  0.00  0.00    +0.038 C 
ATOM     22  N   UNL     1      -0.684   2.041   1.356  0.00  0.00    -0.189 NA
BRANCH  21  23
ATOM     23  C   UNL     1      -2.609   2.718   2.650  0.00  0.00    +0.087 C 
BRANCH  23  24
ATOM     24  C   UNL     1      -3.568   1.658   3.126  0.00  0.00    -0.042 A 
ATOM     25  C   UNL     1      -4.254   0.884   2.209  0.00  0.00    +0.004 A 
ATOM     26  C   UNL     1      -5.130  -0.092   2.646  0.00  0.00    +0.000 A 
ATOM     27  C   UNL     1      -5.329  -0.287   4.000  0.00  0.00    +0.000 A 
ATOM     28  C   UNL     1      -4.647   0.491   4.917  0.00  0.00    +0.000 A 
ATOM     29  C   UNL     1      -3.767   1.463   4.480  0.00  0.00    +0.004 A 
ENDBRANCH  23  24
ENDBRANCH  21  23
ENDBRANCH  16  22
ENDBRANCH   1  17
TORSDOF 6
