REMARK  Name = ZINC30970268
REMARK  10 active torsions:
REMARK  status: ('A' for Active; 'I' for Inactive)
REMARK    1  A    between atoms: C_1  and  C_2
REMARK    2  A    between atoms: C_2  and  N_3
REMARK    3  A    between atoms: C_6  and  N_9
REMARK    4  A    between atoms: C_10  and  C_12
REMARK    5  A    between atoms: C_12  and  N_13
REMARK    6  A    between atoms: N_13  and  C_14
REMARK    7  A    between atoms: N_13  and  C_26
REMARK    8  A    between atoms: C_14  and  C_15
REMARK    9  A    between atoms: C_18  and  C_20
REMARK   10  A    between atoms: C_23  and  C_25
REMARK                            x       y       z     vdW  Elec       q    Type
REMARK                         _______ _______ _______ _____ _____    ______ ____
ROOT
ATOM      1  N   UNL     1      -4.131  -2.924  -1.503  0.00  0.00    +0.392 N 
ATOM      2  H   UNL     1      -3.335  -3.001  -2.258  0.00  0.00    -0.080 HD
ENDROOT
BRANCH   1   3
ATOM      3  C   UNL     1      -3.495  -2.855  -0.181  0.00  0.00    -0.067 C 
ATOM      4  C   UNL     1      -3.730  -4.024   0.778  0.00  0.00    -0.017 C 
ATOM      5  C   UNL     1      -4.407  -2.675   1.034  0.00  0.00    -0.017 C 
ENDBRANCH   1   3
BRANCH   1   6
ATOM      6  C   UNL     1      -4.979  -4.118  -1.618  0.00  0.00    +0.020 C 
BRANCH   6   8
ATOM      7  N   UNL     1      -4.671  -6.555  -1.910  0.00  0.00    -0.314 N 
ATOM      8  C   UNL     1      -4.108  -5.340  -1.761  0.00  0.00    +0.197 C 
ATOM      9  O   UNL     1      -2.900  -5.229  -1.742  0.00  0.00    -0.278 OA
ATOM     10  H   UNL     1      -5.766  -6.655  -1.927  0.00  0.00    +0.149 HD
BRANCH   7  14
ATOM     11  N   UNL     1      -3.378 -10.348  -3.211  0.00  0.00    +0.380 N 
ATOM     12  C   UNL     1      -3.732 -10.225  -1.792  0.00  0.00    -0.077 C 
ATOM     13  C   UNL     1      -4.599  -8.980  -1.587  0.00  0.00    +0.003 C 
ATOM     14  C   UNL     1      -3.825  -7.743  -2.049  0.00  0.00    +0.069 C 
ATOM     15  C   UNL     1      -3.426  -7.918  -3.517  0.00  0.00    +0.003 C 
ATOM     16  C   UNL     1      -2.593  -9.193  -3.665  0.00  0.00    -0.077 C 
ATOM     17  H   UNL     1      -4.314 -10.366  -3.790  0.00  0.00    -0.082 HD
BRANCH  11  19
ATOM     18  C   UNL     1      -2.095 -11.588  -4.889  0.00  0.00    -0.017 C 
ATOM     19  C   UNL     1      -2.663 -11.605  -3.468  0.00  0.00    -0.082 C 
ENDBRANCH  11  19
ENDBRANCH   7  14
ENDBRANCH   6   8
ENDBRANCH   1   6
BRANCH   1  20
ATOM     20  C   UNL     1      -4.901  -1.704  -1.781  0.00  0.00    -0.002 C 
BRANCH  20  21
ATOM     21  C   UNL     1      -3.960  -0.532  -1.897  0.00  0.00    +0.089 A 
ATOM     22  C   UNL     1      -3.372  -0.104  -3.028  0.00  0.00    +0.043 A 
ATOM     23  C   UNL     1      -2.583   1.016  -2.681  0.00  0.00    +0.045 A 
ATOM     24  C   UNL     1      -2.728   1.200  -1.356  0.00  0.00    +0.108 A 
ATOM     25  O   UNL     1      -3.567   0.262  -0.887  0.00  0.00    -0.466 OA
BRANCH  24  26
ATOM     26  C   UNL     1      -2.068   2.280  -0.538  0.00  0.00    +0.058 C 
ATOM     27  C   UNL     1      -2.525   2.447   0.913  0.00  0.00    +0.015 C 
ATOM     28  C   UNL     1      -1.154   1.841   0.607  0.00  0.00    -0.003 C 
ATOM     29  C   UNL     1       0.079   2.699   0.896  0.00  0.00    +0.008 C 
ENDBRANCH  24  26
ENDBRANCH  20  21
ENDBRANCH   1  20
TORSDOF 8
