REMARK  Name = ZINC15230111
REMARK  13 active torsions:
REMARK  status: ('A' for Active; 'I' for Inactive)
REMARK    1  A    between atoms: C_1  and  C_2
REMARK    2  A    between atoms: C_4  and  C_36
REMARK    3  A    between atoms: C_5  and  C_9
REMARK    4  A    between atoms: C_6  and  C_8
REMARK    5  A    between atoms: C_9  and  C_35
REMARK    6  A    between atoms: C_11  and  C_13
REMARK    7  A    between atoms: C_13  and  C_26
REMARK    8  A    between atoms: N_14  and  O_15
REMARK    9  A    between atoms: O_15  and  C_16
REMARK   10  A    between atoms: C_16  and  C_17
REMARK   11  A    between atoms: C_17  and  C_19
REMARK   12  A    between atoms: C_17  and  O_25
REMARK   13  A    between atoms: C_19  and  N_76
REMARK                            x       y       z     vdW  Elec       q    Type
REMARK                         _______ _______ _______ _____ _____    ______ ____
ROOT
ATOM      1  C   UNL     1      -2.286  -1.957   1.101  0.00  0.00    +0.125 C 
ATOM      2  N   UNL     1      -2.264  -0.674   1.291  0.00  0.00    -0.086 NA
ENDROOT
BRANCH   1   3
ATOM      3  C   UNL     1      -3.559  -2.686   1.159  0.00  0.00    +0.154 A 
ATOM      4  C   UNL     1      -4.772  -2.124   1.402  0.00  0.00    +0.059 A 
ATOM      5  C   UNL     1      -5.741  -3.219   1.364  0.00  0.00    +0.021 A 
ATOM      6  C   UNL     1      -7.125  -3.301   1.532  0.00  0.00    +0.011 A 
ATOM      7  C   UNL     1      -7.750  -4.512   1.431  0.00  0.00    +0.001 A 
ATOM      8  C   UNL     1      -7.017  -5.660   1.163  0.00  0.00    +0.004 A 
ATOM      9  C   UNL     1      -5.651  -5.601   0.994  0.00  0.00    +0.047 A 
ATOM     10  C   UNL     1      -4.994  -4.380   1.092  0.00  0.00    +0.136 A 
ATOM     11  O   UNL     1      -3.702  -4.014   0.972  0.00  0.00    -0.453 OA
ENDBRANCH   1   3
BRANCH   1  14
ATOM     12  C   UNL     1      -0.248  -4.655   0.519  0.00  0.00    -0.005 C 
ATOM     13  C   UNL     1      -0.774  -3.902   1.752  0.00  0.00    +0.021 C 
ATOM     14  C   UNL     1      -1.004  -2.699   0.823  0.00  0.00    +0.046 C 
ATOM     15  C   UNL     1      -1.116  -3.709  -0.332  0.00  0.00    +0.021 C 
ATOM     16  C   UNL     1       1.254  -4.480   0.289  0.00  0.00    +0.016 C 
BRANCH  12  21
ATOM     17  C   UNL     1      -1.928 -10.179   0.289  0.00  0.00    +0.044 C 
ATOM     18  C   UNL     1      -1.489  -8.739   0.349  0.00  0.00    -0.050 A 
ATOM     19  C   UNL     1      -1.268  -8.034  -0.820  0.00  0.00    +0.007 A 
ATOM     20  C   UNL     1      -0.866  -6.713  -0.765  0.00  0.00    -0.046 A 
ATOM     21  C   UNL     1      -0.686  -6.096   0.459  0.00  0.00    -0.036 A 
ATOM     22  C   UNL     1      -0.903  -6.801   1.627  0.00  0.00    -0.046 A 
ATOM     23  C   UNL     1      -1.309  -8.122   1.572  0.00  0.00    +0.007 A 
ATOM     24  C   UNL     1      -0.701  -6.130   2.962  0.00  0.00    +0.044 C 
ATOM     25  C   UNL     1      -0.624  -5.945  -2.039  0.00  0.00    +0.044 C 
ENDBRANCH  12  21
ENDBRANCH   1  14
BRANCH   2  26
ATOM     26  O   UNL     1      -1.027   0.012   1.346  0.00  0.00    -0.391 OA
BRANCH  26  27
ATOM     27  C   UNL     1      -1.146   1.399   1.671  0.00  0.00    +0.292 C 
BRANCH  27  28
ATOM     28  C   UNL     1       0.249   2.008   1.825  0.00  0.00    +0.138 C 
BRANCH  28  29
ATOM     29  O   UNL     1       0.915   1.998   0.560  0.00  0.00    -0.390 OA
ATOM     30  H   UNL     1       0.458   2.501  -0.128  0.00  0.00    +0.210 HD
ENDBRANCH  28  29
BRANCH  28  31
ATOM     31  C   UNL     1       0.124   3.449   2.324  0.00  0.00    -0.044 C 
BRANCH  31  37
ATOM     32  C   UNL     1       2.220   3.355   3.531  0.00  0.00    -0.079 C 
ATOM     33  C   UNL     1       3.654   3.890   3.559  0.00  0.00    -0.019 C 
ATOM     34  C   UNL     1       3.625   5.400   3.813  0.00  0.00    -0.004 C 
ATOM     35  C   UNL     1       2.791   6.077   2.722  0.00  0.00    -0.019 C 
ATOM     36  C   UNL     1       1.382   5.479   2.719  0.00  0.00    -0.079 C 
ATOM     37  N   UNL     1       1.477   4.029   2.446  0.00  0.00    +0.381 N 
ATOM     38  H   UNL     1       1.980   3.889   1.561  0.00  0.00    -0.082 HD
ENDBRANCH  31  37
ENDBRANCH  28  31
ENDBRANCH  27  28
ENDBRANCH  26  27
ENDBRANCH   2  26
TORSDOF 9
