REMARK  Name = ZINC59531678
REMARK  10 active torsions:
REMARK  status: ('A' for Active; 'I' for Inactive)
REMARK    1  A    between atoms: C_1  and  C_2
REMARK    2  A    between atoms: C_2  and  C_3
REMARK    3  A    between atoms: C_3  and  C_5
REMARK    4  A    between atoms: C_3  and  O_6
REMARK    5  A    between atoms: O_6  and  C_7
REMARK    6  A    between atoms: C_10  and  C_13
REMARK    7  A    between atoms: C_18  and  C_23
REMARK    8  A    between atoms: C_26  and  O_29
REMARK    9  A    between atoms: O_29  and  C_30
REMARK   10  A    between atoms: C_30  and  C_31
REMARK                            x       y       z     vdW  Elec       q    Type
REMARK                         _______ _______ _______ _____ _____    ______ ____
ROOT
ATOM      1  C   UNL     1      -7.561   1.059   1.162  0.00  0.00    +0.136 C 
ATOM      2  C   UNL     1      -8.315  -0.071   1.822  0.00  0.00    +0.036 C 
ATOM      3  C   UNL     1      -8.931  -0.018   3.014  0.00  0.00    +0.017 C 
ATOM      4  C   UNL     1      -9.634  -1.244   3.573  0.00  0.00    +0.059 C 
ATOM      5  C   UNL     1     -10.213  -2.078   2.432  0.00  0.00    +0.032 C 
ATOM      6  C   UNL     1      -9.052  -2.498   1.524  0.00  0.00    +0.088 C 
ATOM      7  C   UNL     1      -8.338  -1.264   1.060  0.00  0.00    +0.163 C 
ATOM      8  O   UNL     1      -7.758  -1.288  -0.008  0.00  0.00    -0.292 OA
ATOM      9  N   UNL     1      -8.988   1.080   3.811  0.00  0.00    -0.316 N 
ATOM     10  C   UNL     1      -7.901   1.888   4.125  0.00  0.00    +0.052 A 
ATOM     11  C   UNL     1      -7.415   2.006   5.415  0.00  0.00    +0.025 A 
ATOM     12  C   UNL     1      -6.357   2.863   5.666  0.00  0.00    +0.002 A 
ATOM     13  C   UNL     1      -5.794   3.597   4.638  0.00  0.00    +0.002 A 
ATOM     14  C   UNL     1      -6.268   3.467   3.344  0.00  0.00    +0.025 A 
ATOM     15  C   UNL     1      -7.313   2.595   3.086  0.00  0.00    +0.049 A 
ATOM     16  N   UNL     1      -7.752   2.349   1.789  0.00  0.00    -0.331 N 
ATOM     17  H   UNL     1      -9.849   1.318   4.188  0.00  0.00    +0.152 HD
ATOM     18  H   UNL     1      -8.192   3.059   1.296  0.00  0.00    +0.147 HD
ENDROOT
BRANCH   1  22
ATOM     19  C   UNL     1      -3.392   0.125   1.223  0.00  0.00    +0.121 A 
ATOM     20  C   UNL     1      -4.076   0.329   2.412  0.00  0.00    +0.046 A 
ATOM     21  C   UNL     1      -5.423   0.631   2.390  0.00  0.00    +0.009 A 
ATOM     22  C   UNL     1      -6.091   0.730   1.183  0.00  0.00    -0.023 A 
ATOM     23  C   UNL     1      -5.412   0.526  -0.004  0.00  0.00    +0.009 A 
ATOM     24  C   UNL     1      -4.063   0.230   0.013  0.00  0.00    +0.046 A 
BRANCH  19  25
ATOM     25  O   UNL     1      -2.066  -0.172   1.242  0.00  0.00    -0.489 OA
BRANCH  25  26
ATOM     26  C   UNL     1      -1.399  -0.247  -0.020  0.00  0.00    +0.170 C 
ATOM     27  C   UNL     1      -1.560  -1.654  -0.599  0.00  0.00    +0.052 C 
BRANCH  26  29
ATOM     28  C   UNL     1       0.255   1.510   0.630  0.00  0.00    +0.007 C 
ATOM     29  C   UNL     1       0.088   0.060   0.170  0.00  0.00    +0.041 C 
ENDBRANCH  26  29
ENDBRANCH  25  26
ENDBRANCH  19  25
ENDBRANCH   1  22
BRANCH   5  30
ATOM     30  C   UNL     1     -10.896  -3.300   2.989  0.00  0.00    -0.043 A 
ATOM     31  C   UNL     1     -10.175  -4.213   3.737  0.00  0.00    +0.007 A 
ATOM     32  C   UNL     1     -10.799  -5.335   4.248  0.00  0.00    +0.046 A 
ATOM     33  C   UNL     1     -12.149  -5.545   4.011  0.00  0.00    +0.121 A 
ATOM     34  C   UNL     1     -12.870  -4.628   3.260  0.00  0.00    +0.046 A 
ATOM     35  C   UNL     1     -12.243  -3.505   2.755  0.00  0.00    +0.007 A 
BRANCH  33  36
ATOM     36  O   UNL     1     -12.764  -6.649   4.512  0.00  0.00    -0.492 OA
BRANCH  36  37
ATOM     37  C   UNL     1     -14.157  -6.801   4.228  0.00  0.00    +0.225 C 
ATOM     38  C   UNL     1     -14.671  -8.091   4.870  0.00  0.00    +0.048 C 
ENDBRANCH  36  37
ENDBRANCH  33  36
ENDBRANCH   5  30
TORSDOF 7
