REMARK  Name = ZINC37558228
REMARK  4 active torsions:
REMARK  status: ('A' for Active; 'I' for Inactive)
REMARK    1  A    between atoms: C_1  and  C_2
REMARK    2  A    between atoms: C_4  and  N_9
REMARK    3  A    between atoms: N_9  and  S_10
REMARK    4  A    between atoms: S_10  and  C_13
REMARK                            x       y       z     vdW  Elec       q    Type
REMARK                         _______ _______ _______ _____ _____    ______ ____
ROOT
ATOM      1  S   UNL     1       1.141  -3.967  -2.684  0.00  0.00    +0.077 S 
ATOM      2  O   UNL     1       1.071  -4.953  -1.664  0.00  0.00    -0.150 OA
ATOM      3  O   UNL     1       0.940  -4.274  -4.057  0.00  0.00    -0.150 OA
ENDROOT
BRANCH   1   4
ATOM      4  C   UNL     1       2.737  -3.229  -2.562  0.00  0.00    +0.167 A 
ATOM      5  C   UNL     1       3.709  -3.575  -1.687  0.00  0.00    +0.135 A 
ATOM      6  N   UNL     1       4.773  -2.777  -1.915  0.00  0.00    -0.281 N 
ATOM      7  H   UNL     1       5.616  -2.800  -1.434  0.00  0.00    +0.188 HD
ATOM      8  N   UNL     1       4.449  -1.909  -2.965  0.00  0.00    -0.157 NA
ATOM      9  C   UNL     1       3.228  -2.183  -3.360  0.00  0.00    +0.165 A 
ATOM     10  N   UNL     1       2.534  -1.542  -4.393  0.00  0.00    -0.340 N 
ATOM     11  H   UNL     1       1.658  -1.861  -4.660  0.00  0.00    +0.144 HD
ATOM     12  H   UNL     1       2.930  -0.779  -4.843  0.00  0.00    +0.144 HD
ENDBRANCH   1   4
BRANCH   1  13
ATOM     13  N   UNL     1       0.032  -2.801  -2.293  0.00  0.00    -0.216 N 
ATOM     14  H   UNL     1      -0.628  -2.521  -2.946  0.00  0.00    +0.174 HD
BRANCH  13  18
ATOM     15  C   UNL     1      -0.141   1.224   0.522  0.00  0.00    +0.045 C 
ATOM     16  C   UNL     1      -0.036  -0.272   0.373  0.00  0.00    -0.035 A 
ATOM     17  C   UNL     1      -0.050  -0.842  -0.885  0.00  0.00    +0.029 A 
ATOM     18  C   UNL     1       0.047  -2.221  -1.022  0.00  0.00    +0.048 A 
ATOM     19  C   UNL     1       0.158  -3.022   0.107  0.00  0.00    +0.025 A 
ATOM     20  C   UNL     1       0.172  -2.447   1.362  0.00  0.00    +0.017 A 
ATOM     21  C   UNL     1       0.081  -1.072   1.495  0.00  0.00    +0.021 A 
ATOM     22 BR   UNL     1       0.108  -0.287   3.215  0.00  0.00    -0.050 Br
ENDBRANCH  13  18
ENDBRANCH   1  13
TORSDOF 3
