REMARK  Name = ZINC02841005
REMARK  5 active torsions:
REMARK  status: ('A' for Active; 'I' for Inactive)
REMARK    1  A    between atoms: C_3  and  C_9
REMARK    2  A    between atoms: N_11  and  C_12
REMARK    3  A    between atoms: C_12  and  N_14
REMARK    4  A    between atoms: N_14  and  C_15
REMARK    5  A    between atoms: C_16  and  C_25
REMARK                            x       y       z     vdW  Elec       q    Type
REMARK                         _______ _______ _______ _____ _____    ______ ____
ROOT
ATOM      1  C   UNL     1       1.147   1.655   0.000  0.00  0.00    +0.141 C 
ATOM      2  S   UNL     1       1.124   3.367   0.009  0.00  0.00    -0.018 S 
ENDROOT
BRANCH   1   5
ATOM      3  C   UNL     1      -1.187   1.624   0.017  0.00  0.00    +0.251 C 
ATOM      4  O   UNL     1      -1.204   2.839   0.023  0.00  0.00    -0.270 OA
ATOM      5  N   UNL     1      -0.011   0.966   0.007  0.00  0.00    -0.264 N 
ATOM      6  H   UNL     1       0.002  -0.004   0.002  0.00  0.00    +0.157 HD
BRANCH   3   9
ATOM      7  C   UNL     1      -3.628  -1.228   0.013  0.00  0.00    +0.021 A 
ATOM      8  C   UNL     1      -2.440  -0.528   0.011  0.00  0.00    +0.016 A 
ATOM      9  C   UNL     1      -2.456   0.868   0.018  0.00  0.00    +0.055 A 
ATOM     10  C   UNL     1      -3.678   1.548   0.034  0.00  0.00    +0.054 A 
ATOM     11  C   UNL     1      -4.860   0.835   0.029  0.00  0.00    +0.040 A 
ATOM     12  C   UNL     1      -4.836  -0.550   0.022  0.00  0.00    +0.042 A 
ATOM     13 CL   UNL     1      -6.327  -1.439   0.025  0.00  0.00    -0.083 Cl
ATOM     14 CL   UNL     1      -3.708   3.283   0.051  0.00  0.00    -0.083 Cl
ENDBRANCH   3   9
ENDBRANCH   1   5
BRANCH   1  15
ATOM     15  N   UNL     1       2.323   0.998  -0.015  0.00  0.00    -0.290 N 
ATOM     16  H   UNL     1       2.336   0.028  -0.020  0.00  0.00    +0.154 HD
BRANCH  15  17
ATOM     17  C   UNL     1       3.515   1.707  -0.022  0.00  0.00    +0.089 A 
ATOM     18  C   UNL     1       4.810   1.216  -0.032  0.00  0.00    +0.084 A 
ATOM     19  C   UNL     1       5.901   2.180  -0.046  0.00  0.00    -0.018 A 
ATOM     20  C   UNL     1       5.517   3.475  -0.030  0.00  0.00    -0.004 A 
ATOM     21  S   UNL     1       3.745   3.424  -0.015  0.00  0.00    -0.077 S 
ATOM     22  C   UNL     1       6.392   4.689  -0.014  0.00  0.00    +0.043 C 
ATOM     23  C   UNL     1       7.464   4.555  -1.104  0.00  0.00    +0.005 C 
ATOM     24  C   UNL     1       8.678   3.853  -0.502  0.00  0.00    +0.001 C 
ATOM     25  C   UNL     1       8.231   2.845   0.555  0.00  0.00    +0.005 C 
ATOM     26  C   UNL     1       7.365   1.760  -0.076  0.00  0.00    +0.037 C 
BRANCH  18  27
ATOM     27  C   UNL     1       5.067  -0.193  -0.031  0.00  0.00    +0.102 C 
ATOM     28  N   UNL     1       5.271  -1.311  -0.031  0.00  0.00    -0.191 NA
ENDBRANCH  18  27
ENDBRANCH  15  17
ENDBRANCH   1  15
TORSDOF 5
