REMARK  Name = ZINC22809165
REMARK  8 active torsions:
REMARK  status: ('A' for Active; 'I' for Inactive)
REMARK    1  A    between atoms: C_1  and  C_2
REMARK    2  A    between atoms: C_7  and  C_8
REMARK    3  A    between atoms: C_8  and  N_9
REMARK    4  A    between atoms: N_12  and  C_15
REMARK    5  A    between atoms: C_15  and  C_17
REMARK    6  A    between atoms: C_15  and  C_18
REMARK    7  A    between atoms: C_22  and  C_28
REMARK    8  A    between atoms: C_23  and  C_27
REMARK                            x       y       z     vdW  Elec       q    Type
REMARK                         _______ _______ _______ _____ _____    ______ ____
ROOT
ATOM      1  C   UNL     1      -3.397   1.707   0.631  0.00  0.00    +0.122 C 
ATOM      2  C   UNL     1      -2.301   2.756   0.826  0.00  0.00    +0.032 C 
ENDROOT
BRANCH   1   3
ATOM      3  C   UNL     1      -4.747   2.352   0.808  0.00  0.00    +0.149 A 
ATOM      4  N   UNL     1      -5.159   2.666   2.024  0.00  0.00    -0.215 NA
ATOM      5  C   UNL     1      -6.333   3.234   2.245  0.00  0.00    +0.128 A 
ATOM      6  C   UNL     1      -7.187   3.513   1.143  0.00  0.00    +0.050 A 
ATOM      7  C   UNL     1      -8.508   4.117   1.121  0.00  0.00    -0.028 A 
ATOM      8  C   UNL     1      -9.133   4.283  -0.054  0.00  0.00    -0.008 A 
ATOM      9  S   UNL     1      -7.967   3.640  -1.240  0.00  0.00    -0.074 S 
ATOM     10  C   UNL     1      -6.678   3.154  -0.124  0.00  0.00    +0.114 A 
ATOM     11  N   UNL     1      -5.492   2.591  -0.254  0.00  0.00    -0.223 NA
ATOM     12  C   UNL     1     -10.492   4.880  -0.311  0.00  0.00    +0.052 C 
ATOM     13  C   UNL     1      -9.169   4.551   2.404  0.00  0.00    +0.045 C 
ATOM     14  N   UNL     1      -6.727   3.547   3.534  0.00  0.00    -0.343 N 
ATOM     15  H   UNL     1      -7.705   4.019   3.710  0.00  0.00    +0.144 HD
ATOM     16  H   UNL     1      -6.063   3.324   4.382  0.00  0.00    +0.144 HD
ENDBRANCH   1   3
BRANCH   1  20
ATOM     17  N   UNL     1      -2.811  -2.047   2.478  0.00  0.00    +0.384 N 
ATOM     18  C   UNL     1      -4.136  -1.422   2.593  0.00  0.00    -0.063 C 
ATOM     19  C   UNL     1      -4.298  -0.368   1.495  0.00  0.00    +0.066 C 
ATOM     20  N   UNL     1      -3.232   0.636   1.622  0.00  0.00    -0.296 NA
ATOM     21  C   UNL     1      -1.907   0.011   1.507  0.00  0.00    +0.066 C 
ATOM     22  C   UNL     1      -1.746  -1.043   2.605  0.00  0.00    -0.063 C 
ATOM     23  H   UNL     1      -2.735  -2.499   1.478  0.00  0.00    -0.081 HD
BRANCH  17  24
ATOM     24  C   UNL     1      -2.646  -3.118   3.470  0.00  0.00    -0.043 C 
BRANCH  24  31
ATOM     25  C   UNL     1      -2.953  -5.129   1.418  0.00  0.00    +0.044 C 
ATOM     26  C   UNL     1      -1.622  -4.947   2.102  0.00  0.00    -0.049 A 
ATOM     27  C   UNL     1      -0.548  -5.742   1.746  0.00  0.00    +0.003 A 
ATOM     28  C   UNL     1       0.672  -5.574   2.373  0.00  0.00    +0.000 A 
ATOM     29  C   UNL     1       0.819  -4.611   3.354  0.00  0.00    +0.000 A 
ATOM     30  C   UNL     1      -0.253  -3.813   3.706  0.00  0.00    +0.002 A 
ATOM     31  C   UNL     1      -1.476  -3.985   3.083  0.00  0.00    -0.061 A 
ENDBRANCH  24  31
ENDBRANCH  17  24
ENDBRANCH   1  20
TORSDOF 4
