REMARK  Name = ZINC19643310
REMARK  4 active torsions:
REMARK  status: ('A' for Active; 'I' for Inactive)
REMARK    1  A    between atoms: C_1  and  C_2
REMARK    2  A    between atoms: C_5  and  N_9
REMARK    3  A    between atoms: C_6  and  C_8
REMARK    4  A    between atoms: N_22  and  C_23
REMARK                            x       y       z     vdW  Elec       q    Type
REMARK                         _______ _______ _______ _____ _____    ______ ____
ROOT
ATOM      1  N   UNL     1       0.059  -4.168  -0.021  0.00  0.00    -0.239 N 
ATOM      2  C   UNL     1      -0.860  -5.195  -0.028  0.00  0.00    +0.195 C 
ATOM      3  N   UNL     1       0.021  -6.107  -0.567  0.00  0.00    -0.284 N 
ATOM      4  C   UNL     1       1.063  -5.233  -0.032  0.00  0.00    +0.214 C 
ATOM      5  C   UNL     1       1.635  -5.621   1.302  0.00  0.00    +0.025 A 
ATOM      6  C   UNL     1       1.073  -5.949   2.516  0.00  0.00    +0.010 A 
ATOM      7  C   UNL     1       1.884  -6.270   3.589  0.00  0.00    +0.001 A 
ATOM      8  C   UNL     1       3.259  -6.262   3.440  0.00  0.00    +0.002 A 
ATOM      9  C   UNL     1       3.826  -5.933   2.227  0.00  0.00    +0.024 A 
ATOM     10  C   UNL     1       3.017  -5.608   1.140  0.00  0.00    +0.041 A 
ATOM     11  N   UNL     1       3.347  -5.247  -0.168  0.00  0.00    -0.282 N 
ATOM     12  C   UNL     1       2.256  -5.009  -0.921  0.00  0.00    +0.265 C 
ATOM     13  O   UNL     1       2.238  -4.679  -2.088  0.00  0.00    -0.271 OA
ATOM     14  N   UNL     1      -2.131  -5.276   0.349  0.00  0.00    -0.182 NA
ATOM     15  H   UNL     1       4.257  -5.175  -0.496  0.00  0.00    +0.155 HD
ATOM     16  H   UNL     1      -0.027  -6.937  -1.068  0.00  0.00    +0.152 HD
ENDROOT
BRANCH  14  17
ATOM     17  C   UNL     1      -2.793  -6.432   0.224  0.00  0.00    +0.233 C 
ATOM     18  N   UNL     1      -2.253  -7.588  -0.272  0.00  0.00    -0.208 NA
ATOM     19  C   UNL     1      -3.157  -8.520  -0.258  0.00  0.00    +0.119 C 
ATOM     20  C   UNL     1      -3.546  -9.922  -0.537  0.00  0.00    +0.029 A 
ATOM     21  C   UNL     1      -2.884 -11.017  -1.053  0.00  0.00    +0.012 A 
ATOM     22  C   UNL     1      -3.554 -12.233  -1.192  0.00  0.00    +0.001 A 
ATOM     23  C   UNL     1      -4.873 -12.339  -0.814  0.00  0.00    +0.002 A 
ATOM     24  C   UNL     1      -5.551 -11.242  -0.293  0.00  0.00    +0.028 A 
ATOM     25  C   UNL     1      -4.898 -10.022  -0.148  0.00  0.00    +0.076 A 
ATOM     26  N   UNL     1      -5.326  -8.812   0.329  0.00  0.00    -0.227 NA
ATOM     27  C   UNL     1      -4.396  -7.897   0.302  0.00  0.00    +0.161 C 
ATOM     28  N   UNL     1      -4.062  -6.616   0.570  0.00  0.00    -0.307 N 
ATOM     29  H   UNL     1      -4.649  -5.944   0.949  0.00  0.00    +0.170 HD
ENDBRANCH  14  17
BRANCH   1  34
ATOM     30  C   UNL     1      -0.018   1.503   0.010  0.00  0.00    +0.044 C 
ATOM     31  C   UNL     1       0.002  -0.004   0.002  0.00  0.00    -0.050 A 
ATOM     32  C   UNL     1       0.006  -0.688  -1.201  0.00  0.00    +0.005 A 
ATOM     33  C   UNL     1       0.025  -2.068  -1.212  0.00  0.00    +0.024 A 
ATOM     34  C   UNL     1       0.040  -2.771  -0.013  0.00  0.00    +0.042 A 
ATOM     35  C   UNL     1       0.037  -2.081   1.193  0.00  0.00    -0.029 A 
ATOM     36  C   UNL     1       0.023  -0.700   1.197  0.00  0.00    +0.008 A 
ATOM     37  C   UNL     1       0.054  -2.839   2.495  0.00  0.00    +0.045 C 
ENDBRANCH   1  34
TORSDOF 2
