REMARK  Name = ZINC35379170
REMARK  9 active torsions:
REMARK  status: ('A' for Active; 'I' for Inactive)
REMARK    1  A    between atoms: C_1  and  C_2
REMARK    2  A    between atoms: C_2  and  N_3
REMARK    3  A    between atoms: C_7  and  C_9
REMARK    4  A    between atoms: C_9  and  N_10
REMARK    5  A    between atoms: C_11  and  C_13
REMARK    6  A    between atoms: N_18  and  S_20
REMARK    7  A    between atoms: S_20  and  C_23
REMARK    8  A    between atoms: C_28  and  C_29
REMARK    9  A    between atoms: C_33  and  C_36
REMARK                            x       y       z     vdW  Elec       q    Type
REMARK                         _______ _______ _______ _____ _____    ______ ____
ROOT
ATOM      1  C   UNL     1      -3.272  -1.057  -4.067  0.00  0.00    +0.091 C 
ATOM      2  C   UNL     1      -4.018  -1.694  -2.893  0.00  0.00    +0.015 C 
ATOM      3  C   UNL     1      -5.463  -1.191  -2.872  0.00  0.00    +0.018 C 
ATOM      4  C   UNL     1      -6.163  -1.604  -4.170  0.00  0.00    +0.109 C 
ATOM      5  N   UNL     1      -5.372  -1.118  -5.309  0.00  0.00    -0.176 NA
ATOM      6  C   UNL     1      -3.946  -1.468  -5.380  0.00  0.00    +0.122 C 
ENDROOT
BRANCH   1   8
ATOM      7  N   UNL     1      -1.048  -1.278  -3.007  0.00  0.00    -0.317 N 
ATOM      8  C   UNL     1      -1.840  -1.527  -4.068  0.00  0.00    +0.217 C 
ATOM      9  O   UNL     1      -1.401  -2.131  -5.024  0.00  0.00    -0.275 OA
ATOM     10  H   UNL     1      -1.399  -0.795  -2.242  0.00  0.00    +0.149 HD
BRANCH   7  11
ATOM     11  C   UNL     1       0.344  -1.735  -3.008  0.00  0.00    +0.089 C 
BRANCH  11  16
ATOM     12  N   UNL     1       0.881   0.128  -1.496  0.00  0.00    +0.382 N 
ATOM     13  C   UNL     1       2.233   0.726  -1.456  0.00  0.00    -0.078 C 
ATOM     14  C   UNL     1       3.165  -0.434  -1.024  0.00  0.00    -0.020 C 
ATOM     15  C   UNL     1       2.526  -1.641  -1.759  0.00  0.00    -0.016 C 
ATOM     16  C   UNL     1       1.016  -1.326  -1.696  0.00  0.00    -0.051 C 
ATOM     17  H   UNL     1       0.357   0.529  -2.259  0.00  0.00    -0.081 HD
BRANCH  12  19
ATOM     18  C   UNL     1      -0.060   1.893  -0.083  0.00  0.00    -0.017 C 
ATOM     19  C   UNL     1       0.188   0.390  -0.227  0.00  0.00    -0.082 C 
ENDBRANCH  12  19
ENDBRANCH  11  16
ENDBRANCH   7  11
ENDBRANCH   1   8
BRANCH   5  20
ATOM     20  S   UNL     1      -6.073  -0.193  -6.490  0.00  0.00    +0.061 S 
ATOM     21  O   UNL     1      -5.342  -0.437  -7.684  0.00  0.00    -0.153 OA
ATOM     22  O   UNL     1      -7.474  -0.410  -6.397  0.00  0.00    -0.153 OA
BRANCH  20  23
ATOM     23  C   UNL     1      -5.795   1.494  -6.065  0.00  0.00    +0.112 A 
ATOM     24  C   UNL     1      -4.960   2.273  -6.846  0.00  0.00    +0.076 A 
ATOM     25  C   UNL     1      -4.742   3.598  -6.512  0.00  0.00    +0.145 A 
ATOM     26  C   UNL     1      -5.364   4.143  -5.390  0.00  0.00    +0.076 A 
ATOM     27  C   UNL     1      -6.199   3.358  -4.612  0.00  0.00    +0.032 A 
ATOM     28  C   UNL     1      -6.416   2.035  -4.955  0.00  0.00    -0.022 A 
ATOM     29  C   UNL     1      -7.329   1.181  -4.114  0.00  0.00    +0.046 C 
ATOM     30  N   UNL     1      -5.133   5.486  -5.062  0.00  0.00    -0.280 N 
ATOM     31  C   UNL     1      -4.582   6.300  -5.989  0.00  0.00    +0.258 C 
ATOM     32  O   UNL     1      -4.345   7.459  -5.718  0.00  0.00    -0.271 OA
ATOM     33  C   UNL     1      -4.264   5.764  -7.362  0.00  0.00    +0.256 C 
ATOM     34  O   UNL     1      -3.925   4.378  -7.269  0.00  0.00    -0.478 OA
ATOM     35  C   UNL     1      -5.486   5.929  -8.269  0.00  0.00    +0.062 C 
ATOM     36  H   UNL     1      -5.364   5.826  -4.184  0.00  0.00    +0.155 HD
ENDBRANCH  20  23
ENDBRANCH   5  20
TORSDOF 6
