REMARK  Name = ZINC63012688
REMARK  2 active torsions:
REMARK  status: ('A' for Active; 'I' for Inactive)
REMARK    1  A    between atoms: N_8  and  C_12
REMARK    2  A    between atoms: C_19  and  C_21
REMARK                            x       y       z     vdW  Elec       q    Type
REMARK                         _______ _______ _______ _____ _____    ______ ____
ROOT
ATOM      1  C   UNL     1      -0.017   1.380   0.010  0.00  0.00    +0.001 A 
ATOM      2  C   UNL     1       1.170   2.090   0.002  0.00  0.00    +0.004 A 
ATOM      3  C   UNL     1       2.380   1.422  -0.004  0.00  0.00    +0.046 A 
ATOM      4  C   UNL     1       2.398   0.034  -0.007  0.00  0.00    +0.125 A 
ATOM      5  C   UNL     1       1.210  -0.670  -0.016  0.00  0.00    +0.008 A 
ATOM      6  C   UNL     1       0.002  -0.004   0.002  0.00  0.00    +0.008 A 
ATOM      7  C   UNL     1       1.243  -2.185  -0.077  0.00  0.00    +0.123 C 
ATOM      8  N   UNL     1       1.782  -2.697   1.188  0.00  0.00    -0.291 NA
ATOM      9  C   UNL     1       3.243  -2.718   1.208  0.00  0.00    +0.126 C 
ATOM     10  C   UNL     1       3.868  -1.340   1.228  0.00  0.00    +0.244 C 
ATOM     11  O   UNL     1       3.584  -0.634   0.014  0.00  0.00    -0.490 OA
ENDROOT
BRANCH   8  12
ATOM     12  C   UNL     1       1.233  -4.024   1.496  0.00  0.00    +0.074 C 
ATOM     13  C   UNL     1       1.756  -4.985   0.537  0.00  0.00    +0.020 C 
ATOM     14  C   UNL     1       1.177  -6.399   0.746  0.00  0.00    +0.002 C 
ATOM     15  C   UNL     1       1.918  -7.056   1.879  0.00  0.00    +0.000 C 
ATOM     16  C   UNL     1       1.205  -6.875   3.233  0.00  0.00    +0.001 C 
ATOM     17  C   UNL     1       0.643  -5.454   3.427  0.00  0.00    +0.020 C 
ATOM     18  C   UNL     1       1.596  -4.390   2.950  0.00  0.00    +0.109 C 
BRANCH  18  19
ATOM     19  C   UNL     1       1.473  -3.199   3.805  0.00  0.00    +0.067 C 
ATOM     20  N   UNL     1       1.379  -2.279   4.466  0.00  0.00    -0.196 NA
ENDBRANCH  18  19
ENDBRANCH   8  12
TORSDOF 2
