REMARK  Name = ZINC11069777
REMARK  6 active torsions:
REMARK  status: ('A' for Active; 'I' for Inactive)
REMARK    1  A    between atoms: C_1  and  C_2
REMARK    2  A    between atoms: C_2  and  N_9
REMARK    3  A    between atoms: C_10  and  C_12
REMARK    4  A    between atoms: C_12  and  S_13
REMARK    5  A    between atoms: S_13  and  C_14
REMARK    6  A    between atoms: N_27  and  C_28
REMARK                            x       y       z     vdW  Elec       q    Type
REMARK                         _______ _______ _______ _____ _____    ______ ____
ROOT
ATOM      1  C   UNL     1       2.510   6.029   0.187  0.00  0.00    +0.173 A 
ATOM      2  N   UNL     1       1.267   6.465   0.201  0.00  0.00    -0.216 NA
ATOM      3  C   UNL     1       0.997   7.755   0.048  0.00  0.00    +0.117 A 
ATOM      4  C   UNL     1       2.007   8.713  -0.144  0.00  0.00    +0.076 A 
ATOM      5  C   UNL     1       1.554  10.096  -0.304  0.00  0.00    -0.023 A 
ATOM      6  C   UNL     1       0.225  10.316  -0.250  0.00  0.00    -0.004 A 
ATOM      7  S   UNL     1      -0.495   8.717   0.012  0.00  0.00    -0.073 S 
ATOM      8  C   UNL     1      -0.484  11.629  -0.383  0.00  0.00    +0.043 C 
ATOM      9  C   UNL     1       0.547  12.755  -0.224  0.00  0.00    +0.005 C 
ATOM     10  C   UNL     1       1.759  12.439  -1.105  0.00  0.00    +0.005 C 
ATOM     11  C   UNL     1       2.527  11.251  -0.524  0.00  0.00    +0.037 C 
ATOM     12  C   UNL     1       3.347   8.211  -0.160  0.00  0.00    +0.263 A 
ATOM     13  O   UNL     1       4.288   8.968  -0.322  0.00  0.00    -0.267 OA
ATOM     14  N   UNL     1       3.553   6.891   0.005  0.00  0.00    -0.284 N 
ENDROOT
BRANCH  14  15
ATOM     15  C   UNL     1       4.922   6.371  -0.009  0.00  0.00    +0.093 C 
ATOM     16  C   UNL     1       5.742   7.008   1.132  0.00  0.00    +0.025 C 
ATOM     17  C   UNL     1       7.153   7.203   0.522  0.00  0.00    +0.002 C 
ATOM     18  C   UNL     1       6.840   7.621  -0.937  0.00  0.00    +0.002 C 
ATOM     19  C   UNL     1       5.620   6.760  -1.324  0.00  0.00    +0.025 C 
ENDBRANCH  14  15
BRANCH   1  20
ATOM     20  S   UNL     1       2.832   4.310   0.398  0.00  0.00    -0.078 S 
BRANCH  20  21
ATOM     21  C   UNL     1       1.140   3.695   0.587  0.00  0.00    +0.173 C 
BRANCH  21  23
ATOM     22  N   UNL     1       0.015   1.522   0.951  0.00  0.00    -0.308 N 
ATOM     23  C   UNL     1       1.168   2.201   0.787  0.00  0.00    +0.224 C 
ATOM     24  O   UNL     1       2.227   1.611   0.800  0.00  0.00    -0.275 OA
ATOM     25  H   UNL     1      -0.832   1.994   0.936  0.00  0.00    +0.149 HD
BRANCH  22  27
ATOM     26  C   UNL     1       0.812  -0.237   2.430  0.00  0.00    +0.033 C 
ATOM     27  C   UNL     1       0.042   0.070   1.144  0.00  0.00    +0.052 C 
ATOM     28  C   UNL     1       0.783  -0.567  -0.030  0.00  0.00    +0.049 C 
ATOM     29  C   UNL     1       0.266  -2.012  -0.274  0.00  0.00    +0.168 C 
ATOM     30  S   UNL     1      -1.538  -1.747   0.019  0.00  0.00    -0.029 S 
ATOM     31  O   UNL     1      -2.094  -2.917   0.602  0.00  0.00    -0.174 OA
ATOM     32  O   UNL     1      -2.127  -1.197  -1.152  0.00  0.00    -0.174 OA
ATOM     33  C   UNL     1      -1.405  -0.434   1.303  0.00  0.00    +0.191 C 
ENDBRANCH  22  27
ENDBRANCH  21  23
ENDBRANCH  20  21
ENDBRANCH   1  20
TORSDOF 5
