REMARK  Name = ZINC10765843
REMARK  9 active torsions:
REMARK  status: ('A' for Active; 'I' for Inactive)
REMARK    1  A    between atoms: C_1  and  C_2
REMARK    2  A    between atoms: C_2  and  C_3
REMARK    3  A    between atoms: C_2  and  C_4
REMARK    4  A    between atoms: C_4  and  C_6
REMARK    5  A    between atoms: C_4  and  O_12
REMARK    6  A    between atoms: O_12  and  C_13
REMARK    7  A    between atoms: C_13  and  C_15
REMARK    8  A    between atoms: C_18  and  S_21
REMARK    9  A    between atoms: S_21  and  C_22
REMARK                            x       y       z     vdW  Elec       q    Type
REMARK                         _______ _______ _______ _____ _____    ______ ____
ROOT
ATOM      1  C   UNL     1       0.061   1.081   0.035  0.00  0.00    +0.265 C 
ENDROOT
BRANCH   1   2
ATOM      2  C   UNL     1      -0.596   1.675  -1.184  0.00  0.00    +0.261 C 
ATOM      3  O   UNL     1      -1.708   1.317  -1.509  0.00  0.00    -0.271 OA
ATOM      4  N   UNL     1       0.052   2.605  -1.913  0.00  0.00    -0.237 N 
ATOM      5  C   UNL     1      -0.575   3.215  -2.938  0.00  0.00    +0.303 C 
ATOM      6  O   UNL     1      -1.726   2.927  -3.205  0.00  0.00    -0.253 OA
ATOM      7  N   UNL     1       0.073   4.145  -3.668  0.00  0.00    -0.313 N 
ATOM      8  H   UNL     1       0.970   2.835  -1.701  0.00  0.00    +0.159 HD
ATOM      9  H   UNL     1       0.991   4.375  -3.455  0.00  0.00    +0.146 HD
ATOM     10  H   UNL     1      -0.378   4.584  -4.405  0.00  0.00    +0.146 HD
ENDBRANCH   1   2
BRANCH   1  12
ATOM     11  C   UNL     1      -2.095   0.982   1.294  0.00  0.00    +0.011 C 
ATOM     12  C   UNL     1      -0.675   1.552   1.291  0.00  0.00    +0.033 C 
ATOM     13  C   UNL     1       0.072   1.064   2.534  0.00  0.00    +0.011 C 
ENDBRANCH   1  12
BRANCH   1  14
ATOM     14  O   UNL     1       1.446   1.512   0.097  0.00  0.00    -0.448 OA
BRANCH  14  15
ATOM     15  C   UNL     1       2.323   0.670   0.678  0.00  0.00    +0.340 C 
ATOM     16  O   UNL     1       1.941  -0.395   1.121  0.00  0.00    -0.245 OA
BRANCH  15  17
ATOM     17  C   UNL     1       3.746   1.040   0.776  0.00  0.00    +0.059 A 
ATOM     18  C   UNL     1       4.189   2.263   0.261  0.00  0.00    +0.016 A 
ATOM     19  C   UNL     1       5.508   2.606   0.357  0.00  0.00    +0.015 A 
ATOM     20  C   UNL     1       6.413   1.734   0.958  0.00  0.00    +0.013 A 
ATOM     21  C   UNL     1       5.976   0.513   1.468  0.00  0.00    +0.015 A 
ATOM     22  C   UNL     1       4.658   0.167   1.379  0.00  0.00    +0.016 A 
BRANCH  20  23
ATOM     23  S   UNL     1       8.115   2.177   1.074  0.00  0.00    -0.056 S 
BRANCH  23  24
ATOM     24  C   UNL     1       8.197   3.812   0.293  0.00  0.00    +0.404 C 
ATOM     25  F   UNL     1       7.767   3.717  -1.034  0.00  0.00    -0.197 F 
ATOM     26  F   UNL     1       7.372   4.703   0.989  0.00  0.00    -0.197 F 
ENDBRANCH  23  24
ENDBRANCH  20  23
ENDBRANCH  15  17
ENDBRANCH  14  15
ENDBRANCH   1  14
TORSDOF 7
