REMARK  Name = ZINC23862480
REMARK  3 active torsions:
REMARK  status: ('A' for Active; 'I' for Inactive)
REMARK    1  A    between atoms: C_3  and  O_10
REMARK    2  A    between atoms: O_10  and  S_11
REMARK    3  A    between atoms: S_11  and  C_14
REMARK                            x       y       z     vdW  Elec       q    Type
REMARK                         _______ _______ _______ _____ _____    ______ ____
ROOT
ATOM      1  S   UNL     1       4.130   2.260   1.365  0.00  0.00    +0.151 S 
ATOM      2  O   UNL     1       5.262   3.099   1.182  0.00  0.00    -0.131 OA
ATOM      3  O   UNL     1       3.027   2.635   2.180  0.00  0.00    -0.131 OA
ENDROOT
BRANCH   1   4
ATOM      4  C   UNL     1       4.732   0.733   2.004  0.00  0.00    +0.130 A 
ATOM      5  C   UNL     1       3.893  -0.091   2.730  0.00  0.00    +0.032 A 
ATOM      6  C   UNL     1       4.364  -1.289   3.233  0.00  0.00    +0.023 A 
ATOM      7  C   UNL     1       5.677  -1.664   3.009  0.00  0.00    +0.059 A 
ATOM      8  C   UNL     1       6.518  -0.839   2.282  0.00  0.00    +0.061 A 
ATOM      9  C   UNL     1       6.042   0.357   1.775  0.00  0.00    +0.052 A 
ATOM     10 CL   UNL     1       8.165  -1.308   2.001  0.00  0.00    -0.082 Cl
ATOM     11 CL   UNL     1       6.270  -3.169   3.641  0.00  0.00    -0.082 Cl
ENDBRANCH   1   4
BRANCH   1  12
ATOM     12  O   UNL     1       3.569   1.978  -0.022  0.00  0.00    -0.338 OA
BRANCH  12  15
ATOM     13  C   UNL     1      -0.017   1.378   0.010  0.00  0.00    +0.023 A 
ATOM     14  C   UNL     1       1.183   2.071   0.002  0.00  0.00    +0.054 A 
ATOM     15  C   UNL     1       2.368   1.341  -0.013  0.00  0.00    +0.206 A 
ATOM     16  C   UNL     1       2.305  -0.044  -0.020  0.00  0.00    +0.260 A 
ATOM     17  N   UNL     1       1.143  -0.666  -0.013  0.00  0.00    -0.229 NA
ATOM     18  C   UNL     1       0.002  -0.004   0.002  0.00  0.00    +0.113 A 
ATOM     19  N   UNL     1       3.452  -0.767  -0.035  0.00  0.00    +0.079 N 
ATOM     20  O   UNL     1       4.521  -0.204  -0.042  0.00  0.00    -0.124 OA
ATOM     21  O   UNL     1       3.405  -1.975  -0.041  0.00  0.00    -0.124 OA
ENDBRANCH  12  15
ENDBRANCH   1  12
TORSDOF 3
