REMARK  Name = ZINC36610734
REMARK  15 active torsions:
REMARK  status: ('A' for Active; 'I' for Inactive)
REMARK    1  A    between atoms: C_1  and  C_2
REMARK    2  A    between atoms: C_2  and  C_3
REMARK    3  A    between atoms: C_3  and  C_4
REMARK    4  A    between atoms: C_4  and  N_5
REMARK    5  A    between atoms: C_6  and  C_8
REMARK    6  A    between atoms: C_8  and  C_10
REMARK    7  A    between atoms: C_8  and  N_22
REMARK    8  A    between atoms: C_19  and  O_20
REMARK    9  A    between atoms: O_20  and  C_21
REMARK   10  A    between atoms: N_22  and  C_23
REMARK   11  A    between atoms: C_29  and  C_31
REMARK   12  A    between atoms: C_31  and  C_32
REMARK   13  A    between atoms: C_32  and  C_33
REMARK   14  A    between atoms: C_36  and  O_39
REMARK   15  A    between atoms: O_39  and  C_40
REMARK                            x       y       z     vdW  Elec       q    Type
REMARK                         _______ _______ _______ _____ _____    ______ ____
ROOT
ATOM      1  C   UNL     1       2.278  -4.185  -3.833  0.00  0.00    +0.201 C 
ENDROOT
BRANCH   1   2
ATOM      2  C   UNL     1       3.631  -3.617  -3.490  0.00  0.00    +0.031 A 
ATOM      3  C   UNL     1       4.155  -2.544  -4.231  0.00  0.00    -0.009 A 
ATOM      4  C   UNL     1       3.439  -1.978  -5.300  0.00  0.00    +0.009 A 
ATOM      5  C   UNL     1       3.977  -0.940  -5.995  0.00  0.00    +0.001 A 
ATOM      6  C   UNL     1       5.229  -0.427  -5.665  0.00  0.00    +0.001 A 
ATOM      7  C   UNL     1       5.951  -0.949  -4.636  0.00  0.00    +0.008 A 
ATOM      8  C   UNL     1       5.429  -2.022  -3.894  0.00  0.00    -0.017 A 
ATOM      9  C   UNL     1       6.146  -2.587  -2.824  0.00  0.00    +0.012 A 
ATOM     10  C   UNL     1       5.611  -3.624  -2.127  0.00  0.00    +0.046 A 
ATOM     11  C   UNL     1       4.352  -4.138  -2.454  0.00  0.00    +0.126 A 
BRANCH  11  12
ATOM     12  O   UNL     1       3.842  -5.171  -1.735  0.00  0.00    -0.495 OA
ATOM     13  C   UNL     1       4.585  -5.594  -0.590  0.00  0.00    +0.277 C 
ENDBRANCH  11  12
ENDBRANCH   1   2
BRANCH   1  15
ATOM     14  N   UNL     1       1.071  -2.759  -2.212  0.00  0.00    -0.313 N 
ATOM     15  C   UNL     1       1.344  -3.998  -2.665  0.00  0.00    +0.239 C 
ATOM     16  O   UNL     1       0.838  -4.964  -2.133  0.00  0.00    -0.273 OA
ATOM     17  H   UNL     1       1.476  -1.987  -2.637  0.00  0.00    +0.149 HD
BRANCH  14  18
ATOM     18  C   UNL     1       0.163  -2.578  -1.076  0.00  0.00    +0.104 C 
BRANCH  18  19
ATOM     19  C   UNL     1       0.026  -1.085  -0.766  0.00  0.00    +0.018 C 
BRANCH  19  21
ATOM     20  C   UNL     1      -1.059   0.596   0.729  0.00  0.00    +0.004 C 
ATOM     21  C   UNL     1      -0.922  -0.896   0.419  0.00  0.00    -0.002 C 
ENDBRANCH  19  21
ENDBRANCH  18  19
ENDBRANCH  14  18
ENDBRANCH   1  15
BRANCH   1  22
ATOM     22  N   UNL     1       2.409  -5.614  -4.130  0.00  0.00    -0.255 N 
ATOM     23  C   UNL     1       1.326  -6.329  -4.492  0.00  0.00    +0.221 C 
ATOM     24  O   UNL     1       0.263  -5.773  -4.667  0.00  0.00    -0.275 OA
BRANCH  22  25
ATOM     25  C   UNL     1       3.659  -6.235  -4.037  0.00  0.00    +0.037 A 
ATOM     26  C   UNL     1       3.856  -7.271  -3.133  0.00  0.00    +0.023 A 
ATOM     27  C   UNL     1       5.091  -7.883  -3.044  0.00  0.00    +0.002 A 
ATOM     28  C   UNL     1       6.131  -7.465  -3.854  0.00  0.00    +0.000 A 
ATOM     29  C   UNL     1       5.939  -6.434  -4.756  0.00  0.00    +0.002 A 
ATOM     30  C   UNL     1       4.704  -5.822  -4.853  0.00  0.00    +0.023 A 
ENDBRANCH  22  25
BRANCH  23  31
ATOM     31  C   UNL     1       1.436  -7.821  -4.679  0.00  0.00    +0.101 C 
BRANCH  31  32
ATOM     32  C   UNL     1       0.115  -8.365  -5.224  0.00  0.00    +0.044 C 
BRANCH  32  33
ATOM     33  C   UNL     1       0.225  -9.856  -5.412  0.00  0.00    -0.047 A 
ATOM     34  C   UNL     1       0.672 -10.369  -6.616  0.00  0.00    +0.007 A 
ATOM     35  C   UNL     1       0.774 -11.736  -6.790  0.00  0.00    +0.046 A 
ATOM     36  C   UNL     1       0.427 -12.594  -5.757  0.00  0.00    +0.120 A 
ATOM     37  C   UNL     1      -0.022 -12.076  -4.550  0.00  0.00    +0.046 A 
ATOM     38  C   UNL     1      -0.117 -10.709  -4.379  0.00  0.00    +0.007 A 
BRANCH  36  39
ATOM     39  O   UNL     1       0.525 -13.938  -5.926  0.00  0.00    -0.495 OA
ATOM     40  C   UNL     1       0.150 -14.761  -4.819  0.00  0.00    +0.277 C 
ENDBRANCH  36  39
ENDBRANCH  32  33
ENDBRANCH  31  32
ENDBRANCH  23  31
ENDBRANCH   1  22
TORSDOF 12
