REMARK  Name = ZINC20906404
REMARK  7 active torsions:
REMARK  status: ('A' for Active; 'I' for Inactive)
REMARK    1  A    between atoms: C_3  and  C_8
REMARK    2  A    between atoms: C_5  and  O_7
REMARK    3  A    between atoms: N_9  and  N_10
REMARK    4  A    between atoms: C_13  and  S_16
REMARK    5  A    between atoms: S_16  and  C_17
REMARK    6  A    between atoms: C_17  and  C_18
REMARK    7  A    between atoms: N_20  and  C_21
REMARK                            x       y       z     vdW  Elec       q    Type
REMARK                         _______ _______ _______ _____ _____    ______ ____
ROOT
ATOM      1  N   UNL     1      -3.823   5.509   3.324  0.00  0.00    -0.205 N 
ATOM      2  C   UNL     1      -4.582   6.509   2.734  0.00  0.00    +0.232 A 
ATOM      3  N   UNL     1      -4.958   7.685   3.321  0.00  0.00    -0.186 NA
ATOM      4  C   UNL     1      -5.693   8.394   2.414  0.00  0.00    +0.211 A 
ATOM      5  N   UNL     1      -5.768   7.687   1.312  0.00  0.00    -0.144 NA
ATOM      6  N   UNL     1      -5.059   6.495   1.513  0.00  0.00    -0.245 N 
ATOM      7  H   UNL     1      -3.467   5.627   4.358  0.00  0.00    +0.177 HD
ATOM      8  H   UNL     1      -4.866   5.634   0.857  0.00  0.00    +0.192 HD
ENDROOT
BRANCH   1  10
ATOM      9  C   UNL     1      -2.799   3.414   3.155  0.00  0.00    +0.138 C 
ATOM     10  N   UNL     1      -3.509   4.350   2.603  0.00  0.00    -0.188 NA
BRANCH   9  13
ATOM     11  C   UNL     1      -2.602   0.901   0.373  0.00  0.00    +0.004 A 
ATOM     12  C   UNL     1      -2.918   2.042   1.082  0.00  0.00    +0.010 A 
ATOM     13  C   UNL     1      -2.469   2.193   2.396  0.00  0.00    -0.002 A 
ATOM     14  C   UNL     1      -1.705   1.185   2.988  0.00  0.00    +0.054 A 
ATOM     15  C   UNL     1      -1.399   0.043   2.268  0.00  0.00    +0.117 A 
ATOM     16  C   UNL     1      -1.850  -0.098   0.963  0.00  0.00    +0.045 A 
BRANCH  15  17
ATOM     17  O   UNL     1      -0.656  -0.941   2.840  0.00  0.00    -0.507 OA
ATOM     18  H   UNL     1      -0.412  -1.849   2.269  0.00  0.00    +0.292 HD
ENDBRANCH  15  17
ENDBRANCH   9  13
ENDBRANCH   1  10
BRANCH   4  19
ATOM     19  S   UNL     1      -6.414   9.980   2.678  0.00  0.00    -0.075 S 
BRANCH  19  20
ATOM     20  C   UNL     1      -7.241  10.353   1.107  0.00  0.00    +0.173 C 
BRANCH  20  21
ATOM     21  C   UNL     1      -7.907  11.702   1.198  0.00  0.00    +0.228 C 
ATOM     22  O   UNL     1      -7.832  12.348   2.222  0.00  0.00    -0.275 OA
ATOM     23  N   UNL     1      -8.587  12.190   0.142  0.00  0.00    -0.280 N 
ATOM     24  H   UNL     1      -8.586  11.644  -0.813  0.00  0.00    +0.155 HD
BRANCH  23  25
ATOM     25  C   UNL     1      -9.296  13.394   0.260  0.00  0.00    +0.105 A 
ATOM     26  C   UNL     1     -10.620  13.384   0.681  0.00  0.00    +0.147 A 
ATOM     27  C   UNL     1     -11.315  14.575   0.801  0.00  0.00    +0.040 A 
ATOM     28  C   UNL     1     -10.695  15.773   0.494  0.00  0.00    +0.006 A 
ATOM     29  C   UNL     1      -9.379  15.786   0.070  0.00  0.00    +0.040 A 
ATOM     30  C   UNL     1      -8.677  14.600  -0.048  0.00  0.00    +0.147 A 
ATOM     31  F   UNL     1      -7.391  14.614  -0.463  0.00  0.00    -0.203 F 
ATOM     32  F   UNL     1     -11.228  12.214   0.976  0.00  0.00    -0.203 F 
ENDBRANCH  23  25
ENDBRANCH  20  21
ENDBRANCH  19  20
ENDBRANCH   4  19
TORSDOF 7
