REMARK  Name = ZINC43737072
REMARK  9 active torsions:
REMARK  status: ('A' for Active; 'I' for Inactive)
REMARK    1  A    between atoms: C_1  and  C_2
REMARK    2  A    between atoms: C_2  and  C_4
REMARK    3  A    between atoms: C_4  and  O_41
REMARK    4  A    between atoms: C_9  and  C_40
REMARK    5  A    between atoms: N_21  and  O_22
REMARK    6  A    between atoms: O_22  and  C_23
REMARK    7  A    between atoms: C_23  and  C_24
REMARK    8  A    between atoms: N_26  and  C_27
REMARK    9  A    between atoms: C_38  and  C_39
REMARK                            x       y       z     vdW  Elec       q    Type
REMARK                         _______ _______ _______ _____ _____    ______ ____
ROOT
ATOM      1  C   UNL     1      -0.208  -0.905  -1.406  0.00  0.00    +0.129 C 
ATOM      2  C   UNL     1      -1.533  -1.559  -1.872  0.00  0.00    +0.043 C 
ATOM      3  C   UNL     1      -1.235  -3.073  -2.045  0.00  0.00    +0.008 C 
ATOM      4  C   UNL     1       0.295  -3.088  -2.241  0.00  0.00    +0.002 C 
ATOM      5  C   UNL     1       0.741  -2.087  -1.152  0.00  0.00    +0.007 C 
ATOM      6  C   UNL     1       2.212  -1.775  -1.303  0.00  0.00    +0.010 C 
ATOM      7  C   UNL     1       2.913  -2.922  -2.047  0.00  0.00    +0.005 C 
ATOM      8  C   UNL     1       2.363  -4.265  -1.589  0.00  0.00    +0.002 C 
ATOM      9  C   UNL     1       0.925  -4.456  -2.007  0.00  0.00    -0.003 C 
ATOM     10  C   UNL     1       0.763  -5.270  -3.287  0.00  0.00    +0.008 C 
ATOM     11  C   UNL     1       1.488  -6.607  -3.184  0.00  0.00    +0.031 C 
ATOM     12  C   UNL     1       2.953  -6.324  -2.921  0.00  0.00    -0.062 C 
ATOM     13  C   UNL     1       3.850  -6.894  -3.719  0.00  0.00    +0.026 C 
ATOM     14  C   UNL     1       5.291  -6.689  -3.503  0.00  0.00    +0.080 C 
ATOM     15  N   UNL     1       6.164  -7.051  -4.392  0.00  0.00    -0.089 NA
ATOM     16  C   UNL     1       5.723  -6.062  -2.195  0.00  0.00    +0.059 C 
ATOM     17  C   UNL     1       4.756  -4.928  -1.866  0.00  0.00    +0.017 C 
ATOM     18  C   UNL     1       3.316  -5.413  -1.798  0.00  0.00    -0.007 C 
ATOM     19  C   UNL     1       3.218  -6.258  -0.520  0.00  0.00    +0.016 C 
ATOM     20  C   UNL     1       0.455  -2.621   0.254  0.00  0.00    +0.015 C 
ENDROOT
BRANCH   1  22
ATOM     21  C   UNL     1       0.568   0.920   0.287  0.00  0.00    +0.089 C 
ATOM     22  C   UNL     1      -0.424  -0.132  -0.134  0.00  0.00    +0.162 C 
ATOM     23  O   UNL     1      -1.394  -0.356   0.551  0.00  0.00    -0.295 OA
ENDBRANCH   1  22
BRANCH   1  24
ATOM     24  O   UNL     1       0.307  -0.057  -2.430  0.00  0.00    -0.381 OA
ATOM     25  H   UNL     1      -0.267   0.690  -2.647  0.00  0.00    +0.211 HD
ENDBRANCH   1  24
BRANCH  15  26
ATOM     26  O   UNL     1       5.737  -7.657  -5.599  0.00  0.00    -0.384 OA
BRANCH  26  27
ATOM     27  C   UNL     1       6.803  -8.003  -6.485  0.00  0.00    +0.358 C 
BRANCH  27  28
ATOM     28  C   UNL     1       6.236  -8.637  -7.729  0.00  0.00    +0.254 C 
ATOM     29  O   UNL     1       5.037  -8.778  -7.846  0.00  0.00    -0.272 OA
ATOM     30  N   UNL     1       7.062  -9.047  -8.712  0.00  0.00    -0.301 N 
ATOM     31  H   UNL     1       8.021  -8.934  -8.619  0.00  0.00    +0.150 HD
BRANCH  30  32
ATOM     32  C   UNL     1       6.511  -9.663  -9.922  0.00  0.00    +0.159 C 
ATOM     33  C   UNL     1       7.491  -9.481 -11.084  0.00  0.00    +0.032 C 
ATOM     34  C   UNL     1       6.763  -9.537 -12.415  0.00  0.00    +0.004 C 
ATOM     35  C   UNL     1       6.177 -10.899 -12.735  0.00  0.00    +0.019 C 
ATOM     36  C   UNL     1       5.042 -11.245 -11.769  0.00  0.00    +0.104 C 
ATOM     37  N   UNL     1       5.620 -11.874 -10.570  0.00  0.00    -0.314 N 
ATOM     38  C   UNL     1       6.305 -11.145  -9.690  0.00  0.00    +0.233 C 
ATOM     39  O   UNL     1       6.769 -11.672  -8.701  0.00  0.00    -0.274 OA
ATOM     40  H   UNL     1       5.498 -12.825 -10.418  0.00  0.00    +0.149 HD
ENDBRANCH  30  32
ENDBRANCH  27  28
ENDBRANCH  26  27
ENDBRANCH  15  26
TORSDOF 6
