REMARK  Name = ZINC58941869
REMARK  6 active torsions:
REMARK  status: ('A' for Active; 'I' for Inactive)
REMARK    1  A    between atoms: C_4  and  N_7
REMARK    2  A    between atoms: N_9  and  C_26
REMARK    3  A    between atoms: C_13  and  C_16
REMARK    4  A    between atoms: N_18  and  C_19
REMARK    5  A    between atoms: C_26  and  C_27
REMARK    6  A    between atoms: C_27  and  C_28
REMARK                            x       y       z     vdW  Elec       q    Type
REMARK                         _______ _______ _______ _____ _____    ______ ____
ROOT
ATOM      1  N   UNL     1       3.589  -0.612  -0.016  0.00  0.00    -0.226 NA
ATOM      2  C   UNL     1       3.783  -1.643   0.773  0.00  0.00    +0.164 C 
ATOM      3  N   UNL     1       4.984  -2.331   0.776  0.00  0.00    -0.250 N 
ATOM      4  C   UNL     1       5.150  -3.537   1.298  0.00  0.00    +0.223 C 
ATOM      5  O   UNL     1       6.229  -4.051   1.098  0.00  0.00    -0.275 OA
ATOM      6  C   UNL     1       4.187  -4.344   2.098  0.00  0.00    +0.120 C 
ATOM      7  C   UNL     1       2.731  -4.018   1.764  0.00  0.00    +0.149 C 
ATOM      8  S   UNL     1       2.522  -2.207   1.883  0.00  0.00    -0.077 S 
ENDROOT
BRANCH   1  12
ATOM      9  C   UNL     1      -0.030   1.394   0.056  0.00  0.00    +0.000 A 
ATOM     10  C   UNL     1       1.154   2.110   0.049  0.00  0.00    +0.002 A 
ATOM     11  C   UNL     1       2.364   1.448   0.025  0.00  0.00    +0.028 A 
ATOM     12  C   UNL     1       2.391   0.051   0.008  0.00  0.00    +0.067 A 
ATOM     13  C   UNL     1       1.192  -0.664   0.015  0.00  0.00    +0.028 A 
ATOM     14  C   UNL     1      -0.010   0.011   0.039  0.00  0.00    +0.002 A 
ENDBRANCH   1  12
BRANCH   7  15
ATOM     15  C   UNL     1       1.816  -4.703   2.747  0.00  0.00    +0.231 C 
ATOM     16  O   UNL     1       2.157  -4.831   3.904  0.00  0.00    -0.274 OA
ATOM     17  N   UNL     1       0.620  -5.172   2.340  0.00  0.00    -0.285 N 
ATOM     18  H   UNL     1       0.319  -5.011   1.433  0.00  0.00    +0.155 HD
BRANCH  17  19
ATOM     19  C   UNL     1      -0.187  -5.892   3.228  0.00  0.00    +0.035 A 
ATOM     20  C   UNL     1      -0.965  -6.946   2.763  0.00  0.00    +0.023 A 
ATOM     21  C   UNL     1      -1.760  -7.655   3.641  0.00  0.00    +0.003 A 
ATOM     22  C   UNL     1      -1.784  -7.318   4.982  0.00  0.00    +0.020 A 
ATOM     23  C   UNL     1      -1.011  -6.270   5.449  0.00  0.00    +0.043 A 
ATOM     24  C   UNL     1      -0.208  -5.559   4.575  0.00  0.00    +0.043 A 
ATOM     25 CL   UNL     1      -1.044  -5.850   7.133  0.00  0.00    -0.083 Cl
ENDBRANCH  17  19
ENDBRANCH   7  15
BRANCH   3  26
ATOM     26  C   UNL     1       6.145  -1.683   0.162  0.00  0.00    +0.120 C 
BRANCH  26  27
ATOM     27  C   UNL     1       6.888  -0.862   1.217  0.00  0.00    +0.054 C 
BRANCH  27  28
ATOM     28  C   UNL     1       8.084  -0.196   0.585  0.00  0.00    -0.042 A 
ATOM     29  C   UNL     1       9.303  -0.848   0.560  0.00  0.00    +0.007 A 
ATOM     30  C   UNL     1      10.402  -0.241  -0.019  0.00  0.00    +0.050 A 
ATOM     31  C   UNL     1      10.284   1.022  -0.575  0.00  0.00    +0.166 A 
ATOM     32  C   UNL     1       9.056   1.679  -0.550  0.00  0.00    +0.166 A 
ATOM     33  C   UNL     1       7.957   1.062   0.027  0.00  0.00    +0.053 A 
ATOM     34  O   UNL     1       9.199   2.894  -1.154  0.00  0.00    -0.453 OA
ATOM     35  C   UNL     1      10.616   3.145  -1.184  0.00  0.00    +0.466 C 
ATOM     36  O   UNL     1      11.196   1.827  -1.195  0.00  0.00    -0.453 OA
ENDBRANCH  27  28
ENDBRANCH  26  27
ENDBRANCH   3  26
TORSDOF 6
