REMARK  Name = ZINC03841107
REMARK  11 active torsions:
REMARK  status: ('A' for Active; 'I' for Inactive)
REMARK    1  A    between atoms: C_1  and  C_2
REMARK    2  A    between atoms: C_5  and  O_37
REMARK    3  A    between atoms: C_7  and  C_34
REMARK    4  A    between atoms: C_7  and  C_35
REMARK    5  A    between atoms: C_17  and  C_19
REMARK    6  A    between atoms: C_19  and  O_20
REMARK    7  A    between atoms: O_20  and  C_21
REMARK    8  A    between atoms: C_22  and  C_24
REMARK    9  A    between atoms: C_24  and  C_25
REMARK   10  A    between atoms: N_27  and  C_28
REMARK   11  A    between atoms: C_35  and  O_36
REMARK                            x       y       z     vdW  Elec       q    Type
REMARK                         _______ _______ _______ _____ _____    ______ ____
ROOT
ATOM      1  C   UNL     1      -1.691  -0.295  -0.864  0.00  0.00    +0.012 C 
ATOM      2  C   UNL     1      -0.884  -1.226   0.043  0.00  0.00    -0.019 C 
ATOM      3  C   UNL     1      -1.242  -0.964   1.510  0.00  0.00    +0.010 C 
ATOM      4  C   UNL     1      -2.715  -1.281   1.762  0.00  0.00    +0.032 C 
ATOM      5  C   UNL     1      -2.960  -2.761   1.453  0.00  0.00    +0.123 C 
ATOM      6  C   UNL     1      -2.649  -3.012  -0.021  0.00  0.00    +0.021 C 
ATOM      7  C   UNL     1      -1.183  -2.682  -0.320  0.00  0.00    +0.011 C 
ATOM      8  C   UNL     1      -0.973  -2.874  -1.835  0.00  0.00    +0.049 C 
ATOM      9  C   UNL     1       0.315  -2.241  -2.229  0.00  0.00    +0.015 A 
ATOM     10  C   UNL     1       1.066  -1.368  -1.509  0.00  0.00    +0.058 A 
ATOM     11  N   UNL     1       2.184  -0.942  -2.092  0.00  0.00    -0.229 NA
ATOM     12  C   UNL     1       2.545  -1.340  -3.294  0.00  0.00    +0.165 A 
ATOM     13  S   UNL     1       1.250  -2.417  -3.725  0.00  0.00    -0.057 S 
ATOM     14  N   UNL     1       3.671  -0.990  -4.029  0.00  0.00    -0.263 N 
ATOM     15  C   UNL     1       3.864  -1.512  -5.257  0.00  0.00    +0.244 C 
ATOM     16  O   UNL     1       3.055  -2.288  -5.719  0.00  0.00    -0.273 OA
ATOM     17  C   UNL     1       0.614  -0.935  -0.123  0.00  0.00    +0.054 C 
ATOM     18  C   UNL     1      -2.914  -4.482  -0.352  0.00  0.00    +0.016 C 
ATOM     19  H   UNL     1       4.318  -0.369  -3.659  0.00  0.00    +0.157 HD
ENDROOT
BRANCH   5  20
ATOM     20  O   UNL     1      -4.327  -3.086   1.715  0.00  0.00    -0.391 OA
ATOM     21  H   UNL     1      -4.594  -2.949   2.635  0.00  0.00    +0.210 HD
ENDBRANCH   5  20
BRANCH  15  22
ATOM     22  C   UNL     1       5.085  -1.132  -6.054  0.00  0.00    +0.255 C 
BRANCH  22  23
ATOM     23  O   UNL     1       5.064  -1.812  -7.311  0.00  0.00    -0.374 OA
ATOM     24  C   UNL     1       6.184  -1.519  -8.148  0.00  0.00    +0.194 C 
ENDBRANCH  22  23
ENDBRANCH  15  22
BRANCH  17  25
ATOM     25  C   UNL     1       0.864   0.564   0.050  0.00  0.00    +0.106 C 
BRANCH  25  26
ATOM     26  C   UNL     1       2.348   0.826   0.077  0.00  0.00    +0.218 C 
ATOM     27  O   UNL     1       3.128  -0.096  -0.032  0.00  0.00    -0.275 OA
ATOM     28  N   UNL     1       2.807   2.084   0.221  0.00  0.00    -0.285 N 
ATOM     29  H   UNL     1       2.187   2.829   0.229  0.00  0.00    +0.155 HD
BRANCH  28  30
ATOM     30  C   UNL     1       4.180   2.316   0.360  0.00  0.00    +0.033 A 
ATOM     31  C   UNL     1       4.996   1.346   0.927  0.00  0.00    +0.023 A 
ATOM     32  C   UNL     1       6.352   1.575   1.056  0.00  0.00    +0.002 A 
ATOM     33  C   UNL     1       6.895   2.774   0.633  0.00  0.00    +0.000 A 
ATOM     34  C   UNL     1       6.085   3.745   0.073  0.00  0.00    +0.002 A 
ATOM     35  C   UNL     1       4.729   3.519  -0.065  0.00  0.00    +0.023 A 
ENDBRANCH  28  30
ENDBRANCH  25  26
ENDBRANCH  17  25
BRANCH   6  36
ATOM     36  C   UNL     1      -3.552  -2.131  -0.887  0.00  0.00    +0.165 C 
BRANCH  36  37
ATOM     37  O   UNL     1      -4.910  -2.552  -0.740  0.00  0.00    -0.394 OA
ATOM     38  H   UNL     1      -5.540  -2.037  -1.262  0.00  0.00    +0.209 HD
ENDBRANCH  36  37
ENDBRANCH   6  36
TORSDOF 8
