REMARK  Name = ZINC35926699
REMARK  4 active torsions:
REMARK  status: ('A' for Active; 'I' for Inactive)
REMARK    1  A    between atoms: C_2  and  C_24
REMARK    2  A    between atoms: C_16  and  C_18
REMARK    3  A    between atoms: C_24  and  N_25
REMARK    4  A    between atoms: N_28  and  C_31
REMARK                            x       y       z     vdW  Elec       q    Type
REMARK                         _______ _______ _______ _____ _____    ______ ____
ROOT
ATOM      1  C   UNL     1       1.268   1.080  -2.169  0.00  0.00    +0.094 A 
ATOM      2  C   UNL     1       2.411   1.755  -1.853  0.00  0.00    +0.064 A 
ATOM      3  N   UNL     1       3.478   1.093  -1.414  0.00  0.00    -0.219 NA
ATOM      4  C   UNL     1       3.463  -0.218  -1.274  0.00  0.00    +0.199 A 
ATOM      5  N   UNL     1       2.352  -0.944  -1.574  0.00  0.00    -0.295 N 
ATOM      6  H   UNL     1       2.357  -1.908  -1.466  0.00  0.00    +0.172 HD
ATOM      7  C   UNL     1       1.243  -0.319  -2.023  0.00  0.00    +0.253 A 
ATOM      8  O   UNL     1       0.238  -0.955  -2.296  0.00  0.00    -0.268 OA
ATOM      9  N   UNL     1       4.583  -0.859  -0.819  0.00  0.00    -0.300 N 
ATOM     10  C   UNL     1       5.769  -0.051  -0.496  0.00  0.00    +0.109 C 
ATOM     11  C   UNL     1       6.441  -0.488   0.807  0.00  0.00    +0.038 C 
ATOM     12  C   UNL     1       5.397  -0.805   1.859  0.00  0.00    +0.109 C 
ATOM     13  N   UNL     1       4.996  -2.202   1.691  0.00  0.00    -0.300 N 
ATOM     14  C   UNL     1       4.035  -2.655   0.747  0.00  0.00    +0.126 C 
ATOM     15  C   UNL     1       4.540  -2.304  -0.674  0.00  0.00    +0.127 C 
ATOM     16  C   UNL     1       5.577  -3.122   2.486  0.00  0.00    +0.219 C 
ATOM     17  O   UNL     1       6.464  -2.794   3.245  0.00  0.00    -0.275 OA
ENDROOT
BRANCH  16  18
ATOM     18  C   UNL     1       5.124  -4.558   2.432  0.00  0.00    +0.075 C 
ATOM     19  C   UNL     1       3.782  -4.697   3.155  0.00  0.00    +0.013 C 
ATOM     20  C   UNL     1       3.322  -6.155   3.100  0.00  0.00    +0.001 C 
ATOM     21  C   UNL     1       4.364  -7.045   3.783  0.00  0.00    +0.000 C 
ATOM     22  C   UNL     1       5.705  -6.905   3.060  0.00  0.00    +0.001 C 
ATOM     23  C   UNL     1       6.165  -5.447   3.115  0.00  0.00    +0.013 C 
ENDBRANCH  16  18
BRANCH   2  24
ATOM     24  C   UNL     1       2.464   3.254  -2.001  0.00  0.00    +0.140 C 
BRANCH  24  25
ATOM     25  N   UNL     1       2.630   3.872  -0.679  0.00  0.00    -0.300 NA
ATOM     26  C   UNL     1       1.443   3.650   0.159  0.00  0.00    +0.066 C 
ATOM     27  C   UNL     1       1.680   4.256   1.544  0.00  0.00    -0.063 C 
ATOM     28  N   UNL     1       1.945   5.694   1.411  0.00  0.00    +0.383 N 
ATOM     29  C   UNL     1       3.148   5.898   0.593  0.00  0.00    -0.063 C 
ATOM     30  C   UNL     1       2.923   5.307  -0.800  0.00  0.00    +0.066 C 
ATOM     31  H   UNL     1       1.157   6.142   0.968  0.00  0.00    -0.081 HD
BRANCH  28  32
ATOM     32  C   UNL     1       2.155   6.278   2.743  0.00  0.00    -0.068 C 
ATOM     33  C   UNL     1       0.902   6.067   3.595  0.00  0.00    -0.015 C 
ATOM     34  C   UNL     1       1.120   6.676   4.982  0.00  0.00    -0.002 C 
ATOM     35  C   UNL     1       1.397   8.174   4.844  0.00  0.00    -0.000 C 
ATOM     36  C   UNL     1       2.650   8.385   3.991  0.00  0.00    -0.002 C 
ATOM     37  C   UNL     1       2.432   7.777   2.605  0.00  0.00    -0.015 C 
ENDBRANCH  28  32
ENDBRANCH  24  25
ENDBRANCH   2  24
TORSDOF 4
