REMARK  Name = ZINC65416177
REMARK  3 active torsions:
REMARK  status: ('A' for Active; 'I' for Inactive)
REMARK    1  A    between atoms: C_3  and  C_8
REMARK    2  A    between atoms: C_10  and  N_11
REMARK    3  A    between atoms: C_18  and  C_20
REMARK                            x       y       z     vdW  Elec       q    Type
REMARK                         _______ _______ _______ _____ _____    ______ ____
ROOT
ATOM      1  N   UNL     1       4.234   1.008   2.182  0.00  0.00    -0.296 N 
ATOM      2  C   UNL     1       4.736   1.117   3.428  0.00  0.00    +0.306 C 
ATOM      3  O   UNL     1       5.523   2.005   3.691  0.00  0.00    -0.252 OA
ATOM      4  N   UNL     1       4.364   0.241   4.383  0.00  0.00    -0.247 N 
ATOM      5  C   UNL     1       4.882   0.354   5.669  0.00  0.00    +0.189 A 
ATOM      6  N   UNL     1       5.737   1.235   6.169  0.00  0.00    -0.125 NA
ATOM      7  N   UNL     1       6.108   1.196   7.373  0.00  0.00    -0.140 NA
ATOM      8  C   UNL     1       5.666   0.268   8.213  0.00  0.00    +0.134 A 
ATOM      9  S   UNL     1       4.579  -0.647   7.122  0.00  0.00    -0.030 S 
ATOM     10  H   UNL     1       3.605   0.299   1.972  0.00  0.00    +0.151 HD
ATOM     11  H   UNL     1       3.736  -0.467   4.173  0.00  0.00    +0.158 HD
ENDROOT
BRANCH   8  12
ATOM     12  C   UNL     1       5.977   0.053   9.642  0.00  0.00    +0.016 A 
ATOM     13  C   UNL     1       6.855   0.900  10.316  0.00  0.00    +0.018 A 
ATOM     14  C   UNL     1       7.114   0.672  11.622  0.00  0.00    +0.046 A 
ATOM     15  S   UNL     1       6.116  -0.768  11.961  0.00  0.00    -0.104 S 
ATOM     16  C   UNL     1       5.406  -0.978  10.337  0.00  0.00    +0.055 A 
ENDBRANCH   8  12
BRANCH   1  19
ATOM     17  C   UNL     1       3.672   2.186  -0.021  0.00  0.00    +0.041 C 
ATOM     18  C   UNL     1       4.964   1.398  -0.241  0.00  0.00    +0.033 C 
ATOM     19  C   UNL     1       4.637   1.960   1.144  0.00  0.00    +0.083 C 
BRANCH  17  22
ATOM     20  C   UNL     1      -0.017   1.377   0.010  0.00  0.00    +0.003 A 
ATOM     21  C   UNL     1       1.171   2.086   0.002  0.00  0.00    +0.004 A 
ATOM     22  C   UNL     1       2.378   1.413  -0.013  0.00  0.00    -0.040 A 
ATOM     23  C   UNL     1       2.399   0.030  -0.021  0.00  0.00    +0.042 A 
ATOM     24  C   UNL     1       1.211  -0.679  -0.013  0.00  0.00    +0.124 A 
ATOM     25  C   UNL     1       0.002  -0.004   0.002  0.00  0.00    +0.038 A 
ATOM     26  F   UNL     1       1.230  -2.030  -0.022  0.00  0.00    -0.205 F 
ENDBRANCH  17  22
ENDBRANCH   1  19
TORSDOF 3
