REMARK  Name = ZINC26464321
REMARK  7 active torsions:
REMARK  status: ('A' for Active; 'I' for Inactive)
REMARK    1  A    between atoms: C_1  and  C_2
REMARK    2  A    between atoms: C_2  and  C_3
REMARK    3  A    between atoms: C_3  and  C_4
REMARK    4  A    between atoms: C_4  and  C_5
REMARK    5  A    between atoms: C_13  and  S_17
REMARK    6  A    between atoms: S_17  and  C_18
REMARK    7  A    between atoms: C_18  and  C_19
REMARK                            x       y       z     vdW  Elec       q    Type
REMARK                         _______ _______ _______ _____ _____    ______ ____
ROOT
ATOM      1  C   UNL     1       4.406  -0.892  -2.767  0.00  0.00    +0.040 C 
ATOM      2  N   UNL     1       4.723   0.132  -2.042  0.00  0.00    -0.273 NA
ATOM      3  C   UNL     1       4.709   0.150  -0.589  0.00  0.00    +0.180 C 
ATOM      4  C   UNL     1       3.628  -0.792   0.003  0.00  0.00    +0.100 C 
ATOM      5  C   UNL     1       2.285  -0.131  -0.013  0.00  0.00    +0.069 A 
ATOM      6  C   UNL     1       2.288   1.268  -0.013  0.00  0.00    +0.064 A 
ATOM      7  C   UNL     1       1.121   2.023   0.002  0.00  0.00    +0.114 A 
ATOM      8  N   UNL     1      -0.016   1.311   0.009  0.00  0.00    -0.228 NA
ATOM      9  C   UNL     1       0.002  -0.004   0.002  0.00  0.00    +0.222 A 
ATOM     10  N   UNL     1       1.093  -0.748  -0.008  0.00  0.00    -0.238 NA
ATOM     11  S   UNL     1       3.987   1.764  -0.043  0.00  0.00    -0.093 S 
ATOM     12  C   UNL     1       3.608  -2.075  -0.784  0.00  0.00    -0.053 C 
ATOM     13  C   UNL     1       3.981  -2.118  -2.071  0.00  0.00    -0.027 C 
ATOM     14  C   UNL     1       3.892  -3.516  -2.610  0.00  0.00    +0.037 C 
ATOM     15  C   UNL     1       3.792  -4.420  -1.358  0.00  0.00    +0.009 C 
ATOM     16  C   UNL     1       3.209  -3.446  -0.307  0.00  0.00    +0.032 C 
ENDROOT
BRANCH   1  17
ATOM     17  C   UNL     1       4.470  -0.832  -4.272  0.00  0.00    +0.055 C 
BRANCH  17  18
ATOM     18  C   UNL     1       4.941   0.557  -4.707  0.00  0.00    +0.006 C 
BRANCH  18  20
ATOM     19  C   UNL     1       5.477   2.006  -6.670  0.00  0.00    +0.004 C 
ATOM     20  C   UNL     1       5.006   0.617  -6.235  0.00  0.00    -0.003 C 
ENDBRANCH  18  20
ENDBRANCH  17  18
ENDBRANCH   1  17
BRANCH   7  21
ATOM     21  S   UNL     1       1.135   3.785   0.011  0.00  0.00    -0.100 S 
BRANCH  21  22
ATOM     22  C   UNL     1      -0.645   4.112   0.030  0.00  0.00    +0.111 C 
BRANCH  22  23
ATOM     23  C   UNL     1      -0.882   5.601   0.040  0.00  0.00    -0.037 A 
ATOM     24  C   UNL     1      -0.985   6.276   1.242  0.00  0.00    +0.005 A 
ATOM     25  C   UNL     1      -1.197   7.642   1.251  0.00  0.00    +0.015 A 
ATOM     26  C   UNL     1      -1.317   8.331   0.058  0.00  0.00    +0.018 A 
ATOM     27  C   UNL     1      -1.219   7.654  -1.144  0.00  0.00    +0.015 A 
ATOM     28  C   UNL     1      -1.002   6.289  -1.153  0.00  0.00    +0.005 A 
ATOM     29 BR   UNL     1      -1.614  10.199   0.071  0.00  0.00    -0.050 Br
ENDBRANCH  22  23
ENDBRANCH  21  22
ENDBRANCH   7  21
TORSDOF 6
