REMARK  Name = ZINC08682519
REMARK  12 active torsions:
REMARK  status: ('A' for Active; 'I' for Inactive)
REMARK    1  A    between atoms: C_1  and  C_2
REMARK    2  A    between atoms: C_3  and  C_36
REMARK    3  A    between atoms: C_5  and  N_11
REMARK    4  A    between atoms: C_6  and  C_7
REMARK    5  A    between atoms: C_7  and  O_9
REMARK    6  A    between atoms: O_9  and  C_10
REMARK    7  A    between atoms: C_12  and  C_14
REMARK    8  A    between atoms: C_14  and  N_15
REMARK    9  A    between atoms: C_18  and  O_35
REMARK   10  A    between atoms: C_25  and  C_27
REMARK   11  A    between atoms: C_32  and  O_33
REMARK   12  A    between atoms: O_33  and  C_34
REMARK                            x       y       z     vdW  Elec       q    Type
REMARK                         _______ _______ _______ _____ _____    ______ ____
ROOT
ATOM      1  N   UNL     1       0.081  -6.848   2.212  0.00  0.00    +0.390 N 
ATOM      2  C   UNL     1      -1.206  -7.164   1.582  0.00  0.00    -0.075 C 
ATOM      3  C   UNL     1      -1.140  -8.547   0.929  0.00  0.00    +0.016 C 
ATOM      4  C   UNL     1      -0.819  -9.590   2.001  0.00  0.00    +0.066 C 
ATOM      5  C   UNL     1      -0.677 -10.973   1.364  0.00  0.00    +0.035 C 
ATOM      6  C   UNL     1      -0.362 -11.999   2.455  0.00  0.00    +0.003 C 
ATOM      7  C   UNL     1       0.941 -11.620   3.160  0.00  0.00    +0.000 C 
ATOM      8  C   UNL     1       0.804 -10.229   3.785  0.00  0.00    +0.005 C 
ATOM      9  C   UNL     1       0.498  -9.212   2.686  0.00  0.00    +0.011 C 
ATOM     10  C   UNL     1       0.368  -7.811   3.283  0.00  0.00    -0.028 C 
ATOM     11  H   UNL     1       0.811  -6.893   1.517  0.00  0.00    -0.080 HD
ENDROOT
BRANCH  10  12
ATOM     12  C   UNL     1      -0.756  -7.795   4.287  0.00  0.00    -0.019 A 
ATOM     13  C   UNL     1      -1.860  -6.992   4.077  0.00  0.00    +0.005 A 
ATOM     14  C   UNL     1      -2.891  -6.977   4.997  0.00  0.00    +0.000 A 
ATOM     15  C   UNL     1      -2.820  -7.765   6.131  0.00  0.00    +0.004 A 
ATOM     16  C   UNL     1      -1.719  -8.570   6.347  0.00  0.00    +0.046 A 
ATOM     17  C   UNL     1      -0.685  -8.591   5.421  0.00  0.00    +0.122 A 
BRANCH  17  18
ATOM     18  O   UNL     1       0.398  -9.386   5.628  0.00  0.00    -0.495 OA
ATOM     19  C   UNL     1       0.403 -10.179   6.817  0.00  0.00    +0.277 C 
ENDBRANCH  17  18
ENDBRANCH  10  12
BRANCH   4  20
ATOM     20  O   UNL     1      -1.870  -9.616   2.970  0.00  0.00    -0.388 OA
ATOM     21  H   UNL     1      -2.736  -9.840   2.604  0.00  0.00    +0.210 HD
ENDBRANCH   4  20
BRANCH   1  22
ATOM     22  C   UNL     1       0.028  -5.493   2.776  0.00  0.00    +0.020 C 
BRANCH  22  24
ATOM     23  N   UNL     1      -0.172  -3.173   1.942  0.00  0.00    -0.281 N 
ATOM     24  C   UNL     1      -0.104  -4.489   1.660  0.00  0.00    +0.201 C 
ATOM     25  O   UNL     1      -0.150  -4.866   0.508  0.00  0.00    -0.278 OA
ATOM     26  H   UNL     1      -0.135  -2.872   2.863  0.00  0.00    +0.155 HD
BRANCH  23  31
ATOM     27  C   UNL     1      -0.596   1.367  -0.262  0.00  0.00    +0.045 C 
ATOM     28  C   UNL     1      -0.498  -0.136  -0.226  0.00  0.00    -0.025 A 
ATOM     29  C   UNL     1      -0.518  -0.881  -1.346  0.00  0.00    -0.008 A 
ATOM     30  S   UNL     1      -0.374  -2.546  -0.735  0.00  0.00    -0.078 S 
ATOM     31  C   UNL     1      -0.293  -2.250   0.915  0.00  0.00    +0.086 A 
ATOM     32  C   UNL     1      -0.370  -0.867   1.015  0.00  0.00    +0.091 A 
ATOM     33  C   UNL     1      -0.635  -0.417  -2.775  0.00  0.00    +0.052 C 
BRANCH  32  34
ATOM     34  C   UNL     1      -0.328  -0.185   2.310  0.00  0.00    +0.342 C 
ATOM     35  O   UNL     1      -1.360   0.032   2.917  0.00  0.00    -0.245 OA
BRANCH  34  36
ATOM     36  O   UNL     1       0.854   0.203   2.830  0.00  0.00    -0.464 OA
ATOM     37  C   UNL     1       0.820   0.863   4.097  0.00  0.00    +0.280 C 
ENDBRANCH  34  36
ENDBRANCH  32  34
ENDBRANCH  23  31
ENDBRANCH  22  24
ENDBRANCH   1  22
TORSDOF 8
