REMARK  Name = ZINC14672574
REMARK  9 active torsions:
REMARK  status: ('A' for Active; 'I' for Inactive)
REMARK    1  A    between atoms: C_1  and  C_2
REMARK    2  A    between atoms: N_13  and  C_29
REMARK    3  A    between atoms: C_14  and  S_16
REMARK    4  A    between atoms: S_16  and  C_17
REMARK    5  A    between atoms: C_17  and  C_18
REMARK    6  A    between atoms: N_20  and  C_21
REMARK    7  A    between atoms: N_25  and  C_26
REMARK    8  A    between atoms: C_26  and  C_27
REMARK    9  A    between atoms: C_26  and  C_28
REMARK                            x       y       z     vdW  Elec       q    Type
REMARK                         _______ _______ _______ _____ _____    ______ ____
ROOT
ATOM      1  C   UNL     1       3.671   0.021   2.302  0.00  0.00    +0.008 C 
ATOM      2  C   UNL     1       2.313   0.706   2.136  0.00  0.00    -0.009 C 
ATOM      3  C   UNL     1       1.319  -0.271   1.501  0.00  0.00    +0.008 C 
ATOM      4  C   UNL     1      -0.093   0.312   1.562  0.00  0.00    +0.037 C 
ATOM      5  C   UNL     1      -0.076   1.714   0.958  0.00  0.00    -0.023 A 
ATOM      6  C   UNL     1       1.087   2.391   0.826  0.00  0.00    -0.004 A 
ATOM      7  S   UNL     1       0.641   3.945   0.093  0.00  0.00    -0.073 S 
ATOM      8  C   UNL     1      -1.100   3.686  -0.035  0.00  0.00    +0.117 A 
ATOM      9  C   UNL     1      -1.280   2.392   0.506  0.00  0.00    +0.076 A 
ATOM     10  C   UNL     1      -2.617   1.875   0.537  0.00  0.00    +0.268 A 
ATOM     11  O   UNL     1      -2.872   0.768   0.979  0.00  0.00    -0.267 OA
ATOM     12  N   UNL     1      -3.579   2.694   0.051  0.00  0.00    -0.255 N 
ATOM     13  C   UNL     1      -3.314   3.936  -0.448  0.00  0.00    +0.178 A 
ATOM     14  N   UNL     1      -2.089   4.441  -0.497  0.00  0.00    -0.215 NA
ATOM     15  C   UNL     1       2.456   1.927   1.216  0.00  0.00    +0.046 C 
ENDROOT
BRANCH  12  16
ATOM     16  C   UNL     1      -4.906   2.246   0.061  0.00  0.00    +0.052 A 
ATOM     17  C   UNL     1      -5.716   2.494   1.162  0.00  0.00    +0.026 A 
ATOM     18  C   UNL     1      -7.026   2.056   1.166  0.00  0.00    +0.002 A 
ATOM     19  C   UNL     1      -7.528   1.362   0.080  0.00  0.00    +0.000 A 
ATOM     20  C   UNL     1      -6.723   1.109  -1.015  0.00  0.00    +0.002 A 
ATOM     21  C   UNL     1      -5.413   1.550  -1.028  0.00  0.00    +0.026 A 
ENDBRANCH  12  16
BRANCH  13  22
ATOM     22  S   UNL     1      -4.654   4.907  -1.052  0.00  0.00    -0.078 S 
BRANCH  22  23
ATOM     23  C   UNL     1      -3.757   6.392  -1.569  0.00  0.00    +0.173 C 
BRANCH  23  24
ATOM     24  C   UNL     1      -4.730   7.394  -2.135  0.00  0.00    +0.229 C 
ATOM     25  O   UNL     1      -5.913   7.131  -2.184  0.00  0.00    -0.275 OA
ATOM     26  N   UNL     1      -4.285   8.584  -2.587  0.00  0.00    -0.270 N 
ATOM     27  H   UNL     1      -3.339   8.795  -2.548  0.00  0.00    +0.156 HD
BRANCH  26  28
ATOM     28  C   UNL     1      -5.185   9.511  -3.112  0.00  0.00    +0.123 A 
ATOM     29  C   UNL     1      -6.532   9.349  -3.227  0.00  0.00    +0.065 A 
ATOM     30  C   UNL     1      -7.055  10.511  -3.800  0.00  0.00    +0.136 A 
ATOM     31  N   UNL     1      -6.068  11.341  -4.022  0.00  0.00    -0.178 NA
ATOM     32  N   UNL     1      -4.879  10.738  -3.593  0.00  0.00    -0.248 N 
BRANCH  32  33
ATOM     33  C   UNL     1      -3.541  11.329  -3.657  0.00  0.00    +0.103 C 
ATOM     34  C   UNL     1      -3.192  11.645  -5.113  0.00  0.00    +0.032 C 
ATOM     35  C   UNL     1      -3.513  12.619  -2.834  0.00  0.00    +0.032 C 
ENDBRANCH  32  33
ENDBRANCH  26  28
ENDBRANCH  23  24
ENDBRANCH  22  23
ENDBRANCH  13  22
TORSDOF 6
