REMARK  Name = ZINC46756056
REMARK  13 active torsions:
REMARK  status: ('A' for Active; 'I' for Inactive)
REMARK    1  A    between atoms: C_1  and  C_2
REMARK    2  A    between atoms: C_2  and  C_3
REMARK    3  A    between atoms: C_2  and  C_4
REMARK    4  A    between atoms: C_4  and  C_6
REMARK    5  A    between atoms: C_4  and  N_22
REMARK    6  A    between atoms: N_8  and  C_9
REMARK    7  A    between atoms: C_9  and  C_10
REMARK    8  A    between atoms: C_15  and  C_16
REMARK    9  A    between atoms: C_16  and  N_17
REMARK   10  A    between atoms: N_17  and  C_18
REMARK   11  A    between atoms: N_17  and  C_19
REMARK   12  A    between atoms: C_19  and  C_20
REMARK   13  A    between atoms: C_19  and  C_21
REMARK                            x       y       z     vdW  Elec       q    Type
REMARK                         _______ _______ _______ _____ _____    ______ ____
ROOT
ATOM      1  C   UNL     1      -1.627   0.818  -0.322  0.00  0.00    +0.234 C 
ATOM      2  O   UNL     1      -2.335  -0.099  -0.682  0.00  0.00    -0.274 OA
ATOM      3  N   UNL     1      -1.740   2.026  -0.907  0.00  0.00    -0.310 N 
ATOM      4  H   UNL     1      -1.222   2.776  -0.574  0.00  0.00    +0.149 HD
ENDROOT
BRANCH   1   5
ATOM      5  C   UNL     1      -0.622   0.605   0.781  0.00  0.00    +0.160 C 
BRANCH   5   6
ATOM      6  N   UNL     1      -1.009  -0.563   1.576  0.00  0.00    -0.316 N 
ATOM      7  C   UNL     1      -0.596  -0.673   2.886  0.00  0.00    +0.150 C 
ATOM      8  N   UNL     1       0.131   0.255   3.423  0.00  0.00    -0.113 NA
ATOM      9  S   UNL     1       0.417  -0.241   4.995  0.00  0.00    +0.101 S 
ATOM     10  O   UNL     1       1.802  -0.536   5.111  0.00  0.00    -0.146 OA
ATOM     11  O   UNL     1      -0.269   0.651   5.863  0.00  0.00    -0.146 OA
ATOM     12  C   UNL     1      -0.464  -1.779   4.994  0.00  0.00    +0.123 A 
ATOM     13  C   UNL     1      -0.980  -1.842   3.692  0.00  0.00    +0.043 A 
ATOM     14  C   UNL     1      -1.751  -2.965   3.357  0.00  0.00    +0.013 A 
ATOM     15  C   UNL     1      -1.983  -3.951   4.289  0.00  0.00    +0.001 A 
ATOM     16  C   UNL     1      -1.465  -3.859   5.568  0.00  0.00    +0.002 A 
ATOM     17  C   UNL     1      -0.691  -2.759   5.914  0.00  0.00    +0.030 A 
ATOM     18  H   UNL     1      -1.556  -1.260   1.180  0.00  0.00    +0.148 HD
ENDBRANCH   5   6
BRANCH   5  20
ATOM     19  C   UNL     1       1.804   0.291   1.288  0.00  0.00    +0.009 C 
ATOM     20  C   UNL     1       0.762   0.371   0.171  0.00  0.00    +0.012 C 
ATOM     21  C   UNL     1       0.757  -0.941  -0.617  0.00  0.00    +0.009 C 
ENDBRANCH   5  20
ENDBRANCH   1   5
BRANCH   3  22
ATOM     22  C   UNL     1      -2.644   2.208  -2.045  0.00  0.00    +0.139 C 
BRANCH  22  23
ATOM     23  C   UNL     1      -2.584   3.640  -2.511  0.00  0.00    -0.029 A 
ATOM     24  C   UNL     1      -3.557   4.538  -2.110  0.00  0.00    +0.005 A 
ATOM     25  C   UNL     1      -3.502   5.851  -2.536  0.00  0.00    +0.000 A 
ATOM     26  C   UNL     1      -2.476   6.268  -3.364  0.00  0.00    +0.000 A 
ATOM     27  C   UNL     1      -1.503   5.370  -3.763  0.00  0.00    +0.002 A 
ATOM     28  C   UNL     1      -1.555   4.058  -3.333  0.00  0.00    -0.059 A 
BRANCH  28  29
ATOM     29  C   UNL     1      -0.492   3.080  -3.765  0.00  0.00    -0.043 C 
BRANCH  29  30
ATOM     30  N   UNL     1       0.357   3.702  -4.790  0.00  0.00    +0.382 N 
ATOM     31  C   UNL     1      -0.438   3.947  -6.001  0.00  0.00    -0.095 C 
ATOM     32  H   UNL     1       0.718   4.577  -4.442  0.00  0.00    -0.081 HD
BRANCH  30  33
ATOM     33  C   UNL     1       1.474   2.804  -5.112  0.00  0.00    -0.075 C 
ATOM     34  C   UNL     1       2.358   3.451  -6.180  0.00  0.00    -0.014 C 
ATOM     35  C   UNL     1       2.301   2.548  -3.851  0.00  0.00    -0.014 C 
ENDBRANCH  30  33
ENDBRANCH  29  30
ENDBRANCH  28  29
ENDBRANCH  22  23
ENDBRANCH   3  22
TORSDOF 8
