REMARK  Name = ZINC36207848
REMARK  12 active torsions:
REMARK  status: ('A' for Active; 'I' for Inactive)
REMARK    1  A    between atoms: C_1  and  O_2
REMARK    2  A    between atoms: O_2  and  C_3
REMARK    3  A    between atoms: C_6  and  C_9
REMARK    4  A    between atoms: C_18  and  C_20
REMARK    5  A    between atoms: C_20  and  N_21
REMARK    6  A    between atoms: N_21  and  C_22
REMARK    7  A    between atoms: N_21  and  C_28
REMARK    8  A    between atoms: C_22  and  C_23
REMARK    9  A    between atoms: C_28  and  C_29
REMARK   10  A    between atoms: C_29  and  C_31
REMARK   11  A    between atoms: C_29  and  O_38
REMARK   12  A    between atoms: C_31  and  N_32
REMARK                            x       y       z     vdW  Elec       q    Type
REMARK                         _______ _______ _______ _____ _____    ______ ____
ROOT
ATOM      1  C   UNL     1      -6.555  -6.628  -3.091  0.00  0.00    -0.003 C 
ENDROOT
BRANCH   1  11
ATOM      2  C   UNL     1      -5.683  -1.904  -0.023  0.00  0.00    +0.004 A 
ATOM      3  C   UNL     1      -6.784  -1.523   0.667  0.00  0.00    +0.056 A 
ATOM      4  S   UNL     1      -7.989  -2.764   0.239  0.00  0.00    -0.076 S 
ATOM      5  C   UNL     1      -6.996  -3.756  -0.846  0.00  0.00    +0.116 A 
ATOM      6  C   UNL     1      -5.755  -3.098  -0.856  0.00  0.00    +0.080 A 
ATOM      7  C   UNL     1      -4.744  -3.695  -1.675  0.00  0.00    +0.260 A 
ATOM      8  O   UNL     1      -3.632  -3.199  -1.744  0.00  0.00    -0.267 OA
ATOM      9  N   UNL     1      -5.039  -4.811  -2.366  0.00  0.00    -0.312 N 
ATOM     10  H   UNL     1      -4.357  -5.220  -2.922  0.00  0.00    +0.170 HD
ATOM     11  C   UNL     1      -6.271  -5.377  -2.299  0.00  0.00    +0.094 A 
ATOM     12  N   UNL     1      -7.212  -4.862  -1.554  0.00  0.00    -0.229 NA
BRANCH   2  16
ATOM     13  C   UNL     1      -2.086   0.353   0.221  0.00  0.00    +0.120 A 
ATOM     14  C   UNL     1      -3.288   0.993  -0.046  0.00  0.00    +0.046 A 
ATOM     15  C   UNL     1      -4.456   0.264  -0.126  0.00  0.00    +0.012 A 
ATOM     16  C   UNL     1      -4.428  -1.117   0.061  0.00  0.00    -0.016 A 
ATOM     17  C   UNL     1      -3.219  -1.757   0.329  0.00  0.00    +0.012 A 
ATOM     18  C   UNL     1      -2.054  -1.023   0.403  0.00  0.00    +0.046 A 
BRANCH  13  20
ATOM     19  C   UNL     1      -1.041   2.485   0.102  0.00  0.00    +0.277 C 
ATOM     20  O   UNL     1      -0.936   1.074   0.299  0.00  0.00    -0.495 OA
ENDBRANCH  13  20
ENDBRANCH   2  16
ENDBRANCH   1  11
BRANCH   1  21
ATOM     21  N   UNL     1      -7.944  -7.049  -2.860  0.00  0.00    +0.391 N 
ATOM     22  H   UNL     1      -8.102  -7.155  -1.869  0.00  0.00    -0.080 HD
BRANCH  21  23
ATOM     23  C   UNL     1      -8.859  -6.033  -3.396  0.00  0.00    -0.002 C 
BRANCH  23  24
ATOM     24  C   UNL     1     -10.277  -6.392  -3.033  0.00  0.00    +0.089 A 
ATOM     25  C   UNL     1     -10.890  -6.098  -1.873  0.00  0.00    +0.042 A 
ATOM     26  C   UNL     1     -12.202  -6.620  -1.959  0.00  0.00    +0.041 A 
ATOM     27  C   UNL     1     -12.311  -7.202  -3.167  0.00  0.00    +0.195 A 
ATOM     28  O   UNL     1     -11.144  -7.056  -3.816  0.00  0.00    -0.470 OA
ENDBRANCH  23  24
ENDBRANCH  21  23
BRANCH  21  29
ATOM     29  C   UNL     1      -8.185  -8.331  -3.534  0.00  0.00    -0.045 C 
BRANCH  29  30
ATOM     30  C   UNL     1      -7.335  -9.421  -2.879  0.00  0.00    +0.112 C 
BRANCH  30  31
ATOM     31  O   UNL     1      -7.714  -9.561  -1.508  0.00  0.00    -0.392 OA
ATOM     32  H   UNL     1      -8.621  -9.873  -1.381  0.00  0.00    +0.210 HD
ENDBRANCH  30  31
BRANCH  30  33
ATOM     33  C   UNL     1      -7.556 -10.748  -3.607  0.00  0.00    +0.114 C 
BRANCH  33  34
ATOM     34  N   UNL     1      -6.740 -11.794  -2.978  0.00  0.00    -0.296 NA
ATOM     35  C   UNL     1      -5.306 -11.531  -3.171  0.00  0.00    +0.112 C 
ATOM     36  C   UNL     1      -4.494 -12.610  -2.450  0.00  0.00    +0.175 C 
ATOM     37  O   UNL     1      -4.879 -13.897  -2.940  0.00  0.00    -0.377 OA
ATOM     38  C   UNL     1      -6.269 -14.187  -2.767  0.00  0.00    +0.175 C 
ATOM     39  C   UNL     1      -7.100 -13.124  -3.491  0.00  0.00    +0.112 C 
ENDBRANCH  33  34
ENDBRANCH  30  33
ENDBRANCH  29  30
ENDBRANCH  21  29
ENDBRANCH   1  21
TORSDOF 11
