REMARK  Name = ZINC03361215
REMARK  8 active torsions:
REMARK  status: ('A' for Active; 'I' for Inactive)
REMARK    1  A    between atoms: C_1  and  C_2
REMARK    2  A    between atoms: C_2  and  C_4
REMARK    3  A    between atoms: C_2  and  O_10
REMARK    4  A    between atoms: O_10  and  C_11
REMARK    5  A    between atoms: C_11  and  C_13
REMARK    6  A    between atoms: C_14  and  C_22
REMARK    7  A    between atoms: C_22  and  O_23
REMARK    8  A    between atoms: O_23  and  C_24
REMARK                            x       y       z     vdW  Elec       q    Type
REMARK                         _______ _______ _______ _____ _____    ______ ____
ROOT
ATOM      1  C   UNL     1       2.757  -1.123  -2.255  0.00  0.00    +0.219 A 
ATOM      2  C   UNL     1       4.096  -1.351  -2.282  0.00  0.00    +0.050 A 
ATOM      3  C   UNL     1       4.402  -1.806  -3.638  0.00  0.00    +0.027 A 
ATOM      4  C   UNL     1       5.573  -2.194  -4.294  0.00  0.00    +0.012 A 
ATOM      5  C   UNL     1       5.520  -2.576  -5.605  0.00  0.00    +0.001 A 
ATOM      6  C   UNL     1       4.311  -2.582  -6.287  0.00  0.00    +0.004 A 
ATOM      7  C   UNL     1       3.145  -2.202  -5.659  0.00  0.00    +0.047 A 
ATOM      8  C   UNL     1       3.174  -1.810  -4.325  0.00  0.00    +0.136 A 
ATOM      9  O   UNL     1       2.223  -1.402  -3.463  0.00  0.00    -0.448 OA
ENDROOT
BRANCH   1  10
ATOM     10  C   UNL     1       2.004  -0.651  -1.087  0.00  0.00    +0.376 C 
ATOM     11  O   UNL     1       2.582  -0.429  -0.040  0.00  0.00    -0.241 OA
BRANCH  10  12
ATOM     12  O   UNL     1       0.671  -0.465  -1.174  0.00  0.00    -0.447 OA
BRANCH  12  14
ATOM     13  C   UNL     1      -0.019   1.526   0.010  0.00  0.00    +0.062 C 
ATOM     14  C   UNL     1       0.002  -0.004   0.002  0.00  0.00    +0.259 C 
BRANCH  14  15
ATOM     15  C   UNL     1      -1.412  -0.526   0.013  0.00  0.00    +0.261 C 
ATOM     16  O   UNL     1      -1.836  -1.147  -0.938  0.00  0.00    -0.271 OA
ATOM     17  N   UNL     1      -2.204  -0.302   1.079  0.00  0.00    -0.237 N 
ATOM     18  C   UNL     1      -3.469  -0.768   1.089  0.00  0.00    +0.303 C 
ATOM     19  O   UNL     1      -3.894  -1.391   0.136  0.00  0.00    -0.253 OA
ATOM     20  N   UNL     1      -4.262  -0.544   2.156  0.00  0.00    -0.313 N 
ATOM     21  H   UNL     1      -1.865   0.195   1.840  0.00  0.00    +0.159 HD
ATOM     22  H   UNL     1      -3.922  -0.048   2.916  0.00  0.00    +0.146 HD
ATOM     23  H   UNL     1      -5.172  -0.880   2.163  0.00  0.00    +0.146 HD
ENDBRANCH  14  15
ENDBRANCH  12  14
ENDBRANCH  10  12
ENDBRANCH   1  10
BRANCH   2  24
ATOM     24  C   UNL     1       5.069  -1.172  -1.146  0.00  0.00    +0.269 C 
BRANCH  24  25
ATOM     25  O   UNL     1       5.168  -2.391  -0.406  0.00  0.00    -0.487 OA
BRANCH  25  26
ATOM     26  C   UNL     1       6.011  -2.399   0.660  0.00  0.00    +0.121 A 
ATOM     27  C   UNL     1       6.723  -1.255   0.991  0.00  0.00    +0.045 A 
ATOM     28  C   UNL     1       7.579  -1.266   2.076  0.00  0.00    +0.004 A 
ATOM     29  C   UNL     1       7.725  -2.415   2.831  0.00  0.00    +0.000 A 
ATOM     30  C   UNL     1       7.017  -3.556   2.503  0.00  0.00    +0.004 A 
ATOM     31  C   UNL     1       6.155  -3.549   1.423  0.00  0.00    +0.045 A 
ENDBRANCH  25  26
ENDBRANCH  24  25
ENDBRANCH   2  24
TORSDOF 7
