REMARK  Name = ZINC20183268
REMARK  7 active torsions:
REMARK  status: ('A' for Active; 'I' for Inactive)
REMARK    1  A    between atoms: C_3  and  N_8
REMARK    2  A    between atoms: N_8  and  C_9
REMARK    3  A    between atoms: C_9  and  N_11
REMARK    4  A    between atoms: N_11  and  N_12
REMARK    5  A    between atoms: C_13  and  C_14
REMARK    6  A    between atoms: C_21  and  S_24
REMARK    7  A    between atoms: S_24  and  N_27
REMARK                            x       y       z     vdW  Elec       q    Type
REMARK                         _______ _______ _______ _____ _____    ______ ____
ROOT
ATOM      1  C   UNL     1      -2.600   1.210   0.074  0.00  0.00    +0.020 A 
ATOM      2  C   UNL     1      -3.300   2.374  -0.001  0.00  0.00    +0.093 A 
ATOM      3  N   UNL     1      -2.440   3.415  -0.188  0.00  0.00    -0.360 N 
ATOM      4  H   UNL     1      -2.829   4.441  -0.273  0.00  0.00    +0.165 HD
ATOM      5  C   UNL     1      -1.140   2.958  -0.242  0.00  0.00    +0.047 A 
ATOM      6  C   UNL     1      -1.178   1.562  -0.086  0.00  0.00    +0.010 A 
ATOM      7  C   UNL     1       0.005   0.827  -0.092  0.00  0.00    +0.039 A 
ATOM      8  C   UNL     1       1.209   1.474  -0.263  0.00  0.00    +0.106 A 
ATOM      9  C   UNL     1       1.248   2.852  -0.422  0.00  0.00    +0.030 A 
ATOM     10  C   UNL     1       0.086   3.592  -0.412  0.00  0.00    +0.028 A 
ENDROOT
BRANCH   8  11
ATOM     11  S   UNL     1       2.708   0.548  -0.277  0.00  0.00    +0.061 S 
ATOM     12  O   UNL     1       3.758   1.470  -0.019  0.00  0.00    -0.153 OA
ATOM     13  O   UNL     1       2.485  -0.599   0.532  0.00  0.00    -0.153 OA
BRANCH  11  14
ATOM     14  N   UNL     1       2.929  -0.001  -1.824  0.00  0.00    -0.177 NA
ATOM     15  C   UNL     1       2.302  -1.252  -2.272  0.00  0.00    +0.109 C 
ATOM     16  C   UNL     1       1.500  -0.965  -3.550  0.00  0.00    +0.017 C 
ATOM     17  C   UNL     1       2.419  -0.317  -4.588  0.00  0.00    +0.003 C 
ATOM     18  C   UNL     1       2.948   1.012  -4.044  0.00  0.00    +0.017 C 
ATOM     19  C   UNL     1       3.762   0.751  -2.773  0.00  0.00    +0.109 C 
ENDBRANCH  11  14
ENDBRANCH   8  11
BRANCH   1  21
ATOM     20  N   UNL     1      -4.393  -0.384  -0.034  0.00  0.00    -0.188 NA
ATOM     21  C   UNL     1      -3.155  -0.139   0.273  0.00  0.00    +0.140 C 
BRANCH  20  22
ATOM     22  N   UNL     1      -5.148   0.578  -0.719  0.00  0.00    -0.218 N 
ATOM     23  H   UNL     1      -4.668   1.499  -1.081  0.00  0.00    +0.176 HD
BRANCH  22  24
ATOM     24  C   UNL     1      -6.463   0.374  -0.935  0.00  0.00    +0.154 C 
ATOM     25  S   UNL     1      -7.357   1.485  -1.881  0.00  0.00    -0.017 S 
BRANCH  24  26
ATOM     26  N   UNL     1      -7.073  -0.705  -0.406  0.00  0.00    -0.296 N 
ATOM     27  H   UNL     1      -6.519  -1.375   0.269  0.00  0.00    +0.154 HD
BRANCH  26  30
ATOM     28  C   UNL     1     -10.598  -1.681  -0.033  0.00  0.00    +0.003 A 
ATOM     29  C   UNL     1      -9.277  -1.421   0.274  0.00  0.00    +0.023 A 
ATOM     30  C   UNL     1      -8.411  -0.974  -0.715  0.00  0.00    +0.034 A 
ATOM     31  C   UNL     1      -8.873  -0.799  -2.013  0.00  0.00    +0.043 A 
ATOM     32  C   UNL     1     -10.195  -1.065  -2.315  0.00  0.00    +0.043 A 
ATOM     33  C   UNL     1     -11.057  -1.506  -1.325  0.00  0.00    +0.020 A 
ATOM     34 CL   UNL     1     -10.775  -0.847  -3.936  0.00  0.00    -0.083 Cl
ENDBRANCH  26  30
ENDBRANCH  24  26
ENDBRANCH  22  24
ENDBRANCH  20  22
ENDBRANCH   1  21
TORSDOF 7
