REMARK  Name = ZINC09088916
REMARK  10 active torsions:
REMARK  status: ('A' for Active; 'I' for Inactive)
REMARK    1  A    between atoms: C_1  and  C_2
REMARK    2  A    between atoms: C_2  and  C_36
REMARK    3  A    between atoms: C_6  and  C_28
REMARK    4  A    between atoms: C_8  and  C_26
REMARK    5  A    between atoms: C_9  and  S_13
REMARK    6  A    between atoms: S_13  and  C_14
REMARK    7  A    between atoms: C_14  and  C_15
REMARK    8  A    between atoms: N_17  and  C_18
REMARK    9  A    between atoms: C_21  and  O_24
REMARK   10  A    between atoms: O_24  and  C_25
REMARK                            x       y       z     vdW  Elec       q    Type
REMARK                         _______ _______ _______ _____ _____    ______ ____
ROOT
ATOM      1  C   UNL     1      -0.020   1.573   0.019  0.00  0.00    +0.011 C 
ATOM      2  C   UNL     1      -0.009   0.043   0.005  0.00  0.00    -0.023 C 
ATOM      3  C   UNL     1       0.724  -0.456  -1.244  0.00  0.00    +0.086 C 
ATOM      4  C   UNL     1       2.153   0.006  -1.199  0.00  0.00    +0.162 C 
ATOM      5  C   UNL     1       2.803   0.208  -0.031  0.00  0.00    +0.029 C 
ATOM      6  C   UNL     1       4.236   0.673  -0.091  0.00  0.00    +0.097 C 
ATOM      7  C   UNL     1       4.803   0.852   1.285  0.00  0.00    +0.073 C 
ATOM      8  C   UNL     1       4.054   0.604   2.412  0.00  0.00    +0.112 C 
ATOM      9  N   UNL     1       2.785   0.191   2.338  0.00  0.00    -0.244 NA
ATOM     10  C   UNL     1       2.164  -0.007   1.199  0.00  0.00    +0.050 C 
ATOM     11  C   UNL     1       0.729  -0.478   1.241  0.00  0.00    +0.062 C 
ATOM     12  O   UNL     1       2.807   0.224  -2.358  0.00  0.00    -0.292 OA
ATOM     13  C   UNL     1      -1.447  -0.481   0.006  0.00  0.00    +0.011 C 
ENDROOT
BRANCH   6  14
ATOM     14  C   UNL     1       4.299   1.987  -0.826  0.00  0.00    -0.035 A 
ATOM     15  C   UNL     1       3.612   3.084  -0.340  0.00  0.00    +0.006 A 
ATOM     16  C   UNL     1       3.670   4.290  -1.013  0.00  0.00    +0.020 A 
ATOM     17  C   UNL     1       4.416   4.398  -2.174  0.00  0.00    +0.041 A 
ATOM     18  C   UNL     1       5.103   3.300  -2.659  0.00  0.00    +0.020 A 
ATOM     19  C   UNL     1       5.049   2.097  -1.982  0.00  0.00    +0.006 A 
ATOM     20 CL   UNL     1       4.488   5.912  -3.020  0.00  0.00    -0.084 Cl
ENDBRANCH   6  14
BRANCH   7  21
ATOM     21  C   UNL     1       6.158   1.292   1.430  0.00  0.00    +0.098 C 
ATOM     22  N   UNL     1       7.233   1.641   1.545  0.00  0.00    -0.191 NA
ENDBRANCH   7  21
BRANCH   8  23
ATOM     23  S   UNL     1       4.789   0.837   3.997  0.00  0.00    -0.096 S 
BRANCH  23  24
ATOM     24  C   UNL     1       3.467   0.402   5.161  0.00  0.00    +0.172 C 
BRANCH  24  25
ATOM     25  C   UNL     1       3.970   0.560   6.573  0.00  0.00    +0.227 C 
ATOM     26  O   UNL     1       5.108   0.930   6.774  0.00  0.00    -0.275 OA
ATOM     27  N   UNL     1       3.155   0.291   7.612  0.00  0.00    -0.285 N 
ATOM     28  H   UNL     1       2.226   0.061   7.453  0.00  0.00    +0.155 HD
BRANCH  27  29
ATOM     29  C   UNL     1       3.650   0.344   8.922  0.00  0.00    +0.034 A 
ATOM     30  C   UNL     1       3.184  -0.550   9.877  0.00  0.00    +0.027 A 
ATOM     31  C   UNL     1       3.672  -0.497  11.168  0.00  0.00    +0.047 A 
ATOM     32  C   UNL     1       4.627   0.449  11.510  0.00  0.00    +0.120 A 
ATOM     33  C   UNL     1       5.093   1.342  10.557  0.00  0.00    +0.047 A 
ATOM     34  C   UNL     1       4.610   1.287   9.264  0.00  0.00    +0.027 A 
BRANCH  32  35
ATOM     35  O   UNL     1       5.107   0.500  12.781  0.00  0.00    -0.495 OA
ATOM     36  C   UNL     1       6.089   1.499  13.064  0.00  0.00    +0.277 C 
ENDBRANCH  32  35
ENDBRANCH  27  29
ENDBRANCH  24  25
ENDBRANCH  23  24
ENDBRANCH   8  23
TORSDOF 7
