REMARK  Name = ZINC10431364
REMARK  9 active torsions:
REMARK  status: ('A' for Active; 'I' for Inactive)
REMARK    1  A    between atoms: C_1  and  C_2
REMARK    2  A    between atoms: C_2  and  N_3
REMARK    3  A    between atoms: N_3  and  C_4
REMARK    4  A    between atoms: N_3  and  C_15
REMARK    5  A    between atoms: C_4  and  C_5
REMARK    6  A    between atoms: C_10  and  C_11
REMARK    7  A    between atoms: C_16  and  N_31
REMARK    8  A    between atoms: N_17  and  C_24
REMARK    9  A    between atoms: C_24  and  C_25
REMARK                            x       y       z     vdW  Elec       q    Type
REMARK                         _______ _______ _______ _____ _____    ______ ____
ROOT
ATOM      1  C   UNL     1      -0.098   1.008  -2.198  0.00  0.00    +0.134 A 
ATOM      2  C   UNL     1       0.139   1.947  -3.164  0.00  0.00    +0.127 A 
ATOM      3  N   UNL     1       0.958   1.633  -4.225  0.00  0.00    -0.276 N 
ATOM      4  C   UNL     1       1.512   0.410  -4.317  0.00  0.00    +0.331 A 
ATOM      5  O   UNL     1       2.229   0.148  -5.264  0.00  0.00    -0.246 OA
ATOM      6  N   UNL     1       1.285  -0.527  -3.379  0.00  0.00    -0.273 N 
ATOM      7  H   UNL     1       1.708  -1.429  -3.468  0.00  0.00    +0.173 HD
ATOM      8  C   UNL     1       0.494  -0.262  -2.321  0.00  0.00    +0.277 A 
ATOM      9  O   UNL     1       0.294  -1.117  -1.475  0.00  0.00    -0.266 OA
ENDROOT
BRANCH   2  10
ATOM     10  N   UNL     1      -0.431   3.196  -3.073  0.00  0.00    -0.343 N 
ATOM     11  H   UNL     1      -1.005   3.414  -2.322  0.00  0.00    +0.144 HD
ATOM     12  H   UNL     1      -0.260   3.859  -3.761  0.00  0.00    +0.144 HD
ENDBRANCH   2  10
BRANCH   1  13
ATOM     13  N   UNL     1      -0.931   1.307  -1.095  0.00  0.00    -0.319 N 
BRANCH  13  15
ATOM     14  C   UNL     1      -3.061   0.911  -2.237  0.00  0.00    +0.024 C 
ATOM     15  C   UNL     1      -2.136   0.466  -1.102  0.00  0.00    +0.102 C 
ENDBRANCH  13  15
BRANCH  13  16
ATOM     16  C   UNL     1      -0.199   1.167   0.171  0.00  0.00    +0.141 C 
BRANCH  16  17
ATOM     17  C   UNL     1      -0.975   1.836   1.276  0.00  0.00    -0.019 A 
ATOM     18  C   UNL     1      -2.129   2.539   0.983  0.00  0.00    +0.006 A 
ATOM     19  C   UNL     1      -2.843   3.148   1.998  0.00  0.00    +0.000 A 
ATOM     20  C   UNL     1      -2.398   3.064   3.304  0.00  0.00    +0.001 A 
ATOM     21  C   UNL     1      -1.242   2.365   3.596  0.00  0.00    +0.013 A 
ATOM     22  C   UNL     1      -0.530   1.751   2.582  0.00  0.00    +0.059 A 
BRANCH  22  23
ATOM     23  C   UNL     1       0.731   0.990   2.901  0.00  0.00    +0.418 C 
ATOM     24  F   UNL     1       1.009   1.099   4.267  0.00  0.00    -0.166 F 
ATOM     25  F   UNL     1       0.559  -0.358   2.566  0.00  0.00    -0.166 F 
ATOM     26  F   UNL     1       1.795   1.521   2.163  0.00  0.00    -0.166 F 
ENDBRANCH  22  23
ENDBRANCH  16  17
ENDBRANCH  13  16
ENDBRANCH   1  13
BRANCH   3  27
ATOM     27  C   UNL     1       1.222   2.633  -5.262  0.00  0.00    +0.163 C 
BRANCH  27  28
ATOM     28  C   UNL     1       0.183   2.518  -6.347  0.00  0.00    -0.028 A 
ATOM     29  C   UNL     1       0.401   1.685  -7.428  0.00  0.00    +0.005 A 
ATOM     30  C   UNL     1      -0.555   1.576  -8.421  0.00  0.00    +0.000 A 
ATOM     31  C   UNL     1      -1.724   2.309  -8.338  0.00  0.00    +0.000 A 
ATOM     32  C   UNL     1      -1.940   3.147  -7.260  0.00  0.00    +0.000 A 
ATOM     33  C   UNL     1      -0.986   3.251  -6.264  0.00  0.00    +0.005 A 
ENDBRANCH  27  28
ENDBRANCH   3  27
TORSDOF 8
