REMARK  Name = ZINC36494004
REMARK  14 active torsions:
REMARK  status: ('A' for Active; 'I' for Inactive)
REMARK    1  A    between atoms: C_1  and  C_2
REMARK    2  A    between atoms: C_7  and  C_8
REMARK    3  A    between atoms: C_8  and  C_10
REMARK    4  A    between atoms: C_8  and  N_17
REMARK    5  A    between atoms: N_12  and  C_13
REMARK    6  A    between atoms: C_13  and  C_14
REMARK    7  A    between atoms: C_13  and  C_15
REMARK    8  A    between atoms: C_13  and  C_16
REMARK    9  A    between atoms: N_17  and  C_18
REMARK   10  A    between atoms: C_18  and  C_19
REMARK   11  A    between atoms: C_24  and  C_26
REMARK   12  A    between atoms: C_32  and  O_34
REMARK   13  A    between atoms: O_34  and  C_35
REMARK   14  A    between atoms: C_35  and  C_36
REMARK                            x       y       z     vdW  Elec       q    Type
REMARK                         _______ _______ _______ _____ _____    ______ ____
ROOT
ATOM      1  N   UNL     1      -0.199  -0.604   3.563  0.00  0.00    -0.277 N 
ATOM      2  C   UNL     1      -1.403  -0.601   4.170  0.00  0.00    +0.237 C 
ATOM      3  O   UNL     1      -2.244   0.209   3.842  0.00  0.00    -0.274 OA
ENDROOT
BRANCH   2   4
ATOM      4  C   UNL     1      -1.703  -1.603   5.254  0.00  0.00    +0.165 C 
ATOM      5  C   UNL     1      -1.204  -1.070   6.614  0.00  0.00    +0.033 C 
ATOM      6  C   UNL     1      -2.314  -1.528   7.596  0.00  0.00    +0.021 C 
ATOM      7  C   UNL     1      -3.583  -1.386   6.718  0.00  0.00    +0.112 C 
ATOM      8  N   UNL     1      -3.156  -1.799   5.366  0.00  0.00    -0.256 N 
ATOM      9  C   UNL     1      -3.961  -2.274   4.395  0.00  0.00    +0.404 C 
ATOM     10  O   UNL     1      -3.495  -2.581   3.315  0.00  0.00    -0.226 OA
BRANCH   9  11
ATOM     11  O   UNL     1      -5.282  -2.408   4.621  0.00  0.00    -0.445 OA
BRANCH  11  12
ATOM     12  C   UNL     1      -6.075  -2.917   3.547  0.00  0.00    +0.269 C 
BRANCH  12  13
ATOM     13  C   UNL     1      -7.516  -2.997   3.982  0.00  0.00    -0.010 A 
ATOM     14  C   UNL     1      -7.995  -4.146   4.582  0.00  0.00    +0.007 A 
ATOM     15  C   UNL     1      -9.317  -4.219   4.980  0.00  0.00    +0.000 A 
ATOM     16  C   UNL     1     -10.160  -3.142   4.779  0.00  0.00    +0.000 A 
ATOM     17  C   UNL     1      -9.681  -1.992   4.180  0.00  0.00    +0.000 A 
ATOM     18  C   UNL     1      -8.358  -1.918   3.785  0.00  0.00    +0.007 A 
ENDBRANCH  12  13
ENDBRANCH  11  12
ENDBRANCH   9  11
ENDBRANCH   2   4
BRANCH   1  19
ATOM     19  C   UNL     1       0.134   0.439   2.590  0.00  0.00    +0.193 C 
BRANCH  19  26
ATOM     20  C   UNL     1      -1.818  -0.745   0.819  0.00  0.00    +0.044 C 
ATOM     21  C   UNL     1      -0.356  -0.767   0.453  0.00  0.00    -0.045 A 
ATOM     22  C   UNL     1       0.050  -1.349  -0.734  0.00  0.00    +0.004 A 
ATOM     23  C   UNL     1       1.390  -1.370  -1.070  0.00  0.00    +0.000 A 
ATOM     24  C   UNL     1       2.325  -0.808  -0.220  0.00  0.00    +0.000 A 
ATOM     25  C   UNL     1       1.919  -0.226   0.966  0.00  0.00    +0.006 A 
ATOM     26  C   UNL     1       0.577  -0.201   1.300  0.00  0.00    -0.015 A 
ENDBRANCH  19  26
BRANCH  19  27
ATOM     27  C   UNL     1       1.248   1.296   3.134  0.00  0.00    +0.239 C 
ATOM     28  O   UNL     1       1.810   0.980   4.161  0.00  0.00    -0.273 OA
ATOM     29  N   UNL     1       1.619   2.414   2.480  0.00  0.00    -0.309 N 
ATOM     30  H   UNL     1       1.123   2.706   1.698  0.00  0.00    +0.149 HD
BRANCH  29  31
ATOM     31  C   UNL     1       2.770   3.190   2.948  0.00  0.00    +0.026 C 
ATOM     32  C   UNL     1       4.022   2.312   2.919  0.00  0.00    +0.031 C 
ATOM     33  C   UNL     1       2.974   4.401   2.036  0.00  0.00    +0.031 C 
ATOM     34  C   UNL     1       2.514   3.667   4.380  0.00  0.00    +0.031 C 
ENDBRANCH  29  31
ENDBRANCH  19  27
ENDBRANCH   1  19
BRANCH   1  35
ATOM     35  C   UNL     1       0.776  -1.651   3.878  0.00  0.00    +0.183 C 
BRANCH  35  36
ATOM     36  C   UNL     1       0.480  -2.878   3.054  0.00  0.00    +0.122 A 
ATOM     37  C   UNL     1       1.055  -3.193   1.879  0.00  0.00    +0.046 A 
ATOM     38  C   UNL     1       0.485  -4.418   1.461  0.00  0.00    +0.041 A 
ATOM     39  C   UNL     1      -0.403  -4.777   2.405  0.00  0.00    +0.195 A 
ATOM     40  O   UNL     1      -0.398  -3.843   3.370  0.00  0.00    -0.466 OA
ENDBRANCH  35  36
ENDBRANCH   1  35
TORSDOF 10
