REMARK  Name = ZINC19592405
REMARK  7 active torsions:
REMARK  status: ('A' for Active; 'I' for Inactive)
REMARK    1  A    between atoms: C_1  and  O_2
REMARK    2  A    between atoms: O_2  and  C_3
REMARK    3  A    between atoms: C_3  and  C_5
REMARK    4  A    between atoms: C_5  and  C_32
REMARK    5  A    between atoms: C_10  and  C_13
REMARK    6  A    between atoms: C_16  and  O_19
REMARK    7  A    between atoms: N_22  and  C_25
REMARK                            x       y       z     vdW  Elec       q    Type
REMARK                         _______ _______ _______ _____ _____    ______ ____
ROOT
ATOM      1  C   UNL     1       0.209   5.569  -0.132  0.00  0.00    +0.155 C 
ATOM      2  C   UNL     1      -1.103   5.728   0.546  0.00  0.00    +0.125 C 
ATOM      3  C   UNL     1      -0.685   5.547   2.060  0.00  0.00    +0.112 C 
ATOM      4  C   UNL     1       0.463   6.527   2.076  0.00  0.00    +0.098 C 
ATOM      5  N   UNL     1       1.199   6.183   0.812  0.00  0.00    -0.290 NA
ATOM      6  C   UNL     1      -2.019   5.744   2.669  0.00  0.00    +0.232 C 
ATOM      7  O   UNL     1      -2.273   6.285   3.724  0.00  0.00    -0.274 OA
ATOM      8  N   UNL     1      -2.906   5.184   1.787  0.00  0.00    -0.210 N 
ATOM      9  C   UNL     1      -2.352   4.965   0.551  0.00  0.00    +0.233 C 
ATOM     10  O   UNL     1      -2.792   4.277  -0.345  0.00  0.00    -0.274 OA
ATOM     11  H   UNL     1       2.003   5.462   1.019  0.00  0.00    +0.124 HD
ENDROOT
BRANCH   8  12
ATOM     12  C   UNL     1      -4.234   4.871   2.112  0.00  0.00    +0.044 A 
ATOM     13  C   UNL     1      -5.070   4.311   1.156  0.00  0.00    +0.027 A 
ATOM     14  C   UNL     1      -6.376   3.998   1.478  0.00  0.00    +0.040 A 
ATOM     15  C   UNL     1      -6.855   4.253   2.752  0.00  0.00    +0.124 A 
ATOM     16  C   UNL     1      -6.025   4.817   3.706  0.00  0.00    +0.040 A 
ATOM     17  C   UNL     1      -4.716   5.126   3.389  0.00  0.00    +0.027 A 
ATOM     18  F   UNL     1      -8.134   3.951   3.065  0.00  0.00    -0.205 F 
ENDBRANCH   8  12
BRANCH   4  19
ATOM     19  C   UNL     1       1.340   6.311   3.282  0.00  0.00    -0.029 A 
ATOM     20  C   UNL     1       2.057   5.136   3.412  0.00  0.00    +0.009 A 
ATOM     21  C   UNL     1       2.867   4.938   4.514  0.00  0.00    +0.046 A 
ATOM     22  C   UNL     1       2.950   5.914   5.497  0.00  0.00    +0.117 A 
ATOM     23  C   UNL     1       2.225   7.090   5.366  0.00  0.00    +0.046 A 
ATOM     24  C   UNL     1       1.422   7.286   4.259  0.00  0.00    +0.009 A 
BRANCH  22  25
ATOM     25  O   UNL     1       3.741   5.719   6.585  0.00  0.00    -0.507 OA
ATOM     26  H   UNL     1       3.806   6.494   7.363  0.00  0.00    +0.292 HD
ENDBRANCH  22  25
ENDBRANCH   4  19
BRANCH   1  27
ATOM     27  C   UNL     1       0.519   4.109  -0.343  0.00  0.00    -0.016 A 
ATOM     28  C   UNL     1       1.598   3.532   0.299  0.00  0.00    +0.006 A 
ATOM     29  C   UNL     1       1.882   2.193   0.107  0.00  0.00    +0.000 A 
ATOM     30  C   UNL     1       1.087   1.431  -0.728  0.00  0.00    +0.000 A 
ATOM     31  C   UNL     1       0.010   2.010  -1.375  0.00  0.00    +0.000 A 
ATOM     32  C   UNL     1      -0.277   3.347  -1.178  0.00  0.00    +0.006 A 
ENDBRANCH   1  27
BRANCH   1  33
ATOM     33  C   UNL     1       0.214   6.301  -1.449  0.00  0.00    +0.333 C 
ATOM     34  O   UNL     1      -0.822   6.485  -2.043  0.00  0.00    -0.248 OA
BRANCH  33  36
ATOM     35  C   UNL     1       1.300   7.447  -3.235  0.00  0.00    +0.280 C 
ATOM     36  O   UNL     1       1.370   6.750  -1.963  0.00  0.00    -0.466 OA
ENDBRANCH  33  36
ENDBRANCH   1  33
TORSDOF 6
