REMARK  Name = ZINC24515404
REMARK  9 active torsions:
REMARK  status: ('A' for Active; 'I' for Inactive)
REMARK    1  A    between atoms: C_4  and  C_7
REMARK    2  A    between atoms: C_7  and  C_9
REMARK    3  A    between atoms: C_7  and  N_15
REMARK    4  A    between atoms: N_11  and  C_12
REMARK    5  A    between atoms: N_15  and  C_16
REMARK    6  A    between atoms: C_16  and  C_17
REMARK    7  A    between atoms: C_17  and  C_19
REMARK    8  A    between atoms: C_17  and  O_28
REMARK    9  A    between atoms: C_22  and  N_25
REMARK                            x       y       z     vdW  Elec       q    Type
REMARK                         _______ _______ _______ _____ _____    ______ ____
ROOT
ATOM      1  N   UNL     1       2.110   1.142  -1.212  0.00  0.00    +0.391 N 
ATOM      2  H   UNL     1       1.564   1.506  -2.094  0.00  0.00    -0.084 HD
ATOM      3  H   UNL     1       2.111   0.042  -1.209  0.00  0.00    -0.084 HD
ENDROOT
BRANCH   1   4
ATOM      4  C   UNL     1       3.494   1.632  -1.256  0.00  0.00    +0.047 C 
BRANCH   4   8
ATOM      5  C   UNL     1       6.008  -0.998   0.984  0.00  0.00    +0.000 A 
ATOM      6  C   UNL     1       6.200   0.370   1.055  0.00  0.00    +0.000 A 
ATOM      7  C   UNL     1       5.386   1.220   0.330  0.00  0.00    +0.002 A 
ATOM      8  C   UNL     1       4.381   0.704  -0.466  0.00  0.00    -0.053 A 
ATOM      9  C   UNL     1       4.186  -0.663  -0.534  0.00  0.00    +0.002 A 
ATOM     10  C   UNL     1       5.003  -1.514   0.188  0.00  0.00    +0.000 A 
ENDBRANCH   4   8
BRANCH   4  11
ATOM     11  C   UNL     1       3.965   1.679  -2.687  0.00  0.00    +0.203 C 
ATOM     12  O   UNL     1       3.220   1.338  -3.582  0.00  0.00    -0.277 OA
ATOM     13  N   UNL     1       5.213   2.100  -2.973  0.00  0.00    -0.314 N 
ATOM     14  H   UNL     1       5.888   2.409  -2.161  0.00  0.00    +0.149 HD
BRANCH  13  15
ATOM     15  C   UNL     1       5.670   2.146  -4.364  0.00  0.00    +0.073 C 
ATOM     16  C   UNL     1       7.076   1.623  -4.662  0.00  0.00    +0.024 C 
ATOM     17  C   UNL     1       6.793   3.127  -4.706  0.00  0.00    +0.024 C 
ENDBRANCH  13  15
ENDBRANCH   4  11
ENDBRANCH   1   4
BRANCH   1  18
ATOM     18  C   UNL     1       1.423   1.615  -0.003  0.00  0.00    -0.045 C 
BRANCH  18  19
ATOM     19  C   UNL     1      -0.013   1.086   0.008  0.00  0.00    +0.128 C 
BRANCH  19  20
ATOM     20  C   UNL     1      -0.718   1.572   1.248  0.00  0.00    -0.021 A 
ATOM     21  C   UNL     1      -1.313   2.819   1.260  0.00  0.00    +0.008 A 
ATOM     22  C   UNL     1      -1.964   3.263   2.396  0.00  0.00    +0.033 A 
ATOM     23  C   UNL     1      -2.012   2.464   3.523  0.00  0.00    +0.126 A 
ATOM     24  C   UNL     1      -1.412   1.218   3.512  0.00  0.00    +0.033 A 
ATOM     25  C   UNL     1      -0.765   0.772   2.375  0.00  0.00    +0.008 A 
BRANCH  23  26
ATOM     26  N   UNL     1      -2.705   2.941   4.740  0.00  0.00    +0.056 N 
ATOM     27  O   UNL     1      -2.746   2.236   5.733  0.00  0.00    -0.126 OA
ATOM     28  O   UNL     1      -3.233   4.038   4.750  0.00  0.00    -0.126 OA
ENDBRANCH  23  26
ENDBRANCH  19  20
BRANCH  19  29
ATOM     29  O   UNL     1      -0.704   1.559  -1.150  0.00  0.00    -0.389 OA
ATOM     30  H   UNL     1      -1.755   1.280  -1.315  0.00  0.00    +0.210 HD
ENDBRANCH  19  29
ENDBRANCH  18  19
ENDBRANCH   1  18
TORSDOF 9
