REMARK  Name = ZINC23441530
REMARK  10 active torsions:
REMARK  status: ('A' for Active; 'I' for Inactive)
REMARK    1  A    between atoms: C_1  and  C_2
REMARK    2  A    between atoms: C_3  and  N_15
REMARK    3  A    between atoms: N_6  and  C_9
REMARK    4  A    between atoms: N_7  and  C_8
REMARK    5  A    between atoms: C_16  and  C_18
REMARK    6  A    between atoms: C_18  and  C_19
REMARK    7  A    between atoms: C_19  and  C_20
REMARK    8  A    between atoms: N_22  and  C_23
REMARK    9  A    between atoms: C_28  and  C_33
REMARK   10  A    between atoms: C_30  and  C_32
REMARK                            x       y       z     vdW  Elec       q    Type
REMARK                         _______ _______ _______ _____ _____    ______ ____
ROOT
ATOM      1  N   UNL     1      -0.265   1.852  -0.121  0.00  0.00    -0.280 N 
ATOM      2  C   UNL     1      -0.601   0.684  -0.703  0.00  0.00    +0.218 C 
ATOM      3  O   UNL     1       0.246   0.019  -1.262  0.00  0.00    -0.275 OA
ATOM      4  H   UNL     1      -1.046   2.496   0.310  0.00  0.00    +0.155 HD
ENDROOT
BRANCH   1   7
ATOM      5  C   UNL     1       1.190   2.734   2.432  0.00  0.00    +0.067 C 
ATOM      6  C   UNL     1       1.760   2.642   1.040  0.00  0.00    +0.059 A 
ATOM      7  C   UNL     1       1.086   2.248  -0.064  0.00  0.00    +0.121 A 
ATOM      8  C   UNL     1       2.018   2.316  -1.189  0.00  0.00    +0.293 A 
ATOM      9  O   UNL     1       1.775   2.041  -2.350  0.00  0.00    -0.264 OA
ATOM     10  N   UNL     1       3.200   2.741  -0.695  0.00  0.00    -0.216 N 
ATOM     11  N   UNL     1       3.048   2.941   0.682  0.00  0.00    -0.282 N 
ATOM     12  C   UNL     1       4.097   3.403   1.594  0.00  0.00    +0.171 C 
BRANCH  10  13
ATOM     13  C   UNL     1       4.371   2.947  -1.430  0.00  0.00    +0.067 A 
ATOM     14  C   UNL     1       5.080   4.133  -1.292  0.00  0.00    +0.028 A 
ATOM     15  C   UNL     1       6.240   4.331  -2.016  0.00  0.00    +0.002 A 
ATOM     16  C   UNL     1       6.689   3.354  -2.885  0.00  0.00    +0.000 A 
ATOM     17  C   UNL     1       5.983   2.174  -3.029  0.00  0.00    +0.002 A 
ATOM     18  C   UNL     1       4.826   1.968  -2.304  0.00  0.00    +0.028 A 
ENDBRANCH  10  13
ENDBRANCH   1   7
BRANCH   2  19
ATOM     19  C   UNL     1      -2.029   0.203  -0.661  0.00  0.00    +0.105 C 
BRANCH  19  20
ATOM     20  C   UNL     1      -2.138  -1.137  -1.390  0.00  0.00    +0.105 C 
BRANCH  20  21
ATOM     21  C   UNL     1      -3.565  -1.618  -1.347  0.00  0.00    +0.214 C 
ATOM     22  O   UNL     1      -4.412  -0.953  -0.789  0.00  0.00    -0.276 OA
ATOM     23  N   UNL     1      -3.901  -2.786  -1.930  0.00  0.00    -0.312 N 
ATOM     24  H   UNL     1      -3.133  -3.388  -2.437  0.00  0.00    +0.149 HD
BRANCH  23  25
ATOM     25  C   UNL     1      -5.289  -3.253  -1.889  0.00  0.00    +0.076 C 
ATOM     26  C   UNL     1      -5.536  -4.004  -0.579  0.00  0.00    +0.022 C 
ATOM     27  C   UNL     1      -6.985  -4.492  -0.536  0.00  0.00    +0.002 C 
ATOM     28  C   UNL     1      -7.243  -5.429  -1.717  0.00  0.00    +0.003 C 
ATOM     29  C   UNL     1      -6.997  -4.678  -3.027  0.00  0.00    -0.009 C 
ATOM     30  C   UNL     1      -5.547  -4.190  -3.070  0.00  0.00    +0.009 C 
ATOM     31  C   UNL     1      -5.300  -3.439  -4.380  0.00  0.00    +0.009 C 
ATOM     32  C   UNL     1      -7.255  -5.615  -4.209  0.00  0.00    +0.008 C 
ENDBRANCH  23  25
ENDBRANCH  20  21
ENDBRANCH  19  20
ENDBRANCH   2  19
TORSDOF 6
