REMARK  Name = ZINC05172480
REMARK  3 active torsions:
REMARK  status: ('A' for Active; 'I' for Inactive)
REMARK    1  A    between atoms: C_4  and  N_21
REMARK    2  A    between atoms: C_6  and  C_7
REMARK    3  A    between atoms: N_11  and  C_15
REMARK                            x       y       z     vdW  Elec       q    Type
REMARK                         _______ _______ _______ _____ _____    ______ ____
ROOT
ATOM      1  C   UNL     1      -2.561   1.520   0.022  0.00  0.00    +0.028 C 
ATOM      2  C   UNL     1      -1.303   1.906   0.349  0.00  0.00    +0.077 C 
ATOM      3  C   UNL     1      -0.068   1.101   0.454  0.00  0.00    +0.259 C 
ATOM      4  O   UNL     1      -0.064  -0.096   0.236  0.00  0.00    -0.269 OA
ATOM      5  N   UNL     1       1.034   1.749   0.792  0.00  0.00    -0.252 N 
ATOM      6  C   UNL     1       1.026   3.076   1.033  0.00  0.00    +0.121 C 
ATOM      7  S   UNL     1       2.336   4.084   1.479  0.00  0.00    -0.027 S 
ATOM      8  S   UNL     1      -0.682   3.528   0.775  0.00  0.00    -0.061 S 
ENDROOT
BRANCH   1  14
ATOM      9  C   UNL     1      -4.940   2.139  -0.357  0.00  0.00    +0.009 A 
ATOM     10  C   UNL     1      -5.981   3.035  -0.240  0.00  0.00    +0.023 A 
ATOM     11  C   UNL     1      -5.778   4.261   0.371  0.00  0.00    +0.071 A 
ATOM     12  C   UNL     1      -4.529   4.597   0.869  0.00  0.00    +0.145 A 
ATOM     13  C   UNL     1      -3.480   3.709   0.765  0.00  0.00    +0.042 A 
ATOM     14  C   UNL     1      -3.676   2.470   0.143  0.00  0.00    -0.022 A 
ATOM     15 CL   UNL     1      -7.094   5.384   0.515  0.00  0.00    -0.081 Cl
BRANCH  12  16
ATOM     16  N   UNL     1      -4.322   5.910   1.520  0.00  0.00    +0.058 N 
ATOM     17  O   UNL     1      -3.224   6.207   1.958  0.00  0.00    -0.126 OA
ATOM     18  O   UNL     1      -5.249   6.694   1.618  0.00  0.00    -0.126 OA
ENDBRANCH  12  16
ENDBRANCH   1  14
BRANCH   5  19
ATOM     19  C   UNL     1       2.293   1.009   0.908  0.00  0.00    +0.083 C 
ATOM     20  C   UNL     1       2.833   1.141   2.333  0.00  0.00    +0.023 C 
ATOM     21  C   UNL     1       4.148   0.367   2.454  0.00  0.00    +0.002 C 
ATOM     22  C   UNL     1       5.168   0.939   1.467  0.00  0.00    +0.000 C 
ATOM     23  C   UNL     1       4.628   0.808   0.042  0.00  0.00    +0.002 C 
ATOM     24  C   UNL     1       3.313   1.581  -0.079  0.00  0.00    +0.023 C 
ENDBRANCH   5  19
TORSDOF 3
