REMARK  Name = ZINC26728074
REMARK  2 active torsions:
REMARK  status: ('A' for Active; 'I' for Inactive)
REMARK    1  A    between atoms: C_1  and  C_2
REMARK    2  A    between atoms: C_17  and  C_22
REMARK                            x       y       z     vdW  Elec       q    Type
REMARK                         _______ _______ _______ _____ _____    ______ ____
ROOT
ATOM      1  C   UNL     1       5.400   6.541  -5.839  0.00  0.00    +0.044 C 
ATOM      2  C   UNL     1       5.509   6.477  -4.337  0.00  0.00    -0.050 A 
ATOM      3  C   UNL     1       6.588   7.085  -3.717  0.00  0.00    +0.005 A 
ATOM      4  C   UNL     1       6.755   7.068  -2.343  0.00  0.00    +0.026 A 
ATOM      5  C   UNL     1       5.782   6.408  -1.597  0.00  0.00    +0.047 A 
ATOM      6  C   UNL     1       4.679   5.786  -2.237  0.00  0.00    +0.005 A 
ATOM      7  C   UNL     1       4.535   5.819  -3.628  0.00  0.00    +0.013 A 
ATOM      8  C   UNL     1       3.881   5.205  -1.180  0.00  0.00    -0.002 A 
ATOM      9  C   UNL     1       4.502   5.487  -0.012  0.00  0.00    +0.023 A 
ATOM     10  N   UNL     1       5.640   6.205  -0.253  0.00  0.00    -0.358 N 
ATOM     11  H   UNL     1       6.390   6.604   0.446  0.00  0.00    +0.166 HD
ATOM     12  C   UNL     1       3.964   5.044   1.329  0.00  0.00    +0.072 C 
ATOM     13  C   UNL     1       2.497   4.635   1.141  0.00  0.00    +0.113 C 
ATOM     14  N   UNL     1       2.385   3.716  -0.001  0.00  0.00    -0.309 N 
ATOM     15  C   UNL     1       2.597   4.421  -1.276  0.00  0.00    +0.144 C 
ATOM     16  C   UNL     1       1.165   3.062   0.007  0.00  0.00    +0.139 A 
ATOM     17  C   UNL     1      -0.028   3.806   0.022  0.00  0.00    +0.092 A 
ATOM     18  C   UNL     1      -1.248   3.122   0.030  0.00  0.00    +0.024 A 
ATOM     19  C   UNL     1      -1.227   1.738   0.017  0.00  0.00    +0.021 A 
ATOM     20  C   UNL     1      -0.013   1.076   0.008  0.00  0.00    +0.113 A 
ATOM     21  N   UNL     1       1.128   1.739   0.001  0.00  0.00    -0.239 NA
ENDROOT
BRANCH  17  22
ATOM     22  C   UNL     1       0.006   5.237   0.029  0.00  0.00    +0.103 C 
ATOM     23  N   UNL     1       0.033   6.373   0.035  0.00  0.00    -0.191 NA
ENDBRANCH  17  22
TORSDOF 1
