REMARK  Name = ZINC39964773
REMARK  9 active torsions:
REMARK  status: ('A' for Active; 'I' for Inactive)
REMARK    1  A    between atoms: C_1  and  C_2
REMARK    2  A    between atoms: C_7  and  C_12
REMARK    3  A    between atoms: C_12  and  C_31
REMARK    4  A    between atoms: C_13  and  C_14
REMARK    5  A    between atoms: C_16  and  O_29
REMARK    6  A    between atoms: C_17  and  O_21
REMARK    7  A    between atoms: O_21  and  C_22
REMARK    8  A    between atoms: C_22  and  C_23
REMARK    9  A    between atoms: O_29  and  C_30
REMARK                            x       y       z     vdW  Elec       q    Type
REMARK                         _______ _______ _______ _____ _____    ______ ____
ROOT
ATOM      1  C   UNL     1      -0.083  -6.829   2.984  0.00  0.00    -0.019 A 
ATOM      2  C   UNL     1      -0.193  -7.940   3.827  0.00  0.00    +0.057 A 
ATOM      3  C   UNL     1      -1.437  -8.470   4.107  0.00  0.00    +0.164 A 
ATOM      4  C   UNL     1      -2.581  -7.899   3.550  0.00  0.00    +0.181 A 
ATOM      5  C   UNL     1      -2.473  -6.796   2.714  0.00  0.00    +0.087 A 
ATOM      6  C   UNL     1      -1.235  -6.256   2.434  0.00  0.00    +0.032 A 
ATOM      7 CL   UNL     1      -3.901  -6.089   2.024  0.00  0.00    -0.080 Cl
ENDROOT
BRANCH   1   9
ATOM      8  C   UNL     1       1.389  -4.923   2.572  0.00  0.00    +0.072 C 
ATOM      9  C   UNL     1       1.239  -6.260   2.683  0.00  0.00    +0.026 C 
BRANCH   8  16
ATOM     10  C   UNL     1       0.722   2.007   3.183  0.00  0.00    +0.044 C 
ATOM     11  C   UNL     1       0.449   0.585   2.766  0.00  0.00    -0.048 A 
ATOM     12  C   UNL     1      -0.133   0.350   1.508  0.00  0.00    +0.005 A 
ATOM     13  C   UNL     1      -0.411  -0.889   1.055  0.00  0.00    +0.027 A 
ATOM     14  C   UNL     1      -0.101  -2.054   1.895  0.00  0.00    +0.060 A 
ATOM     15  N   UNL     1      -0.255  -3.335   1.724  0.00  0.00    -0.359 N 
ATOM     16  C   UNL     1       0.249  -4.005   2.929  0.00  0.00    +0.216 C 
ATOM     17  N   UNL     1       0.718  -2.942   3.828  0.00  0.00    -0.359 N 
ATOM     18  C   UNL     1       0.515  -1.805   3.227  0.00  0.00    +0.061 A 
ATOM     19  C   UNL     1       0.778  -0.411   3.612  0.00  0.00    +0.030 A 
ATOM     20  H   UNL     1      -0.634  -3.768   0.943  0.00  0.00    +0.162 HD
ATOM     21  H   UNL     1       1.108  -3.065   4.707  0.00  0.00    +0.162 HD
ENDBRANCH   8  16
BRANCH   8  22
ATOM     22  C   UNL     1       2.632  -4.377   2.115  0.00  0.00    +0.099 C 
ATOM     23  N   UNL     1       3.618  -3.945   1.753  0.00  0.00    -0.191 NA
ENDBRANCH   8  22
ENDBRANCH   1   9
BRANCH   3  24
ATOM     24  O   UNL     1      -1.548  -9.551   4.926  0.00  0.00    -0.491 OA
ATOM     25  C   UNL     1      -0.335 -10.086   5.461  0.00  0.00    +0.277 C 
ENDBRANCH   3  24
BRANCH   4  26
ATOM     26  O   UNL     1      -3.803  -8.423   3.826  0.00  0.00    -0.482 OA
BRANCH  26  27
ATOM     27  C   UNL     1      -4.491  -7.901   4.965  0.00  0.00    +0.264 C 
BRANCH  27  28
ATOM     28  C   UNL     1      -5.819  -8.597   5.113  0.00  0.00    -0.010 A 
ATOM     29  C   UNL     1      -6.940  -8.087   4.484  0.00  0.00    +0.007 A 
ATOM     30  C   UNL     1      -8.159  -8.726   4.620  0.00  0.00    +0.000 A 
ATOM     31  C   UNL     1      -8.256  -9.874   5.383  0.00  0.00    +0.000 A 
ATOM     32  C   UNL     1      -7.135 -10.384   6.011  0.00  0.00    +0.000 A 
ATOM     33  C   UNL     1      -5.916  -9.748   5.872  0.00  0.00    +0.007 A 
ENDBRANCH  27  28
ENDBRANCH  26  27
ENDBRANCH   4  26
TORSDOF 7
