REMARK  Name = ZINC38705919
REMARK  18 active torsions:
REMARK  status: ('A' for Active; 'I' for Inactive)
REMARK    1  A    between atoms: C_1  and  C_2
REMARK    2  A    between atoms: C_2  and  C_3
REMARK    3  A    between atoms: C_3  and  C_4
REMARK    4  A    between atoms: C_4  and  C_5
REMARK    5  A    between atoms: C_5  and  O_6
REMARK    6  A    between atoms: O_6  and  C_7
REMARK    7  A    between atoms: C_10  and  C_16
REMARK    8  A    between atoms: C_12  and  O_13
REMARK    9  A    between atoms: O_13  and  C_14
REMARK   10  A    between atoms: C_14  and  C_15
REMARK   11  A    between atoms: C_19  and  C_31
REMARK   12  A    between atoms: N_26  and  C_27
REMARK   13  A    between atoms: C_27  and  C_28
REMARK   14  A    between atoms: C_28  and  C_29
REMARK   15  A    between atoms: C_29  and  O_30
REMARK   16  A    between atoms: C_32  and  C_39
REMARK   17  A    between atoms: C_34  and  C_38
REMARK   18  A    between atoms: C_36  and  O_37
REMARK                            x       y       z     vdW  Elec       q    Type
REMARK                         _______ _______ _______ _____ _____    ______ ____
ROOT
ATOM      1  C   UNL     1       3.983  -6.472  -6.935  0.00  0.00    +0.141 C 
ATOM      2  C   UNL     1       5.474  -6.301  -6.827  0.00  0.00    +0.035 A 
ATOM      3  C   UNL     1       6.638  -6.544  -6.091  0.00  0.00    +0.102 A 
ATOM      4  N   UNL     1       7.643  -6.005  -6.753  0.00  0.00    -0.173 NA
ATOM      5  N   UNL     1       7.228  -5.447  -7.834  0.00  0.00    -0.272 N 
ATOM      6  H   UNL     1       7.793  -4.989  -8.477  0.00  0.00    +0.189 HD
ATOM      7  C   UNL     1       5.875  -5.595  -7.944  0.00  0.00    +0.126 A 
ATOM      8  C   UNL     1       4.692  -5.307  -8.764  0.00  0.00    +0.265 C 
ATOM      9  O   UNL     1       4.709  -4.698  -9.816  0.00  0.00    -0.268 OA
ATOM     10  N   UNL     1       3.586  -5.814  -8.186  0.00  0.00    -0.285 N 
ENDROOT
BRANCH   3  11
ATOM     11  C   UNL     1       6.727  -7.273  -4.801  0.00  0.00    +0.047 A 
ATOM     12  C   UNL     1       7.417  -6.715  -3.728  0.00  0.00    -0.037 A 
ATOM     13  C   UNL     1       7.497  -7.397  -2.530  0.00  0.00    +0.007 A 
ATOM     14  C   UNL     1       6.892  -8.634  -2.392  0.00  0.00    -0.047 A 
ATOM     15  C   UNL     1       6.205  -9.197  -3.450  0.00  0.00    +0.049 A 
ATOM     16  C   UNL     1       6.112  -8.520  -4.656  0.00  0.00    +0.127 A 
ATOM     17  C   UNL     1       6.984  -9.371  -1.080  0.00  0.00    +0.044 C 
ATOM     18  C   UNL     1       8.077  -5.368  -3.874  0.00  0.00    +0.044 C 
BRANCH  16  19
ATOM     19  O   UNL     1       5.431  -9.069  -5.696  0.00  0.00    -0.506 OA
ATOM     20  H   UNL     1       5.955  -9.685  -6.227  0.00  0.00    +0.292 HD
ENDBRANCH  16  19
ENDBRANCH   3  11
BRANCH   1  24
ATOM     21  C   UNL     1       2.045  -4.600  -3.613  0.00  0.00    +0.162 A 
ATOM     22  C   UNL     1       2.686  -3.829  -4.570  0.00  0.00    +0.050 A 
ATOM     23  C   UNL     1       3.312  -4.437  -5.642  0.00  0.00    +0.009 A 
ATOM     24  C   UNL     1       3.300  -5.814  -5.763  0.00  0.00    -0.019 A 
ATOM     25  C   UNL     1       2.662  -6.590  -4.813  0.00  0.00    +0.055 A 
ATOM     26  C   UNL     1       2.038  -5.987  -3.732  0.00  0.00    +0.162 A 
BRANCH  21  27
ATOM     27  O   UNL     1       1.430  -4.004  -2.558  0.00  0.00    -0.488 OA
BRANCH  27  28
ATOM     28  C   UNL     1       1.477  -2.577  -2.500  0.00  0.00    +0.229 C 
BRANCH  28  29
ATOM     29  C   UNL     1       0.737  -2.091  -1.252  0.00  0.00    +0.041 C 
BRANCH  29  30
ATOM     30  C   UNL     1       0.788  -0.564  -1.191  0.00  0.00    +0.003 C 
BRANCH  30  32
ATOM     31  C   UNL     1       0.099   1.450   0.118  0.00  0.00    +0.004 C 
ATOM     32  C   UNL     1       0.048  -0.078   0.057  0.00  0.00    -0.003 C 
ENDBRANCH  30  32
ENDBRANCH  29  30
ENDBRANCH  28  29
ENDBRANCH  27  28
ENDBRANCH  21  27
BRANCH  26  33
ATOM     33  O   UNL     1       1.415  -6.748  -2.793  0.00  0.00    -0.489 OA
BRANCH  33  34
ATOM     34  C   UNL     1       1.448  -8.165  -2.980  0.00  0.00    +0.226 C 
ATOM     35  C   UNL     1       0.702  -8.848  -1.833  0.00  0.00    +0.048 C 
ENDBRANCH  33  34
ENDBRANCH  26  33
ENDBRANCH   1  24
BRANCH  10  36
ATOM     36  C   UNL     1       2.223  -5.723  -8.714  0.00  0.00    +0.111 C 
BRANCH  36  37
ATOM     37  C   UNL     1       1.554  -4.453  -8.184  0.00  0.00    +0.047 C 
BRANCH  37  38
ATOM     38  C   UNL     1       0.130  -4.359  -8.735  0.00  0.00    +0.157 C 
BRANCH  38  39
ATOM     39  O   UNL     1      -0.495  -3.173  -8.240  0.00  0.00    -0.395 OA
ATOM     40  H   UNL     1      -1.403  -3.048  -8.550  0.00  0.00    +0.209 HD
ENDBRANCH  38  39
ENDBRANCH  37  38
ENDBRANCH  36  37
ENDBRANCH  10  36
TORSDOF 14
