REMARK  Name = ZINC36689365
REMARK  2 active torsions:
REMARK  status: ('A' for Active; 'I' for Inactive)
REMARK    1  A    between atoms: N_13  and  C_17
REMARK    2  A    between atoms: C_17  and  C_18
REMARK                            x       y       z     vdW  Elec       q    Type
REMARK                         _______ _______ _______ _____ _____    ______ ____
ROOT
ATOM      1  C   UNL     1      -0.017   1.377   0.010  0.00  0.00    +0.001 A 
ATOM      2  C   UNL     1       1.171   2.084   0.002  0.00  0.00    +0.004 A 
ATOM      3  C   UNL     1       2.375   1.410  -0.015  0.00  0.00    +0.046 A 
ATOM      4  C   UNL     1       2.398   0.019  -0.023  0.00  0.00    +0.126 A 
ATOM      5  C   UNL     1       1.206  -0.687  -0.013  0.00  0.00    +0.027 A 
ATOM      6  C   UNL     1       0.002  -0.004   0.002  0.00  0.00    +0.010 A 
ATOM      7  C   UNL     1       1.195  -2.190  -0.012  0.00  0.00    +0.144 C 
ATOM      8  C   UNL     1       2.552  -2.742  -0.437  0.00  0.00    +0.081 C 
ATOM      9  C   UNL     1       3.643  -1.988   0.336  0.00  0.00    +0.232 C 
ATOM     10  O   UNL     1       3.600  -0.613  -0.045  0.00  0.00    -0.492 OA
ATOM     11  C   UNL     1       0.817  -2.714   1.355  0.00  0.00    +0.252 C 
ATOM     12  O   UNL     1       1.412  -2.542   2.397  0.00  0.00    -0.272 OA
ATOM     13  N   UNL     1      -0.321  -3.414   1.170  0.00  0.00    -0.220 N 
ATOM     14  C   UNL     1      -0.706  -3.401  -0.113  0.00  0.00    +0.310 C 
ATOM     15  O   UNL     1      -1.702  -3.961  -0.525  0.00  0.00    -0.252 OA
ATOM     16  N   UNL     1       0.136  -2.696  -0.893  0.00  0.00    -0.281 N 
ATOM     17  H   UNL     1       0.057  -2.552  -1.849  0.00  0.00    +0.152 HD
ENDROOT
BRANCH  13  18
ATOM     18  C   UNL     1      -1.047  -4.103   2.240  0.00  0.00    +0.153 C 
BRANCH  18  19
ATOM     19  C   UNL     1      -2.058  -3.164   2.847  0.00  0.00    -0.028 A 
ATOM     20  C   UNL     1      -1.700  -2.361   3.914  0.00  0.00    +0.007 A 
ATOM     21  C   UNL     1      -2.626  -1.499   4.472  0.00  0.00    +0.022 A 
ATOM     22  C   UNL     1      -3.911  -1.440   3.962  0.00  0.00    +0.059 A 
ATOM     23  C   UNL     1      -4.268  -2.244   2.893  0.00  0.00    +0.060 A 
ATOM     24  C   UNL     1      -3.339  -3.102   2.333  0.00  0.00    +0.026 A 
ATOM     25 CL   UNL     1      -5.880  -2.171   2.253  0.00  0.00    -0.082 Cl
ATOM     26 CL   UNL     1      -5.074  -0.358   4.663  0.00  0.00    -0.082 Cl
ENDBRANCH  18  19
ENDBRANCH  13  18
TORSDOF 2
