REMARK  Name = ZINC11828437
REMARK  11 active torsions:
REMARK  status: ('A' for Active; 'I' for Inactive)
REMARK    1  A    between atoms: C_1  and  C_2
REMARK    2  A    between atoms: C_4  and  O_11
REMARK    3  A    between atoms: C_7  and  C_8
REMARK    4  A    between atoms: C_8  and  C_9
REMARK    5  A    between atoms: C_8  and  C_10
REMARK    6  A    between atoms: O_11  and  C_12
REMARK    7  A    between atoms: C_12  and  C_13
REMARK    8  A    between atoms: C_13  and  O_14
REMARK    9  A    between atoms: O_14  and  C_15
REMARK   10  A    between atoms: C_20  and  C_21
REMARK   11  A    between atoms: N_22  and  O_23
REMARK                            x       y       z     vdW  Elec       q    Type
REMARK                         _______ _______ _______ _____ _____    ______ ____
ROOT
ATOM      1  C   UNL     1       4.772   0.062   1.794  0.00  0.00    +0.270 C 
ENDROOT
BRANCH   1   2
ATOM      2  C   UNL     1       5.963  -0.889   1.932  0.00  0.00    +0.270 C 
BRANCH   2   3
ATOM      3  O   UNL     1       6.179  -1.566   0.693  0.00  0.00    -0.489 OA
BRANCH   3   7
ATOM      4  C   UNL     1       8.809  -4.801  -1.845  0.00  0.00    +0.044 C 
ATOM      5  C   UNL     1       8.519  -4.048  -0.572  0.00  0.00    -0.044 A 
ATOM      6  C   UNL     1       7.474  -3.146  -0.527  0.00  0.00    +0.049 A 
ATOM      7  C   UNL     1       7.207  -2.453   0.645  0.00  0.00    +0.121 A 
ATOM      8  C   UNL     1       7.996  -2.664   1.767  0.00  0.00    +0.046 A 
ATOM      9  C   UNL     1       9.036  -3.571   1.718  0.00  0.00    +0.008 A 
ATOM     10  C   UNL     1       9.300  -4.260   0.549  0.00  0.00    -0.042 A 
BRANCH  10  11
ATOM     11  C   UNL     1      10.440  -5.244   0.496  0.00  0.00    +0.013 C 
ATOM     12  C   UNL     1      11.761  -4.507   0.725  0.00  0.00    +0.012 C 
ATOM     13  C   UNL     1      10.251  -6.302   1.585  0.00  0.00    +0.012 C 
ENDBRANCH  10  11
ENDBRANCH   3   7
ENDBRANCH   2   3
ENDBRANCH   1   2
BRANCH   1  14
ATOM     14  O   UNL     1       3.583  -0.695   1.564  0.00  0.00    -0.488 OA
BRANCH  14  15
ATOM     15  C   UNL     1       2.427   0.002   1.417  0.00  0.00    +0.129 A 
ATOM     16  C   UNL     1       2.435   1.386   1.493  0.00  0.00    +0.047 A 
ATOM     17  C   UNL     1       1.259   2.095   1.344  0.00  0.00    +0.019 A 
ATOM     18  C   UNL     1       0.064   1.430   1.119  0.00  0.00    +0.019 A 
ATOM     19  C   UNL     1       0.039   0.053   1.041  0.00  0.00    +0.028 A 
ATOM     20  C   UNL     1       1.221  -0.674   1.190  0.00  0.00    +0.039 A 
ATOM     21 BR   UNL     1      -1.537   2.415   0.909  0.00  0.00    -0.050 Br
BRANCH  20  22
ATOM     22  C   UNL     1       1.201  -2.147   1.107  0.00  0.00    +0.164 C 
ATOM     23  N   UNL     1       0.118  -2.796   1.390  0.00  0.00    -0.095 NA
BRANCH  23  24
ATOM     24  O   UNL     1      -1.093  -2.094   1.603  0.00  0.00    -0.409 OA
ATOM     25  H   UNL     1      -2.013  -2.646   1.844  0.00  0.00    +0.328 HD
ENDBRANCH  23  24
ENDBRANCH  20  22
ENDBRANCH  14  15
ENDBRANCH   1  14
TORSDOF 8
