REMARK  Name = ZINC66976486
REMARK  7 active torsions:
REMARK  status: ('A' for Active; 'I' for Inactive)
REMARK    1  A    between atoms: C_1  and  C_2
REMARK    2  A    between atoms: C_4  and  C_27
REMARK    3  A    between atoms: C_9  and  C_10
REMARK    4  A    between atoms: C_10  and  N_11
REMARK    5  A    between atoms: N_14  and  C_15
REMARK    6  A    between atoms: C_15  and  C_16
REMARK    7  A    between atoms: C_16  and  O_26
REMARK                            x       y       z     vdW  Elec       q    Type
REMARK                         _______ _______ _______ _____ _____    ______ ____
ROOT
ATOM      1  N   UNL     1      -1.340  -0.203   3.191  0.00  0.00    -0.295 N 
ATOM      2  C   UNL     1      -1.588   0.567   4.269  0.00  0.00    +0.300 C 
ATOM      3  O   UNL     1      -0.674   1.139   4.830  0.00  0.00    -0.253 OA
ATOM      4  N   UNL     1      -2.849   0.702   4.724  0.00  0.00    -0.296 N 
ATOM      5  H   UNL     1      -2.069  -0.660   2.743  0.00  0.00    +0.151 HD
ATOM      6  H   UNL     1      -3.578   0.245   4.276  0.00  0.00    +0.150 HD
ENDROOT
BRANCH   1   7
ATOM      7  C   UNL     1       0.031  -0.350   2.696  0.00  0.00    +0.146 C 
BRANCH   7  16
ATOM      8  C   UNL     1      -0.072   0.763   0.034  0.00  0.00    +0.044 C 
ATOM      9  C   UNL     1      -0.013  -0.730   0.233  0.00  0.00    -0.039 A 
ATOM     10  C   UNL     1      -0.002  -1.593  -0.872  0.00  0.00    +0.024 A 
ATOM     11  C   UNL     1       0.051  -2.932  -0.682  0.00  0.00    +0.016 A 
ATOM     12  N   UNL     1       0.095  -3.454   0.570  0.00  0.00    -0.326 N 
ATOM     13  H   UNL     1       0.133  -4.416   0.688  0.00  0.00    +0.169 HD
ATOM     14  C   UNL     1       0.086  -2.651   1.651  0.00  0.00    +0.254 A 
ATOM     15  O   UNL     1       0.126  -3.135   2.771  0.00  0.00    -0.268 OA
ATOM     16  C   UNL     1       0.036  -1.256   1.491  0.00  0.00    +0.037 A 
ATOM     17  C   UNL     1       0.062  -3.853  -1.875  0.00  0.00    +0.063 C 
ENDBRANCH   7  16
ENDBRANCH   1   7
BRANCH   4  18
ATOM     18  C   UNL     1      -3.119   1.538   5.896  0.00  0.00    +0.145 C 
BRANCH  18  19
ATOM     19  C   UNL     1      -4.630   1.628   6.122  0.00  0.00    +0.107 C 
ATOM     20  C   UNL     1      -5.296   2.173   4.860  0.00  0.00    +0.041 C 
ATOM     21  C   UNL     1      -6.769   2.460   5.176  0.00  0.00    +0.008 C 
ATOM     22  C   UNL     1      -6.834   3.661   6.118  0.00  0.00    +0.035 C 
ATOM     23  C   UNL     1      -5.918   3.460   7.297  0.00  0.00    -0.041 A 
ATOM     24  C   UNL     1      -4.904   2.529   7.297  0.00  0.00    -0.011 A 
ATOM     25  C   UNL     1      -4.091   2.398   8.415  0.00  0.00    +0.007 A 
ATOM     26  C   UNL     1      -4.294   3.191   9.527  0.00  0.00    +0.000 A 
ATOM     27  C   UNL     1      -5.314   4.123   9.528  0.00  0.00    +0.000 A 
ATOM     28  C   UNL     1      -6.122   4.255   8.417  0.00  0.00    +0.004 A 
BRANCH  19  29
ATOM     29  O   UNL     1      -5.143   0.323   6.398  0.00  0.00    -0.382 OA
ATOM     30  H   UNL     1      -4.759  -0.092   7.183  0.00  0.00    +0.211 HD
ENDBRANCH  19  29
ENDBRANCH  18  19
ENDBRANCH   4  18
TORSDOF 5
