REMARK  Name = ZINC67237900
REMARK  11 active torsions:
REMARK  status: ('A' for Active; 'I' for Inactive)
REMARK    1  A    between atoms: C_1  and  C_2
REMARK    2  A    between atoms: C_2  and  O_3
REMARK    3  A    between atoms: O_3  and  C_4
REMARK    4  A    between atoms: C_14  and  C_16
REMARK    5  A    between atoms: C_16  and  S_17
REMARK    6  A    between atoms: S_17  and  C_18
REMARK    7  A    between atoms: C_22  and  C_33
REMARK    8  A    between atoms: N_28  and  C_29
REMARK    9  A    between atoms: C_29  and  C_30
REMARK   10  A    between atoms: C_30  and  C_31
REMARK   11  A    between atoms: C_30  and  C_32
REMARK                            x       y       z     vdW  Elec       q    Type
REMARK                         _______ _______ _______ _____ _____    ______ ____
ROOT
ATOM      1  C   UNL     1      -6.381  -8.813   0.001  0.00  0.00    +0.173 C 
ENDROOT
BRANCH   1  12
ATOM      2  C   UNL     1      -1.498  -1.849   0.006  0.00  0.00    +0.123 A 
ATOM      3  C   UNL     1      -0.373  -2.668  -0.003  0.00  0.00    +0.047 A 
ATOM      4  C   UNL     1      -0.537  -4.041  -0.008  0.00  0.00    +0.021 A 
ATOM      5  C   UNL     1      -1.801  -4.574  -0.004  0.00  0.00    +0.041 A 
ATOM      6  C   UNL     1      -2.968  -3.776   0.005  0.00  0.00    +0.084 A 
ATOM      7  C   UNL     1      -2.768  -2.376   0.016  0.00  0.00    +0.074 A 
ATOM      8  N   UNL     1      -4.138  -4.451   0.008  0.00  0.00    -0.224 NA
ATOM      9  C   UNL     1      -4.197  -5.762   0.003  0.00  0.00    +0.165 A 
ATOM     10  S   UNL     1      -2.470  -6.221  -0.008  0.00  0.00    -0.052 S 
ATOM     11  N   UNL     1      -5.314  -6.582   0.005  0.00  0.00    -0.264 N 
ATOM     12  C   UNL     1      -5.166  -7.922  -0.002  0.00  0.00    +0.229 C 
ATOM     13  O   UNL     1      -4.056  -8.409  -0.010  0.00  0.00    -0.275 OA
ATOM     14  H   UNL     1      -6.202  -6.192   0.011  0.00  0.00    +0.157 HD
BRANCH   2  15
ATOM     15  O   UNL     1      -1.339  -0.499   0.012  0.00  0.00    -0.492 OA
BRANCH  15  17
ATOM     16  C   UNL     1      -0.019   1.526   0.010  0.00  0.00    +0.048 C 
ATOM     17  C   UNL     1       0.002  -0.004   0.002  0.00  0.00    +0.225 C 
ENDBRANCH  15  17
ENDBRANCH   2  15
ENDBRANCH   1  12
BRANCH   1  18
ATOM     18  S   UNL     1      -5.857 -10.550  -0.010  0.00  0.00    -0.078 S 
BRANCH  18  19
ATOM     19  C   UNL     1      -7.370 -11.452  -0.006  0.00  0.00    +0.173 A 
ATOM     20  N   UNL     1      -8.506 -10.794  -0.002  0.00  0.00    -0.222 NA
ATOM     21  C   UNL     1      -9.685 -11.446   0.001  0.00  0.00    +0.097 A 
ATOM     22  C   UNL     1     -11.034 -11.028   0.005  0.00  0.00    +0.051 A 
ATOM     23  C   UNL     1     -11.809 -12.131   0.007  0.00  0.00    +0.016 A 
ATOM     24  N   UNL     1     -11.021 -13.241   0.004  0.00  0.00    -0.353 N 
ATOM     25  H   UNL     1     -11.336 -14.158   0.005  0.00  0.00    +0.166 HD
ATOM     26  C   UNL     1      -9.700 -12.846   0.000  0.00  0.00    +0.131 A 
ATOM     27  C   UNL     1      -8.473 -13.536  -0.003  0.00  0.00    +0.279 A 
ATOM     28  O   UNL     1      -8.443 -14.755  -0.004  0.00  0.00    -0.265 OA
ATOM     29  N   UNL     1      -7.329 -12.817  -0.012  0.00  0.00    -0.286 N 
ATOM     30  C   UNL     1     -13.316 -12.135   0.012  0.00  0.00    +0.063 C 
BRANCH  29  31
ATOM     31  C   UNL     1      -6.036 -13.506  -0.023  0.00  0.00    +0.130 C 
BRANCH  31  32
ATOM     32  C   UNL     1      -5.578 -13.753   1.416  0.00  0.00    +0.003 C 
ATOM     33  C   UNL     1      -6.546 -14.719   2.101  0.00  0.00    +0.009 C 
ATOM     34  C   UNL     1      -4.173 -14.359   1.407  0.00  0.00    +0.009 C 
ENDBRANCH  31  32
ENDBRANCH  29  31
ENDBRANCH  18  19
ENDBRANCH   1  18
TORSDOF 7
