REMARK  Name = ZINC12975254
REMARK  10 active torsions:
REMARK  status: ('A' for Active; 'I' for Inactive)
REMARK    1  A    between atoms: C_1  and  C_2
REMARK    2  A    between atoms: C_3  and  C_30
REMARK    3  A    between atoms: C_4  and  C_27
REMARK    4  A    between atoms: C_5  and  S_9
REMARK    5  A    between atoms: C_7  and  C_8
REMARK    6  A    between atoms: S_9  and  C_10
REMARK    7  A    between atoms: C_10  and  C_11
REMARK    8  A    between atoms: N_13  and  N_14
REMARK    9  A    between atoms: N_14  and  C_15
REMARK   10  A    between atoms: N_14  and  C_21
REMARK                            x       y       z     vdW  Elec       q    Type
REMARK                         _______ _______ _______ _____ _____    ______ ____
ROOT
ATOM      1  C   UNL     1       3.165   2.154   5.060  0.00  0.00    +0.240 C 
ATOM      2  O   UNL     1       2.686   2.551   6.101  0.00  0.00    -0.273 OA
ATOM      3  N   UNL     1       4.484   1.890   4.984  0.00  0.00    -0.229 N 
ATOM      4  H   UNL     1       4.868   1.572   4.151  0.00  0.00    +0.173 HD
ENDROOT
BRANCH   1   5
ATOM      5  C   UNL     1       2.285   1.954   3.853  0.00  0.00    +0.173 C 
BRANCH   5   6
ATOM      6  S   UNL     1       0.579   2.390   4.271  0.00  0.00    -0.096 S 
BRANCH   6  11
ATOM      7  C   UNL     1      -1.991   1.290  -1.040  0.00  0.00    +0.046 C 
ATOM      8  C   UNL     1      -1.390   1.576   0.312  0.00  0.00    -0.026 A 
ATOM      9  C   UNL     1      -2.188   2.025   1.349  0.00  0.00    -0.031 A 
ATOM     10  C   UNL     1      -1.589   2.284   2.586  0.00  0.00    +0.071 A 
ATOM     11  C   UNL     1      -0.205   2.073   2.725  0.00  0.00    +0.110 A 
ATOM     12  N   UNL     1       0.511   1.636   1.700  0.00  0.00    -0.245 NA
ATOM     13  C   UNL     1      -0.036   1.387   0.527  0.00  0.00    +0.043 A 
ATOM     14  C   UNL     1       0.830   0.892  -0.603  0.00  0.00    +0.066 C 
ATOM     15  C   UNL     1      -3.667   2.236   1.149  0.00  0.00    +0.045 C 
BRANCH  10  16
ATOM     16  C   UNL     1      -2.392   2.770   3.723  0.00  0.00    +0.244 C 
ATOM     17  O   UNL     1      -2.541   3.965   3.895  0.00  0.00    -0.270 OA
ATOM     18  N   UNL     1      -2.960   1.891   4.571  0.00  0.00    -0.325 N 
ATOM     19  H   UNL     1      -2.841   0.938   4.434  0.00  0.00    +0.145 HD
ATOM     20  H   UNL     1      -3.489   2.211   5.319  0.00  0.00    +0.145 HD
ENDBRANCH  10  16
ENDBRANCH   6  11
ENDBRANCH   5   6
ENDBRANCH   1   5
BRANCH   3  21
ATOM     21  N   UNL     1       5.302   2.075   6.106  0.00  0.00    -0.220 N 
BRANCH  21  22
ATOM     22  C   UNL     1       5.260   1.159   7.160  0.00  0.00    +0.053 A 
ATOM     23  C   UNL     1       5.374  -0.202   6.905  0.00  0.00    +0.025 A 
ATOM     24  C   UNL     1       5.337  -1.104   7.949  0.00  0.00    +0.002 A 
ATOM     25  C   UNL     1       5.176  -0.655   9.247  0.00  0.00    +0.000 A 
ATOM     26  C   UNL     1       5.057   0.698   9.505  0.00  0.00    +0.002 A 
ATOM     27  C   UNL     1       5.099   1.607   8.465  0.00  0.00    +0.025 A 
ENDBRANCH  21  22
BRANCH  21  28
ATOM     28  C   UNL     1       6.160   3.176   6.171  0.00  0.00    +0.053 A 
ATOM     29  C   UNL     1       7.092   3.273   7.197  0.00  0.00    +0.025 A 
ATOM     30  C   UNL     1       7.941   4.360   7.256  0.00  0.00    +0.002 A 
ATOM     31  C   UNL     1       7.858   5.357   6.301  0.00  0.00    +0.000 A 
ATOM     32  C   UNL     1       6.928   5.267   5.282  0.00  0.00    +0.002 A 
ATOM     33  C   UNL     1       6.079   4.180   5.214  0.00  0.00    +0.025 A 
ENDBRANCH  21  28
ENDBRANCH   3  21
TORSDOF 7
