REMARK  Name = ZINC60363199
REMARK  5 active torsions:
REMARK  status: ('A' for Active; 'I' for Inactive)
REMARK    1  A    between atoms: C_6  and  S_7
REMARK    2  A    between atoms: S_7  and  N_10
REMARK    3  A    between atoms: C_19  and  C_21
REMARK    4  A    between atoms: C_21  and  N_22
REMARK    5  A    between atoms: C_26  and  C_29
REMARK                            x       y       z     vdW  Elec       q    Type
REMARK                         _______ _______ _______ _____ _____    ______ ____
ROOT
ATOM      1  C   UNL     1      -0.026   1.405   0.075  0.00  0.00    +0.030 A 
ATOM      2  C   UNL     1       1.165   2.102   0.045  0.00  0.00    +0.026 A 
ATOM      3  C   UNL     1       2.374   1.416   0.036  0.00  0.00    +0.039 A 
ATOM      4  C   UNL     1       2.384   0.030   0.058  0.00  0.00    -0.024 A 
ATOM      5  C   UNL     1       1.185  -0.662   0.085  0.00  0.00    +0.034 A 
ATOM      6  C   UNL     1      -0.015   0.022   0.093  0.00  0.00    +0.106 A 
ATOM      7  C   UNL     1       3.674  -0.747   0.059  0.00  0.00    +0.038 C 
ATOM      8  C   UNL     1       4.819   0.115  -0.472  0.00  0.00    +0.024 C 
ATOM      9  C   UNL     1       4.833   1.446   0.291  0.00  0.00    +0.114 C 
ATOM     10  N   UNL     1       3.572   2.143   0.001  0.00  0.00    -0.273 N 
ATOM     11  C   UNL     1       3.567   3.458  -0.293  0.00  0.00    +0.203 C 
ATOM     12  O   UNL     1       2.538   3.998  -0.639  0.00  0.00    -0.277 OA
ENDROOT
BRANCH   6  13
ATOM     13  S   UNL     1      -1.535  -0.868   0.129  0.00  0.00    +0.061 S 
ATOM     14  O   UNL     1      -1.247  -2.140   0.693  0.00  0.00    -0.153 OA
ATOM     15  O   UNL     1      -2.506   0.008   0.682  0.00  0.00    -0.153 OA
BRANCH  13  16
ATOM     16  N   UNL     1      -1.981  -1.137  -1.443  0.00  0.00    -0.177 NA
ATOM     17  C   UNL     1      -2.811  -0.243  -2.264  0.00  0.00    +0.109 C 
ATOM     18  C   UNL     1      -2.983  -0.914  -3.642  0.00  0.00    +0.018 C 
ATOM     19  C   UNL     1      -2.713  -2.411  -3.336  0.00  0.00    +0.018 C 
ATOM     20  C   UNL     1      -1.607  -2.310  -2.254  0.00  0.00    +0.109 C 
ENDBRANCH  13  16
ENDBRANCH   6  13
BRANCH  11  21
ATOM     21  C   UNL     1       4.841   4.257  -0.193  0.00  0.00    +0.019 C 
BRANCH  21  22
ATOM     22  N   UNL     1       4.546   5.678  -0.416  0.00  0.00    +0.386 N 
ATOM     23  C   UNL     1       3.681   6.172   0.663  0.00  0.00    -0.078 C 
ATOM     24  C   UNL     1       3.305   7.631   0.392  0.00  0.00    -0.018 C 
ATOM     25  C   UNL     1       4.579   8.478   0.329  0.00  0.00    +0.005 C 
ATOM     26  C   UNL     1       5.506   7.908  -0.749  0.00  0.00    +0.028 C 
ATOM     27  C   UNL     1       5.801   6.440  -0.436  0.00  0.00    -0.070 C 
ATOM     28  H   UNL     1       4.073   5.788  -1.300  0.00  0.00    -0.081 HD
BRANCH  26  29
ATOM     29  C   UNL     1       6.815   8.700  -0.768  0.00  0.00    +0.252 C 
ATOM     30  O   UNL     1       7.450   8.614   0.518  0.00  0.00    -0.349 OA
ATOM     31  C   UNL     1       8.064   9.911   0.716  0.00  0.00    +0.191 C 
ATOM     32  C   UNL     1       7.025  10.854   0.058  0.00  0.00    +0.191 C 
ATOM     33  O   UNL     1       6.540  10.078  -1.056  0.00  0.00    -0.349 OA
ENDBRANCH  26  29
ENDBRANCH  21  22
ENDBRANCH  11  21
TORSDOF 5
