REMARK  Name = ZINC65396487
REMARK  7 active torsions:
REMARK  status: ('A' for Active; 'I' for Inactive)
REMARK    1  A    between atoms: C_1  and  O_2
REMARK    2  A    between atoms: O_2  and  C_3
REMARK    3  A    between atoms: C_8  and  C_9
REMARK    4  A    between atoms: C_10  and  C_11
REMARK    5  A    between atoms: C_11  and  N_12
REMARK    6  A    between atoms: C_15  and  C_21
REMARK    7  A    between atoms: C_17  and  O_20
REMARK                            x       y       z     vdW  Elec       q    Type
REMARK                         _______ _______ _______ _____ _____    ______ ____
ROOT
ATOM      1  N   UNL     1       1.197  -5.904   1.094  0.00  0.00    +0.384 N 
ATOM      2  C   UNL     1       1.223  -5.152   2.354  0.00  0.00    -0.078 C 
ATOM      3  C   UNL     1       1.138  -6.122   3.534  0.00  0.00    -0.008 C 
ATOM      4  C   UNL     1       2.330  -7.082   3.486  0.00  0.00    +0.044 C 
ATOM      5  C   UNL     1       2.336  -7.807   2.137  0.00  0.00    +0.105 C 
ATOM      6  C   UNL     1       2.377  -6.774   1.009  0.00  0.00    -0.046 C 
ATOM      7  H   UNL     1       0.361  -6.468   1.058  0.00  0.00    -0.081 HD
ENDROOT
BRANCH   4   8
ATOM      8  C   UNL     1       2.212  -8.089   4.601  0.00  0.00    -0.038 A 
ATOM      9  C   UNL     1       1.116  -8.929   4.658  0.00  0.00    +0.008 A 
ATOM     10  C   UNL     1       1.004  -9.855   5.678  0.00  0.00    +0.050 A 
ATOM     11  C   UNL     1       1.990  -9.942   6.647  0.00  0.00    +0.166 A 
ATOM     12  C   UNL     1       3.095  -9.095   6.590  0.00  0.00    +0.166 A 
ATOM     13  C   UNL     1       3.203  -8.174   5.561  0.00  0.00    +0.053 A 
ATOM     14  O   UNL     1       3.914  -9.375   7.645  0.00  0.00    -0.453 OA
ATOM     15  C   UNL     1       3.103 -10.118   8.575  0.00  0.00    +0.466 C 
ATOM     16  O   UNL     1       2.118 -10.752   7.738  0.00  0.00    -0.453 OA
ENDBRANCH   4   8
BRANCH   5  17
ATOM     17  O   UNL     1       3.486  -8.651   2.054  0.00  0.00    -0.393 OA
ATOM     18  H   UNL     1       3.554  -9.142   1.223  0.00  0.00    +0.210 HD
ENDBRANCH   5  17
BRANCH   1  19
ATOM     19  C   UNL     1       1.201  -4.965  -0.036  0.00  0.00    -0.051 C 
BRANCH  19  21
ATOM     20  C   UNL     1      -0.011  -2.830  -0.013  0.00  0.00    +0.005 C 
ATOM     21  C   UNL     1      -0.070  -4.155  -0.020  0.00  0.00    -0.045 C 
BRANCH  20  27
ATOM     22  C   UNL     1      -1.200  -0.637   0.010  0.00  0.00    +0.127 A 
ATOM     23  C   UNL     1      -2.373   0.099   0.019  0.00  0.00    +0.046 A 
ATOM     24  C   UNL     1      -3.596  -0.546   0.028  0.00  0.00    +0.004 A 
ATOM     25  C   UNL     1      -3.656  -1.929   0.026  0.00  0.00    +0.001 A 
ATOM     26  C   UNL     1      -2.497  -2.676   0.016  0.00  0.00    +0.011 A 
ATOM     27  C   UNL     1      -1.257  -2.036   0.003  0.00  0.00    +0.016 A 
BRANCH  22  29
ATOM     28  C   UNL     1      -0.017   1.425   0.010  0.00  0.00    +0.277 C 
ATOM     29  O   UNL     1       0.002  -0.004   0.002  0.00  0.00    -0.495 OA
ENDBRANCH  22  29
ENDBRANCH  20  27
ENDBRANCH  19  21
ENDBRANCH   1  19
TORSDOF 6
