REMARK  Name = ZINC01189336
REMARK  10 active torsions:
REMARK  status: ('A' for Active; 'I' for Inactive)
REMARK    1  A    between atoms: C_1  and  C_2
REMARK    2  A    between atoms: C_5  and  C_8
REMARK    3  A    between atoms: C_8  and  O_9
REMARK    4  A    between atoms: O_9  and  C_10
REMARK    5  A    between atoms: C_10  and  C_12
REMARK    6  A    between atoms: C_13  and  C_30
REMARK    7  A    between atoms: C_18  and  C_20
REMARK    8  A    between atoms: C_22  and  O_28
REMARK    9  A    between atoms: C_23  and  O_27
REMARK   10  A    between atoms: O_28  and  C_29
REMARK                            x       y       z     vdW  Elec       q    Type
REMARK                         _______ _______ _______ _____ _____    ______ ____
ROOT
ATOM      1  C   UNL     1       1.683   6.046   3.103  0.00  0.00    +0.078 C 
ATOM      2  C   UNL     1       1.786   7.380   3.290  0.00  0.00    +0.021 C 
ATOM      3  N   UNL     1       1.702   7.925   4.540  0.00  0.00    -0.273 N 
ATOM      4  C   UNL     1       1.515   7.205   5.653  0.00  0.00    +0.304 C 
ATOM      5  O   UNL     1       1.452   7.780   6.722  0.00  0.00    -0.252 OA
ATOM      6  N   UNL     1       1.394   5.862   5.627  0.00  0.00    -0.288 N 
ATOM      7  C   UNL     1       1.465   5.178   4.325  0.00  0.00    +0.144 C 
ATOM      8  C   UNL     1       1.998   8.281   2.101  0.00  0.00    +0.061 C 
ATOM      9  H   UNL     1       1.782   8.888   4.625  0.00  0.00    +0.156 HD
ATOM     10  H   UNL     1       1.259   5.360   6.445  0.00  0.00    +0.151 HD
ENDROOT
BRANCH   7  11
ATOM     11  C   UNL     1       0.182   4.412   4.127  0.00  0.00    -0.018 A 
ATOM     12  C   UNL     1       0.224   3.063   3.822  0.00  0.00    +0.055 A 
ATOM     13  C   UNL     1      -0.954   2.356   3.646  0.00  0.00    +0.163 A 
ATOM     14  C   UNL     1      -2.178   3.008   3.764  0.00  0.00    +0.173 A 
ATOM     15  C   UNL     1      -2.213   4.360   4.064  0.00  0.00    +0.063 A 
ATOM     16  C   UNL     1      -1.033   5.059   4.245  0.00  0.00    +0.025 A 
ATOM     17 BR   UNL     1      -3.873   5.250   4.227  0.00  0.00    -0.046 Br
BRANCH  14  18
ATOM     18  O   UNL     1      -3.337   2.319   3.587  0.00  0.00    -0.503 OA
ATOM     19  H   UNL     1      -3.654   2.311   2.673  0.00  0.00    +0.292 HD
ENDBRANCH  14  18
BRANCH  13  20
ATOM     20  O   UNL     1      -0.914   1.029   3.352  0.00  0.00    -0.491 OA
ATOM     21  C   UNL     1       0.373   0.410   3.316  0.00  0.00    +0.277 C 
ENDBRANCH  13  20
ENDBRANCH   7  11
BRANCH   1  22
ATOM     22  C   UNL     1       1.771   5.481   1.809  0.00  0.00    +0.339 C 
ATOM     23  O   UNL     1       2.800   4.939   1.451  0.00  0.00    -0.245 OA
BRANCH  22  24
ATOM     24  O   UNL     1       0.714   5.542   0.973  0.00  0.00    -0.457 OA
BRANCH  24  25
ATOM     25  C   UNL     1       0.829   4.847  -0.270  0.00  0.00    +0.268 C 
BRANCH  25  30
ATOM     26  C   UNL     1      -3.852   5.880  -3.498  0.00  0.00    +0.044 C 
ATOM     27  C   UNL     1      -2.631   5.611  -2.656  0.00  0.00    -0.050 A 
ATOM     28  C   UNL     1      -1.569   6.495  -2.676  0.00  0.00    +0.004 A 
ATOM     29  C   UNL     1      -0.449   6.247  -1.904  0.00  0.00    +0.007 A 
ATOM     30  C   UNL     1      -0.392   5.117  -1.111  0.00  0.00    -0.010 A 
ATOM     31  C   UNL     1      -1.455   4.233  -1.091  0.00  0.00    +0.007 A 
ATOM     32  C   UNL     1      -2.574   4.480  -1.863  0.00  0.00    +0.004 A 
ENDBRANCH  25  30
ENDBRANCH  24  25
ENDBRANCH  22  24
ENDBRANCH   1  22
TORSDOF 7
