REMARK  Name = ZINC36561468
REMARK  20 active torsions:
REMARK  status: ('A' for Active; 'I' for Inactive)
REMARK    1  A    between atoms: C_1  and  C_2
REMARK    2  A    between atoms: C_2  and  C_3
REMARK    3  A    between atoms: C_3  and  N_4
REMARK    4  A    between atoms: N_4  and  C_5
REMARK    5  A    between atoms: C_5  and  C_7
REMARK    6  A    between atoms: C_5  and  C_16
REMARK    7  A    between atoms: C_8  and  O_15
REMARK    8  A    between atoms: C_10  and  O_14
REMARK    9  A    between atoms: C_12  and  O_13
REMARK   10  A    between atoms: N_18  and  C_19
REMARK   11  A    between atoms: C_19  and  C_20
REMARK   12  A    between atoms: C_19  and  C_21
REMARK   13  A    between atoms: C_19  and  C_22
REMARK   14  A    between atoms: C_22  and  C_23
REMARK   15  A    between atoms: C_23  and  C_24
REMARK   16  A    between atoms: C_23  and  C_25
REMARK   17  A    between atoms: C_23  and  C_26
REMARK   18  A    between atoms: C_27  and  C_29
REMARK   19  A    between atoms: C_29  and  C_30
REMARK   20  A    between atoms: C_35  and  C_36
REMARK                            x       y       z     vdW  Elec       q    Type
REMARK                         _______ _______ _______ _____ _____    ______ ____
ROOT
ATOM      1  C   UNL     1      -1.404  -2.553  -3.093  0.00  0.00    +0.199 C 
ENDROOT
BRANCH   1   2
ATOM      2  C   UNL     1      -1.855  -2.493  -4.529  0.00  0.00    +0.065 A 
ATOM      3  C   UNL     1      -1.790  -3.627  -5.325  0.00  0.00    +0.129 A 
ATOM      4  C   UNL     1      -2.205  -3.571  -6.647  0.00  0.00    +0.091 A 
ATOM      5  C   UNL     1      -2.687  -2.382  -7.173  0.00  0.00    +0.124 A 
ATOM      6  C   UNL     1      -2.753  -1.248  -6.377  0.00  0.00    +0.091 A 
ATOM      7  C   UNL     1      -2.342  -1.305  -5.054  0.00  0.00    +0.129 A 
BRANCH   7   8
ATOM      8  O   UNL     1      -2.411  -0.195  -4.273  0.00  0.00    -0.506 OA
ATOM      9  H   UNL     1      -1.614   0.351  -4.294  0.00  0.00    +0.292 HD
ENDBRANCH   7   8
BRANCH   5  10
ATOM     10  O   UNL     1      -3.093  -2.327  -8.469  0.00  0.00    -0.507 OA
ATOM     11  H   UNL     1      -4.029  -2.533  -8.597  0.00  0.00    +0.292 HD
ENDBRANCH   5  10
BRANCH   3  12
ATOM     12  O   UNL     1      -1.318  -4.792  -4.810  0.00  0.00    -0.506 OA
ATOM     13  H   UNL     1      -2.008  -5.385  -4.483  0.00  0.00    +0.292 HD
ENDBRANCH   3  12
ENDBRANCH   1   2
BRANCH   1  14
ATOM     14  C   UNL     1      -2.603  -2.722  -2.196  0.00  0.00    +0.239 C 
ATOM     15  O   UNL     1      -2.856  -1.883  -1.357  0.00  0.00    -0.273 OA
ATOM     16  N   UNL     1      -3.396  -3.804  -2.327  0.00  0.00    -0.308 N 
ATOM     17  H   UNL     1      -3.194  -4.475  -2.998  0.00  0.00    +0.149 HD
BRANCH  16  18
ATOM     18  C   UNL     1      -4.561  -3.968  -1.455  0.00  0.00    +0.030 C 
ATOM     19  C   UNL     1      -4.103  -4.442  -0.074  0.00  0.00    +0.031 C 
ATOM     20  C   UNL     1      -5.289  -2.629  -1.319  0.00  0.00    +0.031 C 
BRANCH  18  21
ATOM     21  C   UNL     1      -5.510  -5.005  -2.061  0.00  0.00    +0.031 C 
BRANCH  21  22
ATOM     22  C   UNL     1      -5.545  -4.836  -3.581  0.00  0.00    -0.036 C 
ATOM     23  C   UNL     1      -4.321  -5.515  -4.198  0.00  0.00    +0.010 C 
ATOM     24  C   UNL     1      -6.818  -5.479  -4.136  0.00  0.00    +0.010 C 
ATOM     25  C   UNL     1      -5.532  -3.347  -3.930  0.00  0.00    +0.010 C 
ENDBRANCH  21  22
ENDBRANCH  18  21
ENDBRANCH  16  18
ENDBRANCH   1  14
BRANCH   1  26
ATOM     26  N   UNL     1      -0.707  -1.312  -2.748  0.00  0.00    -0.285 N 
ATOM     27  C   UNL     1       0.509  -1.054  -3.270  0.00  0.00    +0.221 C 
ATOM     28  O   UNL     1       1.025  -1.850  -4.026  0.00  0.00    -0.275 OA
BRANCH  26  29
ATOM     29  C   UNL     1      -1.330  -0.351  -1.834  0.00  0.00    +0.108 C 
BRANCH  29  31
ATOM     30  C   UNL     1      -1.522   0.367   0.551  0.00  0.00    +0.005 C 
ATOM     31  C   UNL     1      -0.882  -0.645  -0.401  0.00  0.00    +0.016 C 
ENDBRANCH  29  31
ENDBRANCH  26  29
BRANCH  27  32
ATOM     32  C   UNL     1       1.226   0.223  -2.915  0.00  0.00    +0.131 C 
BRANCH  32  33
ATOM     33  C   UNL     1       2.554   0.267  -3.626  0.00  0.00    -0.036 A 
ATOM     34  C   UNL     1       3.697  -0.172  -2.984  0.00  0.00    +0.004 A 
ATOM     35  C   UNL     1       4.915  -0.131  -3.636  0.00  0.00    +0.000 A 
ATOM     36  C   UNL     1       4.990   0.348  -4.931  0.00  0.00    +0.000 A 
ATOM     37  C   UNL     1       3.848   0.786  -5.573  0.00  0.00    +0.003 A 
ATOM     38  C   UNL     1       2.629   0.742  -4.922  0.00  0.00    -0.047 A 
ATOM     39  C   UNL     1       1.382   1.214  -5.624  0.00  0.00    +0.044 C 
ENDBRANCH  32  33
ENDBRANCH  27  32
ENDBRANCH   1  26
TORSDOF 13
