REMARK  Name = ZINC06487850
REMARK  8 active torsions:
REMARK  status: ('A' for Active; 'I' for Inactive)
REMARK    1  A    between atoms: C_1  and  C_2
REMARK    2  A    between atoms: C_2  and  O_3
REMARK    3  A    between atoms: O_3  and  C_4
REMARK    4  A    between atoms: C_4  and  C_6
REMARK    5  A    between atoms: C_7  and  C_31
REMARK    6  A    between atoms: C_14  and  C_15
REMARK    7  A    between atoms: C_20  and  O_21
REMARK    8  A    between atoms: C_24  and  C_26
REMARK                            x       y       z     vdW  Elec       q    Type
REMARK                         _______ _______ _______ _____ _____    ______ ____
ROOT
ATOM      1  C   UNL     1      -0.154   5.229   3.199  0.00  0.00    +0.085 C 
ATOM      2  C   UNL     1      -0.998   5.826   4.093  0.00  0.00    +0.053 C 
ATOM      3  N   UNL     1      -1.339   7.100   3.952  0.00  0.00    -0.228 NA
ATOM      4  C   UNL     1      -0.923   7.882   2.988  0.00  0.00    +0.178 A 
ATOM      5  N   UNL     1      -0.070   7.482   1.985  0.00  0.00    -0.274 N 
ATOM      6  C   UNL     1       0.286   8.373   1.051  0.00  0.00    +0.268 A 
ATOM      7  O   UNL     1       1.039   8.065   0.145  0.00  0.00    -0.266 OA
ATOM      8  C   UNL     1      -0.259   9.734   1.152  0.00  0.00    +0.081 A 
ATOM      9  C   UNL     1      -0.056  10.808   0.345  0.00  0.00    +0.032 C 
ATOM     10  S   UNL     1      -1.260   9.595   2.625  0.00  0.00    -0.046 S 
ATOM     11  C   UNL     1       0.379   6.063   2.057  0.00  0.00    +0.168 C 
ATOM     12  C   UNL     1      -1.547   5.029   5.249  0.00  0.00    +0.066 C 
ENDROOT
BRANCH   9  13
ATOM     13  C   UNL     1       0.689  10.652  -0.910  0.00  0.00    +0.019 A 
ATOM     14  C   UNL     1       0.513   9.507  -1.697  0.00  0.00    +0.031 A 
ATOM     15  C   UNL     1       1.216   9.368  -2.874  0.00  0.00    +0.042 A 
ATOM     16  C   UNL     1       2.099  10.357  -3.282  0.00  0.00    +0.023 A 
ATOM     17  C   UNL     1       2.283  11.491  -2.515  0.00  0.00    +0.047 A 
ATOM     18  C   UNL     1       1.579  11.653  -1.332  0.00  0.00    +0.124 A 
ATOM     19 CL   UNL     1       0.998   7.949  -3.849  0.00  0.00    -0.084 Cl
BRANCH  18  20
ATOM     20  O   UNL     1       1.755  12.770  -0.582  0.00  0.00    -0.506 OA
ATOM     21  H   UNL     1       2.461  12.696   0.075  0.00  0.00    +0.292 HD
ENDBRANCH  18  20
ENDBRANCH   9  13
BRANCH  11  22
ATOM     22  C   UNL     1       1.884   6.052   2.137  0.00  0.00    +0.017 A 
ATOM     23  C   UNL     1       2.770   5.305   1.434  0.00  0.00    +0.013 A 
ATOM     24  C   UNL     1       4.122   5.467   1.675  0.00  0.00    +0.008 A 
ATOM     25  C   UNL     1       4.520   6.359   2.614  0.00  0.00    +0.045 A 
ATOM     26  S   UNL     1       2.961   7.012   3.188  0.00  0.00    -0.099 S 
ENDBRANCH  11  22
BRANCH   1  27
ATOM     27  C   UNL     1       0.213   3.880   3.341  0.00  0.00    +0.339 C 
ATOM     28  O   UNL     1      -0.135   3.255   4.327  0.00  0.00    -0.245 OA
BRANCH  27  29
ATOM     29  O   UNL     1       0.951   3.277   2.384  0.00  0.00    -0.462 OA
BRANCH  29  31
ATOM     30  C   UNL     1       2.120   1.397   1.414  0.00  0.00    +0.048 C 
ATOM     31  C   UNL     1       1.288   1.904   2.594  0.00  0.00    +0.229 C 
ENDBRANCH  29  31
ENDBRANCH  27  29
ENDBRANCH   1  27
TORSDOF 6
