REMARK  Name = ZINC02256708
REMARK  6 active torsions:
REMARK  status: ('A' for Active; 'I' for Inactive)
REMARK    1  A    between atoms: C_1  and  O_2
REMARK    2  A    between atoms: O_2  and  C_3
REMARK    3  A    between atoms: C_8  and  C_9
REMARK    4  A    between atoms: C_10  and  C_11
REMARK    5  A    between atoms: C_19  and  C_31
REMARK    6  A    between atoms: C_22  and  C_24
REMARK                            x       y       z     vdW  Elec       q    Type
REMARK                         _______ _______ _______ _____ _____    ______ ____
ROOT
ATOM      1  C   UNL     1       1.151  -4.967  -0.037  0.00  0.00    +0.243 C 
ATOM      2  O   UNL     1       2.232  -4.407  -0.044  0.00  0.00    -0.270 OA
ATOM      3  N   UNL     1       1.091  -6.313  -0.043  0.00  0.00    -0.250 N 
ATOM      4  C   UNL     1       2.267  -7.066  -0.059  0.00  0.00    +0.243 A 
ATOM      5  N   UNL     1       3.507  -6.564  -0.063  0.00  0.00    -0.176 NA
ATOM      6  C   UNL     1       4.379  -7.542  -0.081  0.00  0.00    +0.251 A 
ATOM      7  N   UNL     1       3.680  -8.718  -0.081  0.00  0.00    -0.220 N 
ATOM      8  N   UNL     1       2.331  -8.382  -0.067  0.00  0.00    -0.131 NA
ATOM      9  C   UNL     1       4.337 -10.025  -0.083  0.00  0.00    +0.147 C 
ATOM     10  C   UNL     1       5.686  -9.878  -0.796  0.00  0.00    +0.087 C 
ATOM     11  C   UNL     1       6.385  -8.616  -0.373  0.00  0.00    +0.055 C 
ATOM     12  N   UNL     1       5.739  -7.520  -0.077  0.00  0.00    -0.215 NA
ATOM     13  H   UNL     1       0.229  -6.760  -0.037  0.00  0.00    +0.158 HD
ENDROOT
BRANCH  11  14
ATOM     14  C   UNL     1       7.853  -8.616  -0.289  0.00  0.00    -0.003 A 
ATOM     15  C   UNL     1       8.575  -9.771  -0.605  0.00  0.00    +0.011 A 
ATOM     16  C   UNL     1       9.951  -9.764  -0.524  0.00  0.00    +0.020 A 
ATOM     17  C   UNL     1      10.619  -8.615  -0.131  0.00  0.00    +0.041 A 
ATOM     18  C   UNL     1       9.910  -7.466   0.183  0.00  0.00    +0.020 A 
ATOM     19  C   UNL     1       8.534  -7.458   0.101  0.00  0.00    +0.011 A 
ATOM     20 CL   UNL     1      12.352  -8.614  -0.032  0.00  0.00    -0.084 Cl
ENDBRANCH  11  14
BRANCH   9  21
ATOM     21  C   UNL     1       3.479 -11.025  -0.815  0.00  0.00    -0.023 A 
ATOM     22  C   UNL     1       3.161 -10.820  -2.144  0.00  0.00    +0.007 A 
ATOM     23  C   UNL     1       2.374 -11.736  -2.817  0.00  0.00    +0.020 A 
ATOM     24  C   UNL     1       1.906 -12.859  -2.159  0.00  0.00    +0.041 A 
ATOM     25  C   UNL     1       2.224 -13.064  -0.828  0.00  0.00    +0.020 A 
ATOM     26  C   UNL     1       3.016 -12.150  -0.159  0.00  0.00    +0.007 A 
ATOM     27 CL   UNL     1       0.917 -14.011  -3.002  0.00  0.00    -0.084 Cl
ENDBRANCH   9  21
BRANCH   1  29
ATOM     28  C   UNL     1      -0.019  -2.831  -0.013  0.00  0.00    +0.016 C 
ATOM     29  C   UNL     1      -0.080  -4.179  -0.020  0.00  0.00    +0.068 C 
BRANCH  28  35
ATOM     30  C   UNL     1      -1.198  -0.636   0.010  0.00  0.00    +0.127 A 
ATOM     31  C   UNL     1      -2.373   0.099   0.019  0.00  0.00    +0.046 A 
ATOM     32  C   UNL     1      -3.595  -0.546   0.028  0.00  0.00    +0.004 A 
ATOM     33  C   UNL     1      -3.658  -1.930   0.027  0.00  0.00    +0.001 A 
ATOM     34  C   UNL     1      -2.501  -2.679   0.018  0.00  0.00    +0.011 A 
ATOM     35  C   UNL     1      -1.257  -2.039   0.003  0.00  0.00    +0.017 A 
BRANCH  30  37
ATOM     36  C   UNL     1      -0.017   1.425   0.010  0.00  0.00    +0.277 C 
ATOM     37  O   UNL     1       0.002  -0.004   0.002  0.00  0.00    -0.495 OA
ENDBRANCH  30  37
ENDBRANCH  28  35
ENDBRANCH   1  29
TORSDOF 5
