REMARK  Name = ZINC01078712
REMARK  4 active torsions:
REMARK  status: ('A' for Active; 'I' for Inactive)
REMARK    1  A    between atoms: C_8  and  N_17
REMARK    2  A    between atoms: C_9  and  N_11
REMARK    3  A    between atoms: N_17  and  S_18
REMARK    4  A    between atoms: S_18  and  C_21
REMARK                            x       y       z     vdW  Elec       q    Type
REMARK                         _______ _______ _______ _____ _____    ______ ____
ROOT
ATOM      1  C   UNL     1       6.491  -0.622  -3.077  0.00  0.00    +0.002 A 
ATOM      2  C   UNL     1       6.596  -1.242  -4.319  0.00  0.00    +0.002 A 
ATOM      3  C   UNL     1       5.587  -2.021  -4.799  0.00  0.00    +0.030 A 
ATOM      4  C   UNL     1       4.425  -2.207  -4.034  0.00  0.00    +0.091 A 
ATOM      5  C   UNL     1       4.319  -1.577  -2.770  0.00  0.00    +0.091 A 
ATOM      6  C   UNL     1       5.378  -0.780  -2.308  0.00  0.00    +0.030 A 
ATOM      7  N   UNL     1       3.210  -1.742  -2.034  0.00  0.00    -0.226 NA
ATOM      8  C   UNL     1       2.231  -2.498  -2.486  0.00  0.00    +0.179 A 
ATOM      9  C   UNL     1       2.337  -3.128  -3.750  0.00  0.00    +0.164 A 
ATOM     10  N   UNL     1       3.418  -2.969  -4.485  0.00  0.00    -0.227 NA
ENDROOT
BRANCH   9  11
ATOM     11  N   UNL     1       1.296  -3.917  -4.216  0.00  0.00    -0.312 N 
ATOM     12  C   UNL     1       1.733  -5.306  -4.407  0.00  0.00    +0.106 C 
ATOM     13  C   UNL     1       0.530  -6.174  -4.780  0.00  0.00    +0.019 C 
ATOM     14  C   UNL     1      -0.101  -5.637  -6.068  0.00  0.00    +0.003 C 
ATOM     15  C   UNL     1      -0.503  -4.174  -5.858  0.00  0.00    +0.019 C 
ATOM     16  C   UNL     1       0.731  -3.364  -5.453  0.00  0.00    +0.106 C 
ENDBRANCH   9  11
BRANCH   8  17
ATOM     17  N   UNL     1       1.087  -2.674  -1.723  0.00  0.00    -0.197 N 
ATOM     18  H   UNL     1       0.406  -3.304  -2.007  0.00  0.00    +0.175 HD
BRANCH  17  19
ATOM     19  S   UNL     1       0.882  -1.808  -0.326  0.00  0.00    +0.074 S 
ATOM     20  O   UNL     1       2.089  -1.938   0.412  0.00  0.00    -0.150 OA
ATOM     21  O   UNL     1      -0.380  -2.186   0.205  0.00  0.00    -0.150 OA
BRANCH  19  22
ATOM     22  C   UNL     1       0.750  -0.110  -0.780  0.00  0.00    +0.109 A 
ATOM     23  C   UNL     1      -0.489   0.436  -1.058  0.00  0.00    +0.030 A 
ATOM     24  C   UNL     1      -0.594   1.767  -1.414  0.00  0.00    +0.022 A 
ATOM     25  C   UNL     1       0.542   2.553  -1.493  0.00  0.00    +0.041 A 
ATOM     26  C   UNL     1       1.782   2.006  -1.214  0.00  0.00    +0.022 A 
ATOM     27  C   UNL     1       1.885   0.675  -0.858  0.00  0.00    +0.030 A 
ATOM     28 CL   UNL     1       0.412   4.226  -1.940  0.00  0.00    -0.084 Cl
ENDBRANCH  19  22
ENDBRANCH  17  19
ENDBRANCH   8  17
TORSDOF 4
