REMARK  Name = ZINC20356638
REMARK  6 active torsions:
REMARK  status: ('A' for Active; 'I' for Inactive)
REMARK    1  A    between atoms: C_1  and  C_2
REMARK    2  A    between atoms: C_2  and  C_3
REMARK    3  A    between atoms: C_6  and  N_9
REMARK    4  A    between atoms: C_10  and  C_33
REMARK    5  A    between atoms: C_12  and  C_15
REMARK    6  A    between atoms: C_13  and  C_14
REMARK                            x       y       z     vdW  Elec       q    Type
REMARK                         _______ _______ _______ _____ _____    ______ ____
ROOT
ATOM      1  C   UNL     1       4.952  -1.468  -7.475  0.00  0.00    +0.026 C 
ATOM      2  C   UNL     1       4.913  -2.107  -8.698  0.00  0.00    +0.081 C 
ATOM      3  C   UNL     1       3.819  -3.052  -9.054  0.00  0.00    +0.153 C 
ATOM      4  N   UNL     1       2.588  -2.918  -8.633  0.00  0.00    -0.283 NA
ATOM      5  N   UNL     1       4.240  -4.106  -9.891  0.00  0.00    -0.150 N 
ATOM      6  C   UNL     1       5.367  -3.900 -10.654  0.00  0.00    +0.182 C 
ATOM      7  N   UNL     1       6.168  -2.864 -10.632  0.00  0.00    -0.152 NA
ATOM      8  C   UNL     1       5.954  -1.883  -9.729  0.00  0.00    +0.273 C 
ATOM      9  O   UNL     1       6.599  -0.847  -9.757  0.00  0.00    -0.268 OA
ATOM     10  S   UNL     1       5.440  -5.383 -11.623  0.00  0.00    -0.018 S 
ATOM     11  C   UNL     1       4.041  -6.215 -10.885  0.00  0.00    +0.182 C 
ATOM     12  N   UNL     1       3.615  -5.327 -10.022  0.00  0.00    -0.149 NA
ATOM     13  N   UNL     1       3.536  -7.476 -11.157  0.00  0.00    -0.304 N 
ATOM     14  C   UNL     1       2.358  -7.991 -10.441  0.00  0.00    +0.135 C 
ATOM     15  C   UNL     1       1.352  -8.509 -11.476  0.00  0.00    +0.179 C 
ATOM     16  O   UNL     1       2.010  -9.424 -12.355  0.00  0.00    -0.377 OA
ATOM     17  C   UNL     1       3.068  -8.842 -13.120  0.00  0.00    +0.179 C 
ATOM     18  C   UNL     1       4.158  -8.338 -12.174  0.00  0.00    +0.135 C 
ATOM     19  H   UNL     1       1.921  -3.582  -8.867  0.00  0.00    +0.188 HD
ENDROOT
BRANCH   1  23
ATOM     20  N   UNL     1       2.861  -1.878  -4.585  0.00  0.00    -0.317 N 
ATOM     21  C   UNL     1       2.627  -3.077  -5.199  0.00  0.00    +0.022 A 
ATOM     22  C   UNL     1       3.336  -3.136  -6.339  0.00  0.00    +0.031 A 
ATOM     23  C   UNL     1       4.069  -1.866  -6.438  0.00  0.00    -0.003 A 
ATOM     24  C   UNL     1       3.718  -1.136  -5.315  0.00  0.00    +0.028 A 
ATOM     25  C   UNL     1       4.210   0.245  -4.967  0.00  0.00    +0.064 C 
ATOM     26  C   UNL     1       1.720  -4.162  -4.679  0.00  0.00    +0.064 C 
BRANCH  20  30
ATOM     27  C   UNL     1       1.154  -0.681  -0.976  0.00  0.00    -0.047 A 
ATOM     28  C   UNL     1       0.353  -0.885  -2.084  0.00  0.00    +0.005 A 
ATOM     29  C   UNL     1       0.916  -1.282  -3.281  0.00  0.00    +0.026 A 
ATOM     30  C   UNL     1       2.288  -1.475  -3.372  0.00  0.00    +0.047 A 
ATOM     31  C   UNL     1       3.090  -1.269  -2.257  0.00  0.00    +0.026 A 
ATOM     32  C   UNL     1       2.522  -0.867  -1.064  0.00  0.00    +0.005 A 
BRANCH  27  34
ATOM     33  C   UNL     1       0.492   1.280   0.390  0.00  0.00    +0.009 C 
ATOM     34  C   UNL     1       0.537  -0.248   0.329  0.00  0.00    +0.032 C 
ENDBRANCH  27  34
ENDBRANCH  20  30
ENDBRANCH   1  23
TORSDOF 3
