REMARK  Name = ZINC13829546
REMARK  5 active torsions:
REMARK  status: ('A' for Active; 'I' for Inactive)
REMARK    1  A    between atoms: C_7  and  N_20
REMARK    2  A    between atoms: N_11  and  C_12
REMARK    3  A    between atoms: C_17  and  O_18
REMARK    4  A    between atoms: N_20  and  C_21
REMARK    5  A    between atoms: C_21  and  C_22
REMARK                            x       y       z     vdW  Elec       q    Type
REMARK                         _______ _______ _______ _____ _____    ______ ____
ROOT
ATOM      1  C   UNL     1      -0.021   1.354  -0.061  0.00  0.00    +0.001 A 
ATOM      2  C   UNL     1       1.149   2.070  -0.296  0.00  0.00    +0.002 A 
ATOM      3  C   UNL     1       2.358   1.442  -0.345  0.00  0.00    +0.028 A 
ATOM      4  C   UNL     1       2.426   0.055  -0.155  0.00  0.00    +0.078 A 
ATOM      5  C   UNL     1       1.234  -0.671   0.085  0.00  0.00    +0.040 A 
ATOM      6  C   UNL     1       0.009   0.004   0.128  0.00  0.00    +0.013 A 
ATOM      7  C   UNL     1       1.327  -2.072   0.274  0.00  0.00    +0.132 A 
ATOM      8  N   UNL     1       2.525  -2.636   0.218  0.00  0.00    -0.199 NA
ATOM      9  C   UNL     1       3.620  -1.916  -0.010  0.00  0.00    +0.222 A 
ATOM     10  N   UNL     1       3.591  -0.609  -0.193  0.00  0.00    -0.214 NA
ATOM     11  N   UNL     1       4.842  -2.564  -0.056  0.00  0.00    -0.281 N 
ATOM     12  H   UNL     1       4.879  -3.532  -0.011  0.00  0.00    +0.155 HD
ENDROOT
BRANCH  11  13
ATOM     13  C   UNL     1       6.024  -1.822  -0.169  0.00  0.00    +0.077 A 
ATOM     14  C   UNL     1       6.122  -0.573   0.427  0.00  0.00    +0.047 A 
ATOM     15  C   UNL     1       7.290   0.157   0.313  0.00  0.00    +0.043 A 
ATOM     16  C   UNL     1       8.364  -0.354  -0.394  0.00  0.00    +0.023 A 
ATOM     17  C   UNL     1       8.273  -1.599  -0.990  0.00  0.00    +0.049 A 
ATOM     18  C   UNL     1       7.108  -2.339  -0.876  0.00  0.00    +0.138 A 
ATOM     19 CL   UNL     1       7.411   1.720   1.060  0.00  0.00    -0.083 Cl
BRANCH  18  20
ATOM     20  O   UNL     1       7.021  -3.566  -1.457  0.00  0.00    -0.505 OA
ATOM     21  H   UNL     1       6.690  -3.548  -2.365  0.00  0.00    +0.292 HD
ENDBRANCH  18  20
ENDBRANCH  11  13
BRANCH   7  22
ATOM     22  N   UNL     1       0.200  -2.830   0.511  0.00  0.00    -0.326 N 
ATOM     23  H   UNL     1      -0.670  -2.405   0.549  0.00  0.00    +0.148 HD
BRANCH  22  24
ATOM     24  C   UNL     1       0.318  -4.277   0.704  0.00  0.00    +0.134 C 
BRANCH  24  25
ATOM     25  C   UNL     1      -1.069  -4.874   0.948  0.00  0.00    +0.135 C 
ATOM     26  C   UNL     1      -0.943  -6.378   1.272  0.00  0.00    +0.035 C 
ATOM     27  C   UNL     1      -2.161  -6.981   0.519  0.00  0.00    +0.031 C 
ATOM     28  C   UNL     1      -2.227  -6.055  -0.722  0.00  0.00    +0.160 C 
ATOM     29  O   UNL     1      -1.867  -4.750  -0.236  0.00  0.00    -0.375 OA
ENDBRANCH  24  25
ENDBRANCH  22  24
ENDBRANCH   7  22
TORSDOF 5
