REMARK  Name = ZINC18270454
REMARK  7 active torsions:
REMARK  status: ('A' for Active; 'I' for Inactive)
REMARK    1  A    between atoms: C_7  and  C_24
REMARK    2  A    between atoms: C_12  and  C_13
REMARK    3  A    between atoms: C_24  and  O_26
REMARK    4  A    between atoms: O_26  and  C_27
REMARK    5  A    between atoms: C_27  and  C_28
REMARK    6  A    between atoms: N_30  and  C_31
REMARK    7  A    between atoms: C_34  and  O_37
REMARK                            x       y       z     vdW  Elec       q    Type
REMARK                         _______ _______ _______ _____ _____    ______ ____
ROOT
ATOM      1  C   UNL     1       8.482  10.251   2.400  0.00  0.00    +0.001 A 
ATOM      2  C   UNL     1       7.121  10.517   2.532  0.00  0.00    +0.002 A 
ATOM      3  C   UNL     1       6.189   9.562   2.263  0.00  0.00    +0.028 A 
ATOM      4  C   UNL     1       6.601   8.282   1.846  0.00  0.00    +0.072 A 
ATOM      5  C   UNL     1       7.988   8.019   1.714  0.00  0.00    +0.015 A 
ATOM      6  C   UNL     1       8.918   9.023   1.998  0.00  0.00    +0.011 A 
ATOM      7  C   UNL     1       8.406   6.683   1.290  0.00  0.00    +0.073 A 
ATOM      8  C   UNL     1       7.411   5.752   1.026  0.00  0.00    -0.007 A 
ATOM      9  C   UNL     1       6.061   6.107   1.182  0.00  0.00    +0.072 A 
ATOM     10  N   UNL     1       5.713   7.328   1.578  0.00  0.00    -0.247 NA
ATOM     11  C   UNL     1       5.193   4.960   0.852  0.00  0.00    -0.021 C 
ATOM     12  C   UNL     1       3.849   4.951   0.896  0.00  0.00    +0.013 C 
ATOM     13  C   UNL     1       6.072   3.802   0.450  0.00  0.00    +0.042 C 
ATOM     14  C   UNL     1       7.512   4.319   0.564  0.00  0.00    +0.043 C 
ENDROOT
BRANCH  12  15
ATOM     15  C   UNL     1       3.114   3.693   0.683  0.00  0.00    -0.021 A 
ATOM     16  C   UNL     1       1.736   3.639   0.911  0.00  0.00    +0.012 A 
ATOM     17  C   UNL     1       1.050   2.460   0.711  0.00  0.00    +0.050 A 
ATOM     18  C   UNL     1       1.723   1.324   0.284  0.00  0.00    +0.166 A 
ATOM     19  C   UNL     1       3.099   1.370   0.054  0.00  0.00    +0.167 A 
ATOM     20  C   UNL     1       3.793   2.548   0.253  0.00  0.00    +0.057 A 
ATOM     21  O   UNL     1       3.514   0.136  -0.355  0.00  0.00    -0.453 OA
ATOM     22  C   UNL     1       2.319  -0.555  -0.767  0.00  0.00    +0.466 C 
ATOM     23  O   UNL     1       1.281   0.060   0.018  0.00  0.00    -0.453 OA
ENDBRANCH  12  15
BRANCH   7  24
ATOM     24  C   UNL     1       9.835   6.342   1.131  0.00  0.00    +0.341 C 
ATOM     25  O   UNL     1      10.388   6.522   0.064  0.00  0.00    -0.245 OA
BRANCH  24  26
ATOM     26  O   UNL     1      10.526   5.830   2.168  0.00  0.00    -0.452 OA
BRANCH  26  27
ATOM     27  C   UNL     1      11.925   5.519   1.940  0.00  0.00    +0.328 C 
BRANCH  27  28
ATOM     28  C   UNL     1      12.529   4.962   3.203  0.00  0.00    +0.255 C 
ATOM     29  O   UNL     1      11.846   4.839   4.198  0.00  0.00    -0.272 OA
ATOM     30  N   UNL     1      13.827   4.600   3.227  0.00  0.00    -0.283 N 
ATOM     31  H   UNL     1      14.393   4.771   2.458  0.00  0.00    +0.155 HD
BRANCH  30  32
ATOM     32  C   UNL     1      14.359   3.976   4.363  0.00  0.00    +0.034 A 
ATOM     33  C   UNL     1      15.703   4.133   4.677  0.00  0.00    +0.027 A 
ATOM     34  C   UNL     1      16.225   3.521   5.799  0.00  0.00    +0.047 A 
ATOM     35  C   UNL     1      15.411   2.741   6.607  0.00  0.00    +0.117 A 
ATOM     36  C   UNL     1      14.070   2.580   6.292  0.00  0.00    +0.047 A 
ATOM     37  C   UNL     1      13.545   3.195   5.173  0.00  0.00    +0.027 A 
BRANCH  35  38
ATOM     38  O   UNL     1      15.928   2.135   7.710  0.00  0.00    -0.507 OA
ATOM     39  H   UNL     1      16.277   1.249   7.544  0.00  0.00    +0.292 HD
ENDBRANCH  35  38
ENDBRANCH  30  32
ENDBRANCH  27  28
ENDBRANCH  26  27
ENDBRANCH  24  26
ENDBRANCH   7  24
TORSDOF 7
