REMARK  Name = ZINC43548989
REMARK  13 active torsions:
REMARK  status: ('A' for Active; 'I' for Inactive)
REMARK    1  A    between atoms: C_1  and  C_2
REMARK    2  A    between atoms: C_7  and  C_9
REMARK    3  A    between atoms: C_9  and  O_10
REMARK    4  A    between atoms: O_10  and  C_11
REMARK    5  A    between atoms: C_19  and  C_39
REMARK    6  A    between atoms: C_22  and  O_38
REMARK    7  A    between atoms: C_24  and  C_28
REMARK    8  A    between atoms: C_28  and  C_30
REMARK    9  A    between atoms: C_28  and  C_31
REMARK   10  A    between atoms: N_33  and  C_34
REMARK   11  A    between atoms: C_34  and  C_35
REMARK   12  A    between atoms: C_35  and  O_36
REMARK   13  A    between atoms: O_36  and  C_37
REMARK                            x       y       z     vdW  Elec       q    Type
REMARK                         _______ _______ _______ _____ _____    ______ ____
ROOT
ATOM      1  C   UNL     1       1.204   2.600   1.338  0.00  0.00    +0.014 C 
ATOM      2  C   UNL     1       0.779   1.150   1.578  0.00  0.00    +0.042 C 
ATOM      3  C   UNL     1      -0.468   1.124   2.446  0.00  0.00    +0.055 A 
ATOM      4  C   UNL     1      -0.601   0.204   3.438  0.00  0.00    +0.014 A 
ATOM      5  S   UNL     1      -2.187   0.599   4.119  0.00  0.00    -0.073 S 
ATOM      6  C   UNL     1      -2.546   1.892   3.098  0.00  0.00    +0.116 A 
ATOM      7  N   UNL     1      -1.494   1.959   2.322  0.00  0.00    -0.245 NA
ATOM      8  C   UNL     1       0.369  -0.857   3.826  0.00  0.00    +0.051 C 
ATOM      9  C   UNL     1       1.423  -0.991   2.725  0.00  0.00    -0.022 C 
ATOM     10  C   UNL     1       1.909   0.397   2.290  0.00  0.00    +0.033 C 
ATOM     11  C   UNL     1       3.053   0.199   1.282  0.00  0.00    +0.123 C 
ATOM     12  C   UNL     1       2.507  -0.539   0.057  0.00  0.00    +0.029 C 
ATOM     13  C   UNL     1       1.958  -1.904   0.471  0.00  0.00    +0.007 C 
ATOM     14  C   UNL     1       0.849  -1.724   1.514  0.00  0.00    +0.008 C 
ATOM     15  C   UNL     1       2.621  -1.773   3.267  0.00  0.00    +0.012 C 
ENDROOT
BRANCH  12  16
ATOM     16  C   UNL     1       3.632  -0.734  -0.961  0.00  0.00    +0.077 C 
ATOM     17  C   UNL     1       3.133  -1.615  -2.108  0.00  0.00    +0.017 C 
BRANCH  16  18
ATOM     18  C   UNL     1       4.807  -1.398  -0.291  0.00  0.00    +0.216 C 
ATOM     19  O   UNL     1       4.630  -2.121   0.666  0.00  0.00    -0.276 OA
ATOM     20  N   UNL     1       6.054  -1.190  -0.756  0.00  0.00    -0.313 N 
ATOM     21  H   UNL     1       6.196  -0.611  -1.522  0.00  0.00    +0.149 HD
BRANCH  20  22
ATOM     22  C   UNL     1       7.197  -1.835  -0.105  0.00  0.00    +0.132 C 
BRANCH  22  23
ATOM     23  C   UNL     1       8.487  -1.435  -0.823  0.00  0.00    +0.178 C 
BRANCH  23  24
ATOM     24  O   UNL     1       8.705  -0.032  -0.664  0.00  0.00    -0.381 OA
ATOM     25  C   UNL     1       9.890   0.449  -1.301  0.00  0.00    +0.194 C 
ENDBRANCH  23  24
ENDBRANCH  22  23
ENDBRANCH  20  22
ENDBRANCH  16  18
ENDBRANCH  12  16
BRANCH  11  26
ATOM     26  O   UNL     1       3.571   1.471   0.888  0.00  0.00    -0.391 OA
ATOM     27  H   UNL     1       4.356   1.419   0.325  0.00  0.00    +0.210 HD
ENDBRANCH  11  26
BRANCH   6  28
ATOM     28  C   UNL     1      -3.779   2.758   3.081  0.00  0.00    +0.291 C 
BRANCH  28  29
ATOM     29  O   UNL     1      -4.753   2.184   2.208  0.00  0.00    -0.485 OA
BRANCH  29  30
ATOM     30  C   UNL     1      -5.932   2.846   2.078  0.00  0.00    +0.122 A 
ATOM     31  C   UNL     1      -6.145   4.028   2.773  0.00  0.00    +0.046 A 
ATOM     32  C   UNL     1      -7.345   4.701   2.640  0.00  0.00    +0.005 A 
ATOM     33  C   UNL     1      -8.333   4.197   1.815  0.00  0.00    +0.020 A 
ATOM     34  C   UNL     1      -8.124   3.018   1.121  0.00  0.00    +0.044 A 
ATOM     35  C   UNL     1      -6.923   2.345   1.247  0.00  0.00    +0.065 A 
ATOM     36 CL   UNL     1      -9.368   2.388   0.087  0.00  0.00    -0.083 Cl
ENDBRANCH  29  30
ENDBRANCH  28  29
ENDBRANCH   6  28
TORSDOF 9
