REMARK  Name = ZINC35500882
REMARK  8 active torsions:
REMARK  status: ('A' for Active; 'I' for Inactive)
REMARK    1  A    between atoms: C_1  and  C_2
REMARK    2  A    between atoms: C_2  and  C_3
REMARK    3  A    between atoms: C_3  and  C_4
REMARK    4  A    between atoms: C_4  and  C_6
REMARK    5  A    between atoms: C_4  and  C_7
REMARK    6  A    between atoms: C_7  and  C_9
REMARK    7  A    between atoms: C_7  and  N_21
REMARK    8  A    between atoms: N_21  and  C_22
REMARK                            x       y       z     vdW  Elec       q    Type
REMARK                         _______ _______ _______ _____ _____    ______ ____
ROOT
ATOM      1  C   UNL     1       1.625  -4.032   2.271  0.00  0.00    -0.044 A 
ATOM      2  C   UNL     1       2.798  -4.564   1.764  0.00  0.00    +0.052 A 
ATOM      3  C   UNL     1       2.908  -5.931   1.578  0.00  0.00    +0.162 A 
ATOM      4  C   UNL     1       1.846  -6.765   1.900  0.00  0.00    +0.163 A 
ATOM      5  C   UNL     1       0.674  -6.231   2.407  0.00  0.00    +0.065 A 
ATOM      6  C   UNL     1       0.569  -4.863   2.597  0.00  0.00    +0.023 A 
ATOM      7 BR   UNL     1      -1.027  -4.128   3.298  0.00  0.00    -0.050 Br
ATOM      8  O   UNL     1       1.965  -8.111   1.714  0.00  0.00    -0.488 OA
ATOM      9  C   UNL     1       2.036  -8.551   0.357  0.00  0.00    +0.232 C 
ATOM     10  C   UNL     1       3.462  -8.466  -0.165  0.00  0.00    +0.082 C 
ATOM     11  C   UNL     1       3.969  -7.034  -0.229  0.00  0.00    +0.232 C 
ATOM     12  O   UNL     1       4.059  -6.468   1.080  0.00  0.00    -0.488 OA
ENDROOT
BRANCH   1  13
ATOM     13  C   UNL     1       1.501  -2.544   2.475  0.00  0.00    -0.037 C 
BRANCH  13  14
ATOM     14  N   UNL     1       2.841  -1.944   2.525  0.00  0.00    +0.382 N 
ATOM     15  C   UNL     1       3.551  -2.430   3.715  0.00  0.00    -0.100 C 
ATOM     16  H   UNL     1       3.356  -2.202   1.697  0.00  0.00    -0.085 HD
ATOM     17  H   UNL     1       2.758  -0.939   2.570  0.00  0.00    -0.085 HD
ENDBRANCH  13  14
BRANCH  13  18
ATOM     18  C   UNL     1       0.712  -1.935   1.314  0.00  0.00    -0.024 C 
ATOM     19  C   UNL     1       1.497  -2.115   0.013  0.00  0.00    +0.006 C 
BRANCH  18  20
ATOM     20  C   UNL     1       0.493  -0.443   1.575  0.00  0.00    +0.002 C 
BRANCH  20  22
ATOM     21  C   UNL     1      -0.602   1.636   0.727  0.00  0.00    +0.004 C 
ATOM     22  C   UNL     1      -0.383   0.145   0.466  0.00  0.00    -0.003 C 
ENDBRANCH  20  22
ENDBRANCH  18  20
ENDBRANCH  13  18
ENDBRANCH   1  13
TORSDOF 5
