REMARK  Name = ZINC07246523
REMARK  7 active torsions:
REMARK  status: ('A' for Active; 'I' for Inactive)
REMARK    1  A    between atoms: C_1  and  C_2
REMARK    2  A    between atoms: C_7  and  C_8
REMARK    3  A    between atoms: C_8  and  N_9
REMARK    4  A    between atoms: C_10  and  C_12
REMARK    5  A    between atoms: C_12  and  S_13
REMARK    6  A    between atoms: S_13  and  C_14
REMARK    7  A    between atoms: C_25  and  C_27
REMARK                            x       y       z     vdW  Elec       q    Type
REMARK                         _______ _______ _______ _____ _____    ______ ____
ROOT
ATOM      1  S   UNL     1      -2.979   2.510   5.858  0.00  0.00    -0.076 S 
ENDROOT
BRANCH   1   2
ATOM      2  C   UNL     1      -4.666   2.956   6.098  0.00  0.00    +0.197 A 
ATOM      3  N   UNL     1      -5.669   2.675   5.295  0.00  0.00    -0.122 NA
ATOM      4  N   UNL     1      -6.765   3.148   5.770  0.00  0.00    -0.129 NA
ATOM      5  C   UNL     1      -6.529   3.765   6.913  0.00  0.00    +0.162 A 
ATOM      6  N   UNL     1      -5.178   3.652   7.154  0.00  0.00    -0.270 N 
ATOM      7  C   UNL     1      -4.612   4.198   8.292  0.00  0.00    +0.058 A 
ATOM      8  C   UNL     1      -3.249   4.089   8.536  0.00  0.00    +0.027 A 
ATOM      9  C   UNL     1      -2.706   4.642   9.677  0.00  0.00    +0.002 A 
ATOM     10  C   UNL     1      -3.510   5.309  10.590  0.00  0.00    +0.001 A 
ATOM     11  C   UNL     1      -4.864   5.430  10.368  0.00  0.00    +0.010 A 
ATOM     12  C   UNL     1      -5.428   4.875   9.216  0.00  0.00    +0.002 A 
ATOM     13  C   UNL     1      -6.866   4.987   8.952  0.00  0.00    -0.038 A 
ATOM     14  C   UNL     1      -7.373   4.444   7.823  0.00  0.00    +0.052 A 
ATOM     15  C   UNL     1      -7.766   5.706   9.924  0.00  0.00    +0.044 C 
ENDBRANCH   1   2
BRANCH   1  16
ATOM     16  C   UNL     1      -2.982   1.611   4.282  0.00  0.00    +0.173 C 
BRANCH  16  18
ATOM     17  N   UNL     1      -1.338   0.477   2.823  0.00  0.00    -0.311 N 
ATOM     18  C   UNL     1      -1.579   1.167   3.955  0.00  0.00    +0.224 C 
ATOM     19  O   UNL     1      -0.668   1.431   4.710  0.00  0.00    -0.275 OA
ATOM     20  H   UNL     1      -2.067   0.266   2.219  0.00  0.00    +0.149 HD
BRANCH  17  21
ATOM     21  C   UNL     1       0.025   0.045   2.504  0.00  0.00    +0.139 C 
BRANCH  21  28
ATOM     22  C   UNL     1      -0.018   1.503   0.010  0.00  0.00    +0.044 C 
ATOM     23  C   UNL     1       0.002  -0.004   0.002  0.00  0.00    -0.046 A 
ATOM     24  C   UNL     1       0.006  -0.689  -1.199  0.00  0.00    +0.003 A 
ATOM     25  C   UNL     1       0.025  -2.071  -1.207  0.00  0.00    +0.000 A 
ATOM     26  C   UNL     1       0.040  -2.768  -0.013  0.00  0.00    +0.000 A 
ATOM     27  C   UNL     1       0.037  -2.084   1.188  0.00  0.00    +0.005 A 
ATOM     28  C   UNL     1       0.023  -0.702   1.195  0.00  0.00    -0.027 A 
ENDBRANCH  21  28
ENDBRANCH  17  21
ENDBRANCH  16  18
ENDBRANCH   1  16
TORSDOF 5
