REMARK  Name = ZINC05949085
REMARK  4 active torsions:
REMARK  status: ('A' for Active; 'I' for Inactive)
REMARK    1  A    between atoms: C_10  and  C_11
REMARK    2  A    between atoms: N_12  and  N_13
REMARK    3  A    between atoms: C_14  and  C_16
REMARK    4  A    between atoms: C_21  and  O_22
REMARK                            x       y       z     vdW  Elec       q    Type
REMARK                         _______ _______ _______ _____ _____    ______ ____
ROOT
ATOM      1  N   UNL     1      -3.709   6.123  -0.026  0.00  0.00    -0.203 N 
ATOM      2  C   UNL     1      -4.880   5.462  -0.120  0.00  0.00    +0.267 C 
ATOM      3  O   UNL     1      -4.888   4.249  -0.218  0.00  0.00    -0.268 OA
ATOM      4  H   UNL     1      -3.703   7.090   0.052  0.00  0.00    +0.178 HD
ENDROOT
BRANCH   2   5
ATOM      5  C   UNL     1      -6.152   6.208  -0.103  0.00  0.00    +0.080 A 
ATOM      6  C   UNL     1      -6.147   7.601   0.009  0.00  0.00    +0.018 A 
ATOM      7  C   UNL     1      -7.338   8.293   0.024  0.00  0.00    +0.021 A 
ATOM      8  C   UNL     1      -8.543   7.613  -0.073  0.00  0.00    +0.044 A 
ATOM      9  C   UNL     1      -8.561   6.235  -0.185  0.00  0.00    +0.066 A 
ATOM     10  C   UNL     1      -7.371   5.524  -0.206  0.00  0.00    +0.130 A 
ATOM     11 CL   UNL     1     -10.037   8.497  -0.054  0.00  0.00    -0.083 Cl
BRANCH  10  12
ATOM     12  O   UNL     1      -7.387   4.173  -0.322  0.00  0.00    -0.506 OA
ATOM     13  H   UNL     1      -7.424   3.706   0.524  0.00  0.00    +0.292 HD
ENDBRANCH  10  12
ENDBRANCH   2   5
BRANCH   1  15
ATOM     14  C   UNL     1      -1.373   6.051   0.048  0.00  0.00    +0.139 C 
ATOM     15  N   UNL     1      -2.501   5.414  -0.042  0.00  0.00    -0.187 NA
BRANCH  14  25
ATOM     16  C   UNL     1      -0.012   1.076   0.032  0.00  0.00    +0.001 A 
ATOM     17  C   UNL     1      -1.234   1.745   0.042  0.00  0.00    +0.001 A 
ATOM     18  C   UNL     1      -1.286   3.107   0.049  0.00  0.00    +0.009 A 
ATOM     19  C   UNL     1      -0.097   3.845   0.032  0.00  0.00    -0.009 A 
ATOM     20  C   UNL     1       1.147   3.168   0.016  0.00  0.00    -0.017 A 
ATOM     21  C   UNL     1       1.163   1.762   0.017  0.00  0.00    +0.008 A 
ATOM     22  C   UNL     1       2.339   3.912   0.000  0.00  0.00    +0.008 A 
ATOM     23  C   UNL     1       2.308   5.273  -0.001  0.00  0.00    +0.001 A 
ATOM     24  C   UNL     1       1.113   5.978   0.015  0.00  0.00    +0.010 A 
ATOM     25  C   UNL     1      -0.104   5.307   0.031  0.00  0.00    +0.002 A 
ENDBRANCH  14  25
ENDBRANCH   1  15
TORSDOF 4
