REMARK  Name = ZINC58996149
REMARK  14 active torsions:
REMARK  status: ('A' for Active; 'I' for Inactive)
REMARK    1  A    between atoms: C_1  and  C_2
REMARK    2  A    between atoms: C_2  and  O_3
REMARK    3  A    between atoms: O_3  and  C_4
REMARK    4  A    between atoms: C_4  and  C_6
REMARK    5  A    between atoms: C_7  and  C_34
REMARK    6  A    between atoms: C_8  and  C_32
REMARK    7  A    between atoms: C_9  and  N_11
REMARK    8  A    between atoms: C_12  and  C_14
REMARK    9  A    between atoms: C_14  and  S_15
REMARK   10  A    between atoms: S_15  and  C_16
REMARK   11  A    between atoms: N_21  and  N_22
REMARK   12  A    between atoms: C_23  and  C_24
REMARK   13  A    between atoms: C_27  and  O_30
REMARK   14  A    between atoms: O_30  and  C_31
REMARK                            x       y       z     vdW  Elec       q    Type
REMARK                         _______ _______ _______ _____ _____    ______ ____
ROOT
ATOM      1  S   UNL     1      -9.624  -0.060   0.067  0.00  0.00    -0.075 S 
ENDROOT
BRANCH   1   2
ATOM      2  C   UNL     1     -11.377  -0.240   0.080  0.00  0.00    +0.211 A 
ATOM      3  N   UNL     1     -12.261   0.763   0.081  0.00  0.00    -0.186 NA
ATOM      4  C   UNL     1     -13.484   0.276   0.091  0.00  0.00    +0.232 A 
ATOM      5  N   UNL     1     -13.395  -1.071   0.096  0.00  0.00    -0.245 N 
ATOM      6  N   UNL     1     -12.026  -1.380   0.083  0.00  0.00    -0.144 NA
ATOM      7  N   UNL     1     -14.653   1.014   0.097  0.00  0.00    -0.205 N 
ATOM      8  H   UNL     1     -15.511   0.562   0.104  0.00  0.00    +0.177 HD
ATOM      9  H   UNL     1     -14.133  -1.702   0.103  0.00  0.00    +0.192 HD
BRANCH   7  10
ATOM     10  N   UNL     1     -14.598   2.414   0.091  0.00  0.00    -0.188 NA
ATOM     11  C   UNL     1     -15.696   3.107   0.096  0.00  0.00    +0.138 C 
BRANCH  11  12
ATOM     12  C   UNL     1     -15.637   4.580   0.090  0.00  0.00    -0.005 A 
ATOM     13  C   UNL     1     -14.402   5.232   0.073  0.00  0.00    +0.013 A 
ATOM     14  C   UNL     1     -14.353   6.610   0.068  0.00  0.00    +0.046 A 
ATOM     15  C   UNL     1     -15.528   7.349   0.079  0.00  0.00    +0.120 A 
ATOM     16  C   UNL     1     -16.759   6.705   0.096  0.00  0.00    +0.046 A 
ATOM     17  C   UNL     1     -16.818   5.328   0.096  0.00  0.00    +0.013 A 
BRANCH  15  18
ATOM     18  O   UNL     1     -15.475   8.706   0.074  0.00  0.00    -0.495 OA
ATOM     19  C   UNL     1     -16.721   9.405   0.086  0.00  0.00    +0.277 C 
ENDBRANCH  15  18
ENDBRANCH  11  12
ENDBRANCH   7  10
ENDBRANCH   1   2
BRANCH   1  20
ATOM     20  C   UNL     1      -9.008  -1.766   0.061  0.00  0.00    +0.173 C 
BRANCH  20  22
ATOM     21  N   UNL     1      -6.819  -2.918   0.045  0.00  0.00    -0.278 N 
ATOM     22  C   UNL     1      -7.501  -1.756   0.051  0.00  0.00    +0.228 C 
ATOM     23  O   UNL     1      -6.902  -0.701   0.048  0.00  0.00    -0.275 OA
ATOM     24  H   UNL     1      -7.298  -3.761   0.048  0.00  0.00    +0.155 HD
BRANCH  21  28
ATOM     25  C   UNL     1      -2.840  -2.416   0.016  0.00  0.00    +0.102 A 
ATOM     26  C   UNL     1      -3.208  -3.747   0.018  0.00  0.00    -0.010 A 
ATOM     27  C   UNL     1      -4.571  -4.002   0.028  0.00  0.00    +0.084 A 
ATOM     28  C   UNL     1      -5.436  -2.909   0.035  0.00  0.00    +0.090 A 
ATOM     29  S   UNL     1      -4.412  -1.578   0.036  0.00  0.00    -0.065 S 
ATOM     30  C   UNL     1      -2.188  -4.857   0.009  0.00  0.00    +0.046 C 
BRANCH  25  31
ATOM     31  C   UNL     1      -1.497  -1.839   0.006  0.00  0.00    +0.346 C 
ATOM     32  O   UNL     1      -0.522  -2.567  -0.007  0.00  0.00    -0.244 OA
BRANCH  31  33
ATOM     33  O   UNL     1      -1.339  -0.499   0.012  0.00  0.00    -0.461 OA
BRANCH  33  35
ATOM     34  C   UNL     1      -0.019   1.526   0.010  0.00  0.00    +0.048 C 
ATOM     35  C   UNL     1       0.002  -0.004   0.002  0.00  0.00    +0.229 C 
ENDBRANCH  33  35
ENDBRANCH  31  33
ENDBRANCH  25  31
BRANCH  27  36
ATOM     36  C   UNL     1      -5.072  -5.343   0.031  0.00  0.00    +0.102 C 
ATOM     37  N   UNL     1      -5.471  -6.407   0.033  0.00  0.00    -0.191 NA
ENDBRANCH  27  36
ENDBRANCH  21  28
ENDBRANCH  20  22
ENDBRANCH   1  20
TORSDOF 11
