REMARK  Name = ZINC13988841
REMARK  3 active torsions:
REMARK  status: ('A' for Active; 'I' for Inactive)
REMARK    1  A    between atoms: C_4  and  C_7
REMARK    2  A    between atoms: C_7  and  C_8
REMARK    3  A    between atoms: N_10  and  N_11
REMARK                            x       y       z     vdW  Elec       q    Type
REMARK                         _______ _______ _______ _____ _____    ______ ____
ROOT
ATOM      1  N   UNL     1       0.166  -2.333   3.004  0.00  0.00    -0.217 N 
ATOM      2  C   UNL     1      -0.126  -3.630   3.227  0.00  0.00    +0.327 C 
ATOM      3  O   UNL     1      -0.391  -4.008   4.352  0.00  0.00    -0.250 OA
ATOM      4  N   UNL     1      -0.124  -4.507   2.204  0.00  0.00    -0.221 N 
ATOM      5  C   UNL     1      -0.042  -4.022   0.891  0.00  0.00    +0.057 A 
ATOM      6  C   UNL     1      -0.688  -2.853   0.533  0.00  0.00    +0.025 A 
ATOM      7  C   UNL     1      -0.599  -2.382  -0.765  0.00  0.00    +0.002 A 
ATOM      8  C   UNL     1       0.136  -3.071  -1.711  0.00  0.00    +0.001 A 
ATOM      9  C   UNL     1       0.792  -4.240  -1.364  0.00  0.00    +0.017 A 
ATOM     10  C   UNL     1       0.707  -4.714  -0.068  0.00  0.00    +0.035 A 
ATOM     11  S   UNL     1       1.532  -6.202   0.405  0.00  0.00    -0.086 S 
ATOM     12  C   UNL     1       0.513  -6.798   1.718  0.00  0.00    +0.035 A 
ATOM     13  C   UNL     1      -0.209  -5.878   2.481  0.00  0.00    +0.057 A 
ATOM     14  C   UNL     1      -1.013  -6.333   3.514  0.00  0.00    +0.025 A 
ATOM     15  C   UNL     1      -1.093  -7.688   3.781  0.00  0.00    +0.002 A 
ATOM     16  C   UNL     1      -0.377  -8.595   3.023  0.00  0.00    +0.001 A 
ATOM     17  C   UNL     1       0.429  -8.152   1.988  0.00  0.00    +0.017 A 
ATOM     18  H   UNL     1      -0.045  -1.666   3.675  0.00  0.00    +0.174 HD
ENDROOT
BRANCH   1  21
ATOM     19  C   UNL     1       0.935  -0.642   1.515  0.00  0.00    +0.233 C 
ATOM     20  O   UNL     1       0.627   0.200   2.332  0.00  0.00    -0.274 OA
ATOM     21  N   UNL     1       0.776  -1.949   1.802  0.00  0.00    -0.233 N 
ATOM     22  H   UNL     1       1.083  -2.624   1.177  0.00  0.00    +0.173 HD
BRANCH  19  23
ATOM     23  C   UNL     1       1.496  -0.227   0.179  0.00  0.00    +0.132 C 
BRANCH  23  27
ATOM     24  C   UNL     1       1.393   4.031  -0.147  0.00  0.00    +0.000 A 
ATOM     25  C   UNL     1       2.505   3.406   0.385  0.00  0.00    +0.000 A 
ATOM     26  C   UNL     1       2.538   2.028   0.491  0.00  0.00    +0.004 A 
ATOM     27  C   UNL     1       1.460   1.276   0.064  0.00  0.00    -0.039 A 
ATOM     28  C   UNL     1       0.350   1.901  -0.473  0.00  0.00    +0.004 A 
ATOM     29  C   UNL     1       0.315   3.279  -0.574  0.00  0.00    +0.000 A 
ENDBRANCH  23  27
ENDBRANCH  19  23
ENDBRANCH   1  21
TORSDOF 3
