REMARK  Name = ZINC31978797
REMARK  6 active torsions:
REMARK  status: ('A' for Active; 'I' for Inactive)
REMARK    1  A    between atoms: C_1  and  C_2
REMARK    2  A    between atoms: C_3  and  C_14
REMARK    3  A    between atoms: C_16  and  O_22
REMARK    4  A    between atoms: C_19  and  O_20
REMARK    5  A    between atoms: O_20  and  C_21
REMARK    6  A    between atoms: O_22  and  C_23
REMARK                            x       y       z     vdW  Elec       q    Type
REMARK                         _______ _______ _______ _____ _____    ______ ____
ROOT
ATOM      1  C   UNL     1      -2.630   3.158   5.018  0.00  0.00    +0.066 C 
ATOM      2  C   UNL     1      -1.894   2.502   6.158  0.00  0.00    +0.049 A 
ATOM      3  C   UNL     1      -0.837   1.661   6.049  0.00  0.00    +0.097 A 
ATOM      4  N   UNL     1      -0.469   1.288   7.292  0.00  0.00    -0.221 NA
ATOM      5  C   UNL     1      -1.250   1.872   8.153  0.00  0.00    +0.179 A 
ATOM      6  N   UNL     1      -2.175   2.651   7.512  0.00  0.00    -0.294 N 
ATOM      7  C   UNL     1      -3.095   3.344   8.289  0.00  0.00    +0.038 A 
ATOM      8  C   UNL     1      -3.026   3.213   9.620  0.00  0.00    +0.027 A 
ATOM      9  S   UNL     1      -1.664   2.105   9.868  0.00  0.00    -0.053 S 
ATOM     10  C   UNL     1      -3.904   3.862  10.640  0.00  0.00    +0.125 C 
ATOM     11  N   UNL     1      -4.650   4.951   9.981  0.00  0.00    -0.311 NA
ATOM     12  C   UNL     1      -5.255   4.476   8.729  0.00  0.00    +0.087 C 
ATOM     13  C   UNL     1      -4.170   4.239   7.676  0.00  0.00    +0.070 C 
ATOM     14  H   UNL     1      -5.447   5.307  10.651  0.00  0.00    +0.122 HD
ENDROOT
BRANCH   3  15
ATOM     15  C   UNL     1      -0.199   1.222   4.783  0.00  0.00    +0.047 A 
ATOM     16  C   UNL     1      -0.984   0.780   3.721  0.00  0.00    +0.059 A 
ATOM     17  C   UNL     1      -0.384   0.367   2.545  0.00  0.00    +0.121 A 
ATOM     18  C   UNL     1       0.998   0.403   2.418  0.00  0.00    +0.049 A 
ATOM     19  C   UNL     1       1.782   0.845   3.467  0.00  0.00    +0.050 A 
ATOM     20  C   UNL     1       1.192   1.256   4.650  0.00  0.00    +0.130 A 
BRANCH  20  21
ATOM     21  O   UNL     1       1.964   1.691   5.681  0.00  0.00    -0.494 OA
ATOM     22  C   UNL     1       3.378   1.698   5.475  0.00  0.00    +0.277 C 
ENDBRANCH  20  21
BRANCH  17  23
ATOM     23  O   UNL     1      -1.149  -0.070   1.509  0.00  0.00    -0.495 OA
ATOM     24  C   UNL     1      -0.464  -0.476   0.322  0.00  0.00    +0.277 C 
ENDBRANCH  17  23
ENDBRANCH   3  15
TORSDOF 3
