REMARK  Name = ZINC14038038
REMARK  11 active torsions:
REMARK  status: ('A' for Active; 'I' for Inactive)
REMARK    1  A    between atoms: C_1  and  C_2
REMARK    2  A    between atoms: C_2  and  C_3
REMARK    3  A    between atoms: C_6  and  O_10
REMARK    4  A    between atoms: O_10  and  C_11
REMARK    5  A    between atoms: C_11  and  C_12
REMARK    6  A    between atoms: N_14  and  N_15
REMARK    7  A    between atoms: C_16  and  C_18
REMARK    8  A    between atoms: C_18  and  C_20
REMARK    9  A    between atoms: C_18  and  O_21
REMARK   10  A    between atoms: O_21  and  C_22
REMARK   11  A    between atoms: C_25  and  N_28
REMARK                            x       y       z     vdW  Elec       q    Type
REMARK                         _______ _______ _______ _____ _____    ______ ____
ROOT
ATOM      1  N   UNL     1      -3.145   5.905   8.297  0.00  0.00    -0.231 N 
ATOM      2  C   UNL     1      -3.119   7.092   8.934  0.00  0.00    +0.270 C 
ATOM      3  O   UNL     1      -2.428   7.993   8.507  0.00  0.00    -0.270 OA
ATOM      4  H   UNL     1      -3.698   5.184   8.637  0.00  0.00    +0.173 HD
ENDROOT
BRANCH   1   7
ATOM      5  C   UNL     1      -2.402   4.524   6.505  0.00  0.00    +0.267 C 
ATOM      6  O   UNL     1      -3.093   3.623   6.931  0.00  0.00    -0.271 OA
ATOM      7  N   UNL     1      -2.376   5.712   7.142  0.00  0.00    -0.231 N 
ATOM      8  H   UNL     1      -1.823   6.432   6.801  0.00  0.00    +0.173 HD
BRANCH   5   9
ATOM      9  C   UNL     1      -1.574   4.316   5.263  0.00  0.00    +0.326 C 
BRANCH   9  10
ATOM     10  O   UNL     1      -1.771   2.987   4.776  0.00  0.00    -0.482 OA
BRANCH  10  14
ATOM     11  C   UNL     1       0.294   1.917   1.368  0.00  0.00    -0.046 A 
ATOM     12  C   UNL     1       0.443   3.186   1.895  0.00  0.00    +0.007 A 
ATOM     13  C   UNL     1      -0.252   3.549   3.033  0.00  0.00    +0.047 A 
ATOM     14  C   UNL     1      -1.091   2.635   3.653  0.00  0.00    +0.135 A 
ATOM     15  C   UNL     1      -1.235   1.359   3.125  0.00  0.00    +0.060 A 
ATOM     16  C   UNL     1      -0.542   1.003   1.983  0.00  0.00    +0.022 A 
ATOM     17 BR   UNL     1      -2.377   0.110   3.967  0.00  0.00    -0.047 Br
BRANCH  11  19
ATOM     18  C   UNL     1       0.204   1.853  -1.109  0.00  0.00    +0.009 C 
ATOM     19  C   UNL     1       1.049   1.526   0.124  0.00  0.00    +0.032 C 
ENDBRANCH  11  19
ENDBRANCH  10  14
ENDBRANCH   9  10
ENDBRANCH   5   9
ENDBRANCH   1   7
BRANCH   2  20
ATOM     20  C   UNL     1      -3.947   7.300  10.175  0.00  0.00    +0.257 C 
ATOM     21  C   UNL     1      -5.432   7.215   9.818  0.00  0.00    +0.062 C 
BRANCH  20  22
ATOM     22  O   UNL     1      -3.662   8.586  10.728  0.00  0.00    -0.480 OA
BRANCH  22  23
ATOM     23  C   UNL     1      -3.884   8.749  12.059  0.00  0.00    +0.122 A 
ATOM     24  C   UNL     1      -3.518   9.932  12.685  0.00  0.00    +0.048 A 
ATOM     25  C   UNL     1      -3.750  10.097  14.037  0.00  0.00    +0.036 A 
ATOM     26  C   UNL     1      -4.336   9.081  14.768  0.00  0.00    +0.126 A 
ATOM     27  C   UNL     1      -4.697   7.899  14.148  0.00  0.00    +0.036 A 
ATOM     28  C   UNL     1      -4.472   7.731  12.795  0.00  0.00    +0.048 A 
BRANCH  26  29
ATOM     29  N   UNL     1      -4.577   9.258  16.218  0.00  0.00    +0.056 N 
ATOM     30  O   UNL     1      -5.093   8.363  16.863  0.00  0.00    -0.126 OA
ATOM     31  O   UNL     1      -4.260  10.298  16.765  0.00  0.00    -0.126 OA
ENDBRANCH  26  29
ENDBRANCH  22  23
ENDBRANCH  20  22
ENDBRANCH   2  20
TORSDOF 9
