REMARK  Name = ZINC09607356
REMARK  5 active torsions:
REMARK  status: ('A' for Active; 'I' for Inactive)
REMARK    1  A    between atoms: C_1  and  C_2
REMARK    2  A    between atoms: N_10  and  N_14
REMARK    3  A    between atoms: C_15  and  C_17
REMARK    4  A    between atoms: C_17  and  N_18
REMARK    5  A    between atoms: C_25  and  C_28
REMARK                            x       y       z     vdW  Elec       q    Type
REMARK                         _______ _______ _______ _____ _____    ______ ____
ROOT
ATOM      1  N   UNL     1       1.434   6.980   4.105  0.00  0.00    -0.222 N 
ATOM      2  C   UNL     1       0.554   6.340   3.308  0.00  0.00    +0.250 C 
ATOM      3  O   UNL     1       0.429   6.677   2.150  0.00  0.00    -0.272 OA
ATOM      4  H   UNL     1       1.534   6.710   5.031  0.00  0.00    +0.174 HD
ENDROOT
BRANCH   1  14
ATOM      5  C   UNL     1       5.449  13.313   1.505  0.00  0.00    +0.007 C 
ATOM      6  C   UNL     1       4.361  12.566   2.280  0.00  0.00    -0.014 C 
ATOM      7  C   UNL     1       3.500  11.762   1.304  0.00  0.00    +0.006 C 
ATOM      8  C   UNL     1       2.405  11.025   2.079  0.00  0.00    +0.035 C 
ATOM      9  C   UNL     1       3.043  10.095   3.105  0.00  0.00    +0.114 C 
ATOM     10  C   UNL     1       3.925  10.879   4.070  0.00  0.00    +0.035 C 
ATOM     11  C   UNL     1       5.014  11.617   3.287  0.00  0.00    +0.006 C 
ATOM     12  C   UNL     1       1.977   9.336   3.862  0.00  0.00    +0.263 C 
ATOM     13  O   UNL     1       1.103   9.801   4.562  0.00  0.00    -0.271 OA
ATOM     14  N   UNL     1       2.203   8.033   3.594  0.00  0.00    -0.137 N 
ATOM     15  C   UNL     1       3.257   7.872   2.785  0.00  0.00    +0.326 C 
ATOM     16  O   UNL     1       3.659   6.789   2.406  0.00  0.00    -0.251 OA
ATOM     17  N   UNL     1       3.820   9.044   2.435  0.00  0.00    -0.284 N 
ATOM     18  H   UNL     1       4.590   9.170   1.857  0.00  0.00    +0.151 HD
ENDBRANCH   1  14
BRANCH   2  19
ATOM     19  C   UNL     1      -0.273   5.207   3.857  0.00  0.00    +0.223 C 
BRANCH  19  20
ATOM     20  N   UNL     1      -1.144   4.682   2.803  0.00  0.00    -0.290 N 
ATOM     21  C   UNL     1      -2.383   5.212   2.638  0.00  0.00    +0.203 A 
ATOM     22  N   UNL     1      -3.188   4.771   1.709  0.00  0.00    -0.230 NA
ATOM     23  C   UNL     1      -2.819   3.787   0.893  0.00  0.00    +0.116 A 
ATOM     24  C   UNL     1      -1.557   3.178   0.988  0.00  0.00    +0.080 A 
ATOM     25  C   UNL     1      -0.700   3.684   2.016  0.00  0.00    +0.263 A 
ATOM     26  O   UNL     1       0.415   3.219   2.177  0.00  0.00    -0.267 OA
ATOM     27  C   UNL     1      -1.309   2.116   0.020  0.00  0.00    +0.004 A 
ATOM     28  C   UNL     1      -2.280   1.809  -0.874  0.00  0.00    +0.056 A 
ATOM     29  S   UNL     1      -3.598   2.933  -0.453  0.00  0.00    -0.076 S 
BRANCH  27  30
ATOM     30  C   UNL     1      -0.017   1.390   0.010  0.00  0.00    -0.016 A 
ATOM     31  C   UNL     1       1.183   2.099   0.002  0.00  0.00    +0.011 A 
ATOM     32  C   UNL     1       2.384   1.419  -0.013  0.00  0.00    +0.039 A 
ATOM     33  C   UNL     1       2.398   0.034  -0.021  0.00  0.00    +0.123 A 
ATOM     34  C   UNL     1       1.207  -0.675  -0.013  0.00  0.00    +0.039 A 
ATOM     35  C   UNL     1       0.002  -0.004   0.002  0.00  0.00    +0.011 A 
ATOM     36  F   UNL     1       3.575  -0.628  -0.035  0.00  0.00    -0.205 F 
ENDBRANCH  27  30
ENDBRANCH  19  20
ENDBRANCH   2  19
TORSDOF 4
