REMARK  Name = ZINC03312323
REMARK  10 active torsions:
REMARK  status: ('A' for Active; 'I' for Inactive)
REMARK    1  A    between atoms: C_1  and  C_2
REMARK    2  A    between atoms: C_2  and  C_3
REMARK    3  A    between atoms: C_2  and  C_4
REMARK    4  A    between atoms: C_4  and  C_5
REMARK    5  A    between atoms: N_9  and  C_13
REMARK    6  A    between atoms: C_13  and  C_14
REMARK    7  A    between atoms: C_17  and  C_32
REMARK    8  A    between atoms: C_20  and  C_22
REMARK    9  A    between atoms: C_35  and  O_38
REMARK   10  A    between atoms: O_38  and  C_39
REMARK                            x       y       z     vdW  Elec       q    Type
REMARK                         _______ _______ _______ _____ _____    ______ ____
ROOT
ATOM      1  C   UNL     1      -5.726  -1.275  -3.640  0.00  0.00    +0.250 C 
ATOM      2  O   UNL     1      -5.280  -0.207  -4.002  0.00  0.00    -0.272 OA
ATOM      3  N   UNL     1      -6.913  -1.705  -4.112  0.00  0.00    -0.210 N 
ATOM      4  C   UNL     1      -7.789  -1.011  -5.070  0.00  0.00    +0.152 C 
ATOM      5  C   UNL     1      -8.975  -1.933  -5.245  0.00  0.00    +0.027 C 
ATOM      6  C   UNL     1      -8.767  -2.998  -4.476  0.00  0.00    +0.050 C 
ATOM      7  N   UNL     1      -7.561  -2.907  -3.795  0.00  0.00    -0.261 N 
ATOM      8  H   UNL     1      -7.216  -3.578  -3.185  0.00  0.00    +0.170 HD
ENDROOT
BRANCH   6   9
ATOM      9  C   UNL     1      -9.703  -4.140  -4.364  0.00  0.00    -0.002 A 
ATOM     10  C   UNL     1     -10.896  -4.139  -5.106  0.00  0.00    +0.010 A 
ATOM     11  C   UNL     1     -11.770  -5.175  -5.021  0.00  0.00    +0.009 A 
ATOM     12  C   UNL     1     -11.487  -6.267  -4.182  0.00  0.00    -0.018 A 
ATOM     13  C   UNL     1     -12.375  -7.351  -4.078  0.00  0.00    +0.008 A 
ATOM     14  C   UNL     1     -12.072  -8.395  -3.258  0.00  0.00    +0.001 A 
ATOM     15  C   UNL     1     -10.892  -8.407  -2.517  0.00  0.00    +0.001 A 
ATOM     16  C   UNL     1     -10.008  -7.375  -2.591  0.00  0.00    +0.008 A 
ATOM     17  C   UNL     1     -10.286  -6.279  -3.428  0.00  0.00    -0.017 A 
ATOM     18  C   UNL     1      -9.393  -5.202  -3.534  0.00  0.00    +0.018 A 
ENDBRANCH   6   9
BRANCH   4  19
ATOM     19  C   UNL     1      -8.231   0.317  -4.510  0.00  0.00    -0.021 A 
ATOM     20  C   UNL     1      -8.561   0.425  -3.171  0.00  0.00    +0.009 A 
ATOM     21  C   UNL     1      -8.967   1.641  -2.655  0.00  0.00    +0.046 A 
ATOM     22  C   UNL     1      -9.044   2.753  -3.481  0.00  0.00    +0.120 A 
ATOM     23  C   UNL     1      -8.712   2.641  -4.824  0.00  0.00    +0.046 A 
ATOM     24  C   UNL     1      -8.302   1.425  -5.334  0.00  0.00    +0.009 A 
BRANCH  22  25
ATOM     25  O   UNL     1      -9.444   3.950  -2.976  0.00  0.00    -0.495 OA
ATOM     26  C   UNL     1      -9.499   5.051  -3.885  0.00  0.00    +0.277 C 
ENDBRANCH  22  25
ENDBRANCH   4  19
BRANCH   1  27
ATOM     27  C   UNL     1      -4.952  -2.122  -2.663  0.00  0.00    +0.215 C 
BRANCH  27  31
ATOM     28  C   UNL     1      -2.135  -0.131  -1.286  0.00  0.00    +0.161 C 
ATOM     29  C   UNL     1      -3.582  -0.583  -1.272  0.00  0.00    +0.244 C 
ATOM     30  O   UNL     1      -4.448  -0.243  -0.494  0.00  0.00    -0.273 OA
ATOM     31  N   UNL     1      -3.706  -1.440  -2.305  0.00  0.00    -0.216 N 
ATOM     32  C   UNL     1      -2.551  -1.591  -2.962  0.00  0.00    +0.310 C 
ATOM     33  O   UNL     1      -2.414  -2.312  -3.930  0.00  0.00    -0.252 OA
ATOM     34  N   UNL     1      -1.555  -0.851  -2.433  0.00  0.00    -0.288 N 
ATOM     35  H   UNL     1      -0.638  -0.801  -2.744  0.00  0.00    +0.151 HD
BRANCH  28  36
ATOM     36  C   UNL     1      -1.433  -0.534   0.013  0.00  0.00    +0.034 C 
BRANCH  36  38
ATOM     37  C   UNL     1      -0.019   1.526   0.010  0.00  0.00    +0.007 C 
ATOM     38  C   UNL     1       0.002  -0.004   0.002  0.00  0.00    -0.015 C 
ATOM     39  C   UNL     1       0.742  -0.511   1.242  0.00  0.00    +0.007 C 
ENDBRANCH  36  38
ENDBRANCH  28  36
ENDBRANCH  27  31
ENDBRANCH   1  27
TORSDOF 7
