REMARK  Name = ZINC16446152
REMARK  11 active torsions:
REMARK  status: ('A' for Active; 'I' for Inactive)
REMARK    1  A    between atoms: C_1  and  C_2
REMARK    2  A    between atoms: C_2  and  C_3
REMARK    3  A    between atoms: C_3  and  C_4
REMARK    4  A    between atoms: C_4  and  N_5
REMARK    5  A    between atoms: N_5  and  C_6
REMARK    6  A    between atoms: C_7  and  N_22
REMARK    7  A    between atoms: N_8  and  C_15
REMARK    8  A    between atoms: C_15  and  C_16
REMARK    9  A    between atoms: C_23  and  C_25
REMARK   10  A    between atoms: C_25  and  N_64
REMARK   11  A    between atoms: C_29  and  C_32
REMARK                            x       y       z     vdW  Elec       q    Type
REMARK                         _______ _______ _______ _____ _____    ______ ____
ROOT
ATOM      1  C   UNL     1      -2.048   2.383   1.306  0.00  0.00    +0.140 A 
ATOM      2  C   UNL     1      -2.837   1.882   2.320  0.00  0.00    +0.128 A 
ATOM      3  N   UNL     1      -4.164   2.240   2.379  0.00  0.00    -0.276 N 
ATOM      4  C   UNL     1      -4.689   3.062   1.452  0.00  0.00    +0.331 A 
ATOM      5  O   UNL     1      -5.865   3.363   1.518  0.00  0.00    -0.246 OA
ATOM      6  N   UNL     1      -3.936   3.556   0.453  0.00  0.00    -0.273 N 
ATOM      7  H   UNL     1      -4.351   4.166  -0.223  0.00  0.00    +0.173 HD
ATOM      8  C   UNL     1      -2.630   3.240   0.353  0.00  0.00    +0.277 A 
ATOM      9  O   UNL     1      -1.957   3.694  -0.557  0.00  0.00    -0.266 OA
ENDROOT
BRANCH   1  10
ATOM     10  N   UNL     1      -0.683   2.038   1.221  0.00  0.00    -0.266 N 
ATOM     11  C   UNL     1       0.171   2.420   2.194  0.00  0.00    +0.203 C 
ATOM     12  O   UNL     1      -0.250   2.978   3.186  0.00  0.00    -0.277 OA
BRANCH  10  13
ATOM     13  C   UNL     1      -0.192   1.266   0.078  0.00  0.00    +0.114 C 
BRANCH  13  14
ATOM     14  C   UNL     1      -0.228  -0.226   0.416  0.00  0.00    +0.019 C 
BRANCH  14  16
ATOM     15  C   UNL     1       0.248  -2.524  -0.440  0.00  0.00    +0.004 C 
ATOM     16  C   UNL     1       0.285  -1.033  -0.778  0.00  0.00    -0.002 C 
ENDBRANCH  14  16
ENDBRANCH  13  14
ENDBRANCH  10  13
BRANCH  11  17
ATOM     17  C   UNL     1       1.647   2.153   2.049  0.00  0.00    +0.019 C 
BRANCH  17  24
ATOM     18  C   UNL     1       1.980   1.905   4.434  0.00  0.00    -0.078 C 
ATOM     19  C   UNL     1       2.841   2.361   5.614  0.00  0.00    -0.018 C 
ATOM     20  C   UNL     1       2.629   3.860   5.844  0.00  0.00    -0.001 C 
ATOM     21  C   UNL     1       2.980   4.620   4.562  0.00  0.00    -0.031 C 
ATOM     22  C   UNL     1       2.115   4.098   3.412  0.00  0.00    -0.075 C 
ATOM     23  C   UNL     1       2.715   6.113   4.764  0.00  0.00    +0.005 C 
ATOM     24  N   UNL     1       2.384   2.656   3.226  0.00  0.00    +0.386 N 
ATOM     25  H   UNL     1       3.390   2.522   3.072  0.00  0.00    -0.081 HD
ENDBRANCH  17  24
ENDBRANCH  11  17
ENDBRANCH   1  10
BRANCH   2  26
ATOM     26  N   UNL     1      -2.303   1.038   3.264  0.00  0.00    -0.343 N 
ATOM     27  H   UNL     1      -1.390   0.724   3.172  0.00  0.00    +0.144 HD
ATOM     28  H   UNL     1      -2.839   0.756   4.022  0.00  0.00    +0.144 HD
ENDBRANCH   2  26
BRANCH   3  29
ATOM     29  C   UNL     1      -5.013   1.718   3.453  0.00  0.00    +0.163 C 
BRANCH  29  30
ATOM     30  C   UNL     1      -5.636   0.418   3.015  0.00  0.00    -0.028 A 
ATOM     31  C   UNL     1      -6.859   0.420   2.371  0.00  0.00    +0.005 A 
ATOM     32  C   UNL     1      -7.428  -0.772   1.965  0.00  0.00    +0.000 A 
ATOM     33  C   UNL     1      -6.779  -1.967   2.212  0.00  0.00    +0.000 A 
ATOM     34  C   UNL     1      -5.558  -1.970   2.860  0.00  0.00    +0.000 A 
ATOM     35  C   UNL     1      -4.987  -0.777   3.261  0.00  0.00    +0.005 A 
ENDBRANCH  29  30
ENDBRANCH   3  29
TORSDOF 9
