REMARK  Name = ZINC62755670
REMARK  2 active torsions:
REMARK  status: ('A' for Active; 'I' for Inactive)
REMARK    1  A    between atoms: C_4  and  C_22
REMARK    2  A    between atoms: C_6  and  N_10
REMARK                            x       y       z     vdW  Elec       q    Type
REMARK                         _______ _______ _______ _____ _____    ______ ____
ROOT
ATOM      1  N   UNL     1       1.727  -1.097  -3.303  0.00  0.00    +0.387 N 
ATOM      2  C   UNL     1       2.999  -1.721  -3.692  0.00  0.00    -0.049 C 
ATOM      3  C   UNL     1       3.038  -1.902  -5.211  0.00  0.00    +0.141 C 
ATOM      4  O   UNL     1       1.915  -2.687  -5.625  0.00  0.00    -0.380 OA
ATOM      5  C   UNL     1       0.657  -2.122  -5.249  0.00  0.00    +0.105 C 
ATOM      6  C   UNL     1       0.616  -1.958  -3.728  0.00  0.00    -0.039 C 
ATOM      7  C   UNL     1      -0.718  -1.327  -3.324  0.00  0.00    -0.013 C 
ATOM      8  C   UNL     1      -1.863  -2.241  -3.765  0.00  0.00    -0.001 C 
ATOM      9  C   UNL     1      -1.820  -2.422  -5.284  0.00  0.00    +0.002 C 
ATOM     10  C   UNL     1      -0.481  -3.043  -5.689  0.00  0.00    +0.030 C 
ATOM     11  H   UNL     1       1.643  -0.195  -3.747  0.00  0.00    -0.081 HD
ENDROOT
BRANCH   1  16
ATOM     12  C   UNL     1       0.837  -3.255   0.397  0.00  0.00    -0.000 C 
ATOM     13  C   UNL     1      -0.436  -2.610   0.109  0.00  0.00    +0.001 C 
ATOM     14  C   UNL     1      -0.512  -2.078  -1.336  0.00  0.00    +0.013 C 
ATOM     15  C   UNL     1       0.222  -0.765  -1.401  0.00  0.00    +0.089 C 
ATOM     16  C   UNL     1       1.688  -0.931  -1.843  0.00  0.00    -0.054 C 
ATOM     17  C   UNL     1       2.376  -2.144  -1.189  0.00  0.00    -0.014 C 
ATOM     18  C   UNL     1       2.029  -2.285   0.269  0.00  0.00    -0.002 C 
BRANCH  15  19
ATOM     19  C   UNL     1      -0.482   0.139  -2.381  0.00  0.00    +0.357 C 
ATOM     20  O   UNL     1      -1.697   0.237  -2.355  0.00  0.00    -0.246 OA
ATOM     21  O   UNL     1       0.164   0.771  -3.199  0.00  0.00    -0.246 OA
ENDBRANCH  15  19
ENDBRANCH   1  16
TORSDOF 2
