REMARK  Name = ZINC16210093
REMARK  4 active torsions:
REMARK  status: ('A' for Active; 'I' for Inactive)
REMARK    1  A    between atoms: C_8  and  C_12
REMARK    2  A    between atoms: C_12  and  O_13
REMARK    3  A    between atoms: O_13  and  C_14
REMARK    4  A    between atoms: C_18  and  N_20
REMARK                            x       y       z     vdW  Elec       q    Type
REMARK                         _______ _______ _______ _____ _____    ______ ____
ROOT
ATOM      1  C   UNL     1      -1.833  11.211   0.079  0.00  0.00    +0.001 A 
ATOM      2  C   UNL     1      -0.700  12.021   0.071  0.00  0.00    +0.002 A 
ATOM      3  C   UNL     1       0.549  11.482   0.056  0.00  0.00    +0.028 A 
ATOM      4  C   UNL     1       0.706  10.085   0.047  0.00  0.00    +0.073 A 
ATOM      5  C   UNL     1      -0.448   9.262   0.054  0.00  0.00    +0.001 A 
ATOM      6  C   UNL     1      -1.722   9.854   0.070  0.00  0.00    +0.010 A 
ATOM      7  C   UNL     1      -0.290   7.863   0.046  0.00  0.00    +0.020 A 
ATOM      8  C   UNL     1       0.978   7.358   0.031  0.00  0.00    +0.027 A 
ATOM      9  C   UNL     1       2.072   8.223   0.030  0.00  0.00    +0.136 A 
ATOM     10  N   UNL     1       1.920   9.527   0.033  0.00  0.00    -0.235 NA
ATOM     11 CL   UNL     1       3.676   7.559   0.019  0.00  0.00    -0.062 Cl
ENDROOT
BRANCH   8  12
ATOM     12  C   UNL     1       1.196   5.867   0.021  0.00  0.00    +0.267 C 
BRANCH  12  13
ATOM     13  O   UNL     1      -0.069   5.201   0.030  0.00  0.00    -0.487 OA
BRANCH  13  14
ATOM     14  C   UNL     1      -0.050   3.842   0.023  0.00  0.00    +0.123 A 
ATOM     15  C   UNL     1       1.160   3.163   0.008  0.00  0.00    +0.046 A 
ATOM     16  C   UNL     1       1.176   1.782   0.000  0.00  0.00    +0.006 A 
ATOM     17  C   UNL     1      -0.013   1.076   0.008  0.00  0.00    +0.033 A 
ATOM     18  C   UNL     1      -1.220   1.750   0.017  0.00  0.00    +0.130 A 
ATOM     19  C   UNL     1      -1.241   3.131   0.031  0.00  0.00    +0.078 A 
BRANCH  18  20
ATOM     20  N   UNL     1      -2.490   0.990   0.019  0.00  0.00    +0.057 N 
ATOM     21  O   UNL     1      -2.472  -0.228   0.012  0.00  0.00    -0.126 OA
ATOM     22  O   UNL     1      -3.554   1.583   0.027  0.00  0.00    -0.126 OA
ENDBRANCH  18  20
ENDBRANCH  13  14
ENDBRANCH  12  13
ENDBRANCH   8  12
TORSDOF 4
