REMARK  Name = ZINC39533270
REMARK  13 active torsions:
REMARK  status: ('A' for Active; 'I' for Inactive)
REMARK    1  A    between atoms: C_1  and  C_2
REMARK    2  A    between atoms: C_2  and  C_3
REMARK    3  A    between atoms: C_3  and  C_4
REMARK    4  A    between atoms: C_7  and  C_10
REMARK    5  A    between atoms: C_10  and  C_12
REMARK    6  A    between atoms: C_10  and  N_21
REMARK    7  A    between atoms: C_12  and  N_13
REMARK    8  A    between atoms: N_13  and  C_14
REMARK    9  A    between atoms: C_14  and  C_15
REMARK   10  A    between atoms: C_25  and  S_28
REMARK   11  A    between atoms: S_28  and  C_31
REMARK   12  A    between atoms: C_31  and  C_32
REMARK   13  A    between atoms: C_31  and  C_33
REMARK                            x       y       z     vdW  Elec       q    Type
REMARK                         _______ _______ _______ _____ _____    ______ ____
ROOT
ATOM      1  C   UNL     1      -1.431  -5.669   0.542  0.00  0.00    +0.070 C 
ENDROOT
BRANCH   1   2
ATOM      2  N   UNL     1      -0.408  -6.271   1.408  0.00  0.00    -0.293 NA
ATOM      3  C   UNL     1      -0.582  -5.844   2.803  0.00  0.00    +0.100 C 
ATOM      4  C   UNL     1       0.451  -6.553   3.683  0.00  0.00    +0.098 C 
ATOM      5  N   UNL     1       1.802  -6.234   3.202  0.00  0.00    -0.293 NA
ATOM      6  C   UNL     1       1.975  -6.661   1.806  0.00  0.00    +0.212 C 
ATOM      7  C   UNL     1       0.943  -5.952   0.926  0.00  0.00    +0.127 C 
ATOM      8  H   UNL     1       2.000  -5.250   3.306  0.00  0.00    +0.124 HD
BRANCH   6   9
ATOM      9  S   UNL     1       3.646  -6.232   1.245  0.00  0.00    -0.012 S 
ATOM     10  O   UNL     1       3.829  -6.754  -0.064  0.00  0.00    -0.173 OA
ATOM     11  O   UNL     1       3.854  -4.845   1.471  0.00  0.00    -0.173 OA
BRANCH   9  12
ATOM     12  C   UNL     1       4.704  -7.164   2.387  0.00  0.00    +0.126 C 
ATOM     13  C   UNL     1       4.478  -8.663   2.183  0.00  0.00    +0.031 C 
ATOM     14  C   UNL     1       6.171  -6.827   2.113  0.00  0.00    +0.031 C 
ENDBRANCH   9  12
ENDBRANCH   6   9
ENDBRANCH   1   2
BRANCH   1  18
ATOM     15  C   UNL     1      -1.578  -1.455   1.226  0.00  0.00    -0.047 A 
ATOM     16  C   UNL     1      -0.996  -1.949   0.073  0.00  0.00    +0.004 A 
ATOM     17  C   UNL     1      -0.948  -3.312  -0.148  0.00  0.00    +0.005 A 
ATOM     18  C   UNL     1      -1.482  -4.183   0.783  0.00  0.00    -0.032 A 
ATOM     19  C   UNL     1      -2.064  -3.689   1.936  0.00  0.00    +0.005 A 
ATOM     20  C   UNL     1      -2.108  -2.326   2.159  0.00  0.00    +0.004 A 
BRANCH  15  21
ATOM     21  C   UNL     1      -1.631   0.032   1.466  0.00  0.00    +0.035 C 
BRANCH  21  23
ATOM     22  C   UNL     1      -0.423   1.981   2.459  0.00  0.00    +0.004 C 
ATOM     23  C   UNL     1      -0.370   0.471   2.214  0.00  0.00    +0.001 C 
ENDBRANCH  21  23
ENDBRANCH  15  21
ENDBRANCH   1  18
BRANCH   1  24
ATOM     24  C   UNL     1      -2.795  -6.285   0.860  0.00  0.00    -0.058 C 
BRANCH  24  25
ATOM     25  N   UNL     1      -2.713  -7.747   0.740  0.00  0.00    +0.383 N 
ATOM     26  H   UNL     1      -2.444  -7.992  -0.201  0.00  0.00    -0.085 HD
ATOM     27  H   UNL     1      -2.025  -8.099   1.389  0.00  0.00    -0.085 HD
BRANCH  25  28
ATOM     28  C   UNL     1      -4.022  -8.338   1.046  0.00  0.00    -0.047 C 
BRANCH  28  29
ATOM     29  C   UNL     1      -3.938  -9.837   0.923  0.00  0.00    -0.064 A 
ATOM     30  C   UNL     1      -4.198 -10.447  -0.290  0.00  0.00    +0.002 A 
ATOM     31  C   UNL     1      -4.120 -11.823  -0.403  0.00  0.00    +0.000 A 
ATOM     32  C   UNL     1      -3.782 -12.588   0.697  0.00  0.00    +0.000 A 
ATOM     33  C   UNL     1      -3.521 -11.979   1.910  0.00  0.00    +0.000 A 
ATOM     34  C   UNL     1      -3.594 -10.603   2.022  0.00  0.00    +0.002 A 
ENDBRANCH  28  29
ENDBRANCH  25  28
ENDBRANCH  24  25
ENDBRANCH   1  24
TORSDOF 10
