REMARK  Name = ZINC13792585
REMARK  6 active torsions:
REMARK  status: ('A' for Active; 'I' for Inactive)
REMARK    1  A    between atoms: C_1  and  C_2
REMARK    2  A    between atoms: C_9  and  N_20
REMARK    3  A    between atoms: C_10  and  C_11
REMARK    4  A    between atoms: C_21  and  C_23
REMARK    5  A    between atoms: N_29  and  S_30
REMARK    6  A    between atoms: S_30  and  C_33
REMARK                            x       y       z     vdW  Elec       q    Type
REMARK                         _______ _______ _______ _____ _____    ______ ____
ROOT
ATOM      1  C   UNL     1       3.018   9.895  -2.388  0.00  0.00    +0.008 C 
ATOM      2  C   UNL     1       3.055   9.040  -1.120  0.00  0.00    -0.009 C 
ATOM      3  C   UNL     1       4.493   8.590  -0.845  0.00  0.00    +0.008 C 
ATOM      4  C   UNL     1       4.582   7.951   0.541  0.00  0.00    +0.037 C 
ATOM      5  C   UNL     1       3.521   6.860   0.649  0.00  0.00    -0.026 A 
ATOM      6  C   UNL     1       2.469   6.834  -0.202  0.00  0.00    -0.004 A 
ATOM      7  S   UNL     1       1.526   5.415   0.287  0.00  0.00    -0.077 S 
ATOM      8  C   UNL     1       2.546   4.868   1.645  0.00  0.00    +0.082 A 
ATOM      9  C   UNL     1       3.566   5.804   1.644  0.00  0.00    +0.039 A 
ATOM     10  C   UNL     1       2.178   7.794  -1.314  0.00  0.00    +0.046 C 
ENDROOT
BRANCH   9  11
ATOM     11  C   UNL     1       4.664   5.731   2.623  0.00  0.00    +0.112 A 
ATOM     12  N   UNL     1       4.858   4.850   3.583  0.00  0.00    -0.239 NA
ATOM     13  C   UNL     1       5.919   4.907   4.413  0.00  0.00    +0.079 A 
ATOM     14  C   UNL     1       6.244   4.031   5.476  0.00  0.00    +0.029 A 
ATOM     15  C   UNL     1       7.371   4.232   6.229  0.00  0.00    +0.002 A 
ATOM     16  C   UNL     1       8.230   5.293   5.980  0.00  0.00    +0.001 A 
ATOM     17  C   UNL     1       7.944   6.169   4.949  0.00  0.00    +0.017 A 
ATOM     18  C   UNL     1       6.817   5.976   4.189  0.00  0.00    +0.040 A 
ATOM     19  S   UNL     1       6.077   6.810   2.806  0.00  0.00    -0.067 S 
ENDBRANCH   9  11
BRANCH   8  20
ATOM     20  N   UNL     1       2.365   3.775   2.485  0.00  0.00    -0.278 N 
ATOM     21  C   UNL     1       1.296   2.971   2.325  0.00  0.00    +0.236 C 
ATOM     22  O   UNL     1       0.490   3.200   1.447  0.00  0.00    -0.274 OA
ATOM     23  H   UNL     1       3.009   3.592   3.187  0.00  0.00    +0.155 HD
BRANCH  21  24
ATOM     24  C   UNL     1       1.100   1.787   3.236  0.00  0.00    +0.165 C 
ATOM     25  C   UNL     1       1.244   0.491   2.432  0.00  0.00    +0.030 C 
ATOM     26  C   UNL     1       0.907  -0.702   3.330  0.00  0.00    +0.003 C 
ATOM     27  C   UNL     1      -0.542  -0.589   3.810  0.00  0.00    +0.017 C 
ATOM     28  C   UNL     1      -0.703   0.697   4.634  0.00  0.00    +0.110 C 
ATOM     29  N   UNL     1      -0.247   1.833   3.822  0.00  0.00    -0.170 NA
BRANCH  29  30
ATOM     30  S   UNL     1      -1.228   3.144   3.577  0.00  0.00    +0.030 S 
ATOM     31  O   UNL     1      -0.337   4.237   3.406  0.00  0.00    -0.158 OA
ATOM     32  O   UNL     1      -2.144   3.119   4.664  0.00  0.00    -0.158 OA
ATOM     33  C   UNL     1      -2.095   2.794   2.022  0.00  0.00    +0.215 C 
ENDBRANCH  29  30
ENDBRANCH  21  24
ENDBRANCH   8  20
TORSDOF 4
