REMARK  Name = ZINC07674280
REMARK  4 active torsions:
REMARK  status: ('A' for Active; 'I' for Inactive)
REMARK    1  A    between atoms: C_1  and  C_2
REMARK    2  A    between atoms: N_11  and  C_12
REMARK    3  A    between atoms: C_12  and  C_13
REMARK    4  A    between atoms: C_19  and  C_24
REMARK                            x       y       z     vdW  Elec       q    Type
REMARK                         _______ _______ _______ _____ _____    ______ ____
ROOT
ATOM      1  C   UNL     1       2.783   4.128   0.459  0.00  0.00    +0.128 A 
ATOM      2  N   UNL     1       2.779   5.335   1.081  0.00  0.00    -0.309 N 
ATOM      3  H   UNL     1       3.457   5.522   1.791  0.00  0.00    +0.170 HD
ATOM      4  C   UNL     1       1.879   6.283   0.760  0.00  0.00    +0.260 A 
ATOM      5  O   UNL     1       1.891   7.363   1.324  0.00  0.00    -0.267 OA
ATOM      6  C   UNL     1       0.904   6.002  -0.249  0.00  0.00    +0.083 A 
ATOM      7  C   UNL     1      -0.164   6.852  -0.763  0.00  0.00    +0.039 A 
ATOM      8  C   UNL     1      -0.976   6.362  -1.735  0.00  0.00    +0.059 A 
ATOM      9  S   UNL     1      -0.342   4.720  -2.013  0.00  0.00    -0.076 S 
ATOM     10  C   UNL     1       0.983   4.727  -0.833  0.00  0.00    +0.116 A 
ATOM     11  N   UNL     1       1.907   3.841  -0.466  0.00  0.00    -0.225 NA
ENDROOT
BRANCH   7  12
ATOM     12  C   UNL     1      -0.359   8.218  -0.236  0.00  0.00    +0.136 A 
ATOM     13  C   UNL     1      -0.489   9.349  -0.979  0.00  0.00    +0.050 A 
ATOM     14  C   UNL     1      -0.655  10.415  -0.071  0.00  0.00    +0.042 A 
ATOM     15  C   UNL     1      -0.620   9.887   1.167  0.00  0.00    +0.196 A 
ATOM     16  O   UNL     1      -0.446   8.558   1.064  0.00  0.00    -0.463 OA
ENDBRANCH   7  12
BRANCH   1  17
ATOM     17  C   UNL     1       3.813   3.098   0.847  0.00  0.00    +0.179 C 
BRANCH  17  27
ATOM     18  C   UNL     1       2.550   0.118   1.198  0.00  0.00    +0.028 C 
ATOM     19  C   UNL     1       2.407   1.238   0.166  0.00  0.00    +0.075 C 
ATOM     20  C   UNL     1       2.110   0.657  -1.236  0.00  0.00    +0.059 C 
ATOM     21  C   UNL     1       2.869   1.593  -2.155  0.00  0.00    -0.025 A 
ATOM     22  C   UNL     1       2.786   1.806  -3.516  0.00  0.00    +0.005 A 
ATOM     23  C   UNL     1       3.603   2.743  -4.122  0.00  0.00    +0.000 A 
ATOM     24  C   UNL     1       4.502   3.467  -3.361  0.00  0.00    +0.002 A 
ATOM     25  C   UNL     1       4.590   3.257  -2.001  0.00  0.00    +0.023 A 
ATOM     26  C   UNL     1       3.773   2.313  -1.383  0.00  0.00    +0.034 A 
ATOM     27  N   UNL     1       3.697   1.931  -0.038  0.00  0.00    -0.319 N 
ENDBRANCH  17  27
ENDBRANCH   1  17
TORSDOF 3
