REMARK  Name = ZINC46056156
REMARK  9 active torsions:
REMARK  status: ('A' for Active; 'I' for Inactive)
REMARK    1  A    between atoms: C_1  and  C_2
REMARK    2  A    between atoms: C_2  and  C_3
REMARK    3  A    between atoms: C_10  and  C_35
REMARK    4  A    between atoms: C_11  and  S_15
REMARK    5  A    between atoms: S_15  and  N_18
REMARK    6  A    between atoms: N_18  and  C_19
REMARK    7  A    between atoms: N_18  and  C_20
REMARK    8  A    between atoms: C_20  and  C_21
REMARK    9  A    between atoms: N_26  and  C_29
REMARK                            x       y       z     vdW  Elec       q    Type
REMARK                         _______ _______ _______ _____ _____    ______ ____
ROOT
ATOM      1  S   UNL     1      -4.544  -0.521   4.153  0.00  0.00    +0.061 S 
ATOM      2  O   UNL     1      -4.468  -1.636   5.031  0.00  0.00    -0.153 OA
ATOM      3  O   UNL     1      -4.466   0.820   4.616  0.00  0.00    -0.153 OA
ENDROOT
BRANCH   1  11
ATOM      4  C   UNL     1      -0.311   1.259  -0.161  0.00  0.00    +0.259 C 
ATOM      5  C   UNL     1       0.299  -0.093  -0.436  0.00  0.00    +0.258 C 
ATOM      6  O   UNL     1       1.250  -0.191  -1.181  0.00  0.00    -0.271 OA
ATOM      7  N   UNL     1      -0.218  -1.192   0.151  0.00  0.00    -0.280 N 
ATOM      8  C   UNL     1      -1.234  -1.045   1.105  0.00  0.00    +0.076 A 
ATOM      9  C   UNL     1      -1.941  -2.147   1.558  0.00  0.00    +0.032 A 
ATOM     10  C   UNL     1      -2.949  -1.983   2.490  0.00  0.00    -0.022 A 
ATOM     11  C   UNL     1      -3.253  -0.722   2.971  0.00  0.00    +0.112 A 
ATOM     12  C   UNL     1      -2.547   0.381   2.527  0.00  0.00    +0.076 A 
ATOM     13  C   UNL     1      -1.533   0.224   1.598  0.00  0.00    +0.145 A 
ATOM     14  O   UNL     1      -0.811   1.296   1.177  0.00  0.00    -0.478 OA
ATOM     15  C   UNL     1      -3.719  -3.181   2.983  0.00  0.00    +0.046 C 
ATOM     16  H   UNL     1       0.109  -2.075  -0.085  0.00  0.00    +0.155 HD
BRANCH   4  18
ATOM     17  C   UNL     1      -1.996   2.928  -0.947  0.00  0.00    +0.008 C 
ATOM     18  C   UNL     1      -1.460   1.508  -1.141  0.00  0.00    +0.051 C 
ENDBRANCH   4  18
ENDBRANCH   1  11
BRANCH   1  19
ATOM     19  N   UNL     1      -5.980  -0.658   3.338  0.00  0.00    -0.171 NA
ATOM     20  C   UNL     1      -6.841  -1.821   3.562  0.00  0.00    +0.132 C 
BRANCH  19  21
ATOM     21  C   UNL     1      -6.388   0.385   2.393  0.00  0.00    +0.205 C 
BRANCH  21  22
ATOM     22  C   UNL     1      -5.972  -0.010   1.000  0.00  0.00    +0.231 C 
ATOM     23  O   UNL     1      -5.393  -1.059   0.814  0.00  0.00    -0.274 OA
ATOM     24  N   UNL     1      -6.245   0.803  -0.041  0.00  0.00    -0.304 N 
ATOM     25  C   UNL     1      -6.942   2.083   0.162  0.00  0.00    +0.089 C 
ATOM     26  C   UNL     1      -6.142   3.187  -0.537  0.00  0.00    -0.059 C 
ATOM     27  N   UNL     1      -5.937   2.825  -1.945  0.00  0.00    +0.384 N 
ATOM     28  C   UNL     1      -5.106   1.618  -2.035  0.00  0.00    -0.059 C 
ATOM     29  C   UNL     1      -5.849   0.438  -1.410  0.00  0.00    +0.089 C 
ATOM     30  H   UNL     1      -6.831   2.649  -2.380  0.00  0.00    -0.081 HD
BRANCH  27  31
ATOM     31  C   UNL     1      -5.268   3.931  -2.641  0.00  0.00    -0.068 C 
ATOM     32  C   UNL     1      -6.137   5.187  -2.558  0.00  0.00    -0.015 C 
ATOM     33  C   UNL     1      -5.440   6.340  -3.283  0.00  0.00    -0.002 C 
ATOM     34  C   UNL     1      -5.226   5.964  -4.751  0.00  0.00    -0.000 C 
ATOM     35  C   UNL     1      -4.356   4.708  -4.834  0.00  0.00    -0.002 C 
ATOM     36  C   UNL     1      -5.053   3.556  -4.109  0.00  0.00    -0.015 C 
ENDBRANCH  27  31
ENDBRANCH  21  22
ENDBRANCH  19  21
ENDBRANCH   1  19
TORSDOF 6
