REMARK  Name = ZINC37422720
REMARK  15 active torsions:
REMARK  status: ('A' for Active; 'I' for Inactive)
REMARK    1  A    between atoms: C_1  and  C_2
REMARK    2  A    between atoms: C_2  and  C_41
REMARK    3  A    between atoms: C_7  and  C_23
REMARK    4  A    between atoms: C_7  and  O_31
REMARK    5  A    between atoms: C_9  and  O_14
REMARK    6  A    between atoms: O_14  and  C_15
REMARK    7  A    between atoms: C_15  and  C_16
REMARK    8  A    between atoms: N_25  and  C_26
REMARK    9  A    between atoms: C_26  and  C_27
REMARK   10  A    between atoms: C_27  and  N_28
REMARK   11  A    between atoms: N_28  and  C_29
REMARK   12  A    between atoms: N_28  and  C_30
REMARK   13  A    between atoms: O_31  and  C_32
REMARK   14  A    between atoms: C_32  and  C_33
REMARK   15  A    between atoms: C_38  and  C_39
REMARK                            x       y       z     vdW  Elec       q    Type
REMARK                         _______ _______ _______ _____ _____    ______ ____
ROOT
ATOM      1  C   UNL     1      -0.359   2.219   0.577  0.00  0.00    +0.074 C 
ATOM      2  C   UNL     1      -0.191   0.720   0.319  0.00  0.00    +0.165 C 
ATOM      3  O   UNL     1      -1.480   0.090   0.280  0.00  0.00    -0.343 OA
ATOM      4  C   UNL     1      -1.512  -0.871   1.370  0.00  0.00    +0.156 C 
ATOM      5  C   UNL     1      -2.096  -0.131   2.576  0.00  0.00    +0.079 C 
ATOM      6  C   UNL     1      -1.806  -0.885   3.870  0.00  0.00    +0.150 C 
ATOM      7  C   UNL     1      -0.286  -0.953   4.064  0.00  0.00    +0.079 C 
ATOM      8  C   UNL     1       0.306  -1.769   2.916  0.00  0.00    +0.153 C 
ATOM      9  C   UNL     1      -0.014  -1.166   1.565  0.00  0.00    +0.179 C 
ATOM     10  O   UNL     1       0.583   0.129   1.382  0.00  0.00    -0.341 OA
ATOM     11  C   UNL     1       0.523   0.505  -1.017  0.00  0.00    +0.074 C 
ENDROOT
BRANCH   6  12
ATOM     12  C   UNL     1      -2.367  -2.281   3.780  0.00  0.00    +0.245 C 
ATOM     13  O   UNL     1      -2.548  -2.792   2.695  0.00  0.00    -0.273 OA
ATOM     14  N   UNL     1      -2.668  -2.961   4.904  0.00  0.00    -0.315 N 
ATOM     15  H   UNL     1      -2.587  -2.528   5.769  0.00  0.00    +0.149 HD
BRANCH  14  16
ATOM     16  C   UNL     1      -3.116  -4.353   4.821  0.00  0.00    +0.086 C 
BRANCH  16  17
ATOM     17  C   UNL     1      -3.389  -4.886   6.229  0.00  0.00    -0.061 C 
BRANCH  17  18
ATOM     18  N   UNL     1      -3.839  -6.282   6.145  0.00  0.00    +0.377 N 
ATOM     19  C   UNL     1      -2.751  -7.116   5.618  0.00  0.00    -0.097 C 
ATOM     20  C   UNL     1      -4.215  -6.756   7.483  0.00  0.00    -0.097 C 
ATOM     21  H   UNL     1      -4.637  -6.342   5.530  0.00  0.00    -0.083 HD
ENDBRANCH  17  18
ENDBRANCH  16  17
ENDBRANCH  14  16
ENDBRANCH   6  12
BRANCH   8  22
ATOM     22  O   UNL     1       1.725  -1.834   3.073  0.00  0.00    -0.369 OA
BRANCH  22  23
ATOM     23  C   UNL     1       2.174  -2.949   3.845  0.00  0.00    +0.195 C 
BRANCH  23  24
ATOM     24  C   UNL     1       3.677  -2.918   3.946  0.00  0.00    -0.022 A 
ATOM     25  C   UNL     1       4.447  -3.557   2.991  0.00  0.00    +0.009 A 
ATOM     26  C   UNL     1       5.825  -3.529   3.082  0.00  0.00    +0.038 A 
ATOM     27  C   UNL     1       6.436  -2.860   4.129  0.00  0.00    +0.123 A 
ATOM     28  C   UNL     1       5.664  -2.220   5.085  0.00  0.00    +0.038 A 
ATOM     29  C   UNL     1       4.286  -2.245   4.989  0.00  0.00    +0.009 A 
ATOM     30  F   UNL     1       7.784  -2.832   4.219  0.00  0.00    -0.205 F 
ENDBRANCH  23  24
ENDBRANCH  22  23
ENDBRANCH   8  22
BRANCH   6  31
ATOM     31  O   UNL     1      -2.400  -0.195   4.972  0.00  0.00    -0.359 OA
BRANCH  31  32
ATOM     32  C   UNL     1      -1.972   1.161   5.107  0.00  0.00    +0.197 C 
BRANCH  32  33
ATOM     33  C   UNL     1      -2.719   1.813   6.242  0.00  0.00    -0.005 A 
ATOM     34  C   UNL     1      -3.646   1.091   6.964  0.00  0.00    +0.007 A 
ATOM     35  C   UNL     1      -4.333   1.687   8.007  0.00  0.00    +0.000 A 
ATOM     36  C   UNL     1      -4.096   3.011   8.332  0.00  0.00    +0.001 A 
ATOM     37  C   UNL     1      -3.172   3.745   7.618  0.00  0.00    +0.019 A 
ATOM     38  C   UNL     1      -2.470   3.147   6.569  0.00  0.00    +0.057 A 
BRANCH  38  39
ATOM     39  C   UNL     1      -1.504   3.901   5.827  0.00  0.00    +0.100 C 
ATOM     40  N   UNL     1      -0.739   4.499   5.239  0.00  0.00    -0.191 NA
ENDBRANCH  38  39
ENDBRANCH  32  33
ENDBRANCH  31  32
ENDBRANCH   6  31
TORSDOF 11
