REMARK  Name = ZINC38118250
REMARK  9 active torsions:
REMARK  status: ('A' for Active; 'I' for Inactive)
REMARK    1  A    between atoms: C_1  and  C_2
REMARK    2  A    between atoms: C_2  and  C_3
REMARK    3  A    between atoms: C_2  and  C_12
REMARK    4  A    between atoms: C_2  and  N_14
REMARK    5  A    between atoms: C_3  and  C_4
REMARK    6  A    between atoms: C_4  and  C_5
REMARK    7  A    between atoms: C_8  and  O_11
REMARK    8  A    between atoms: C_12  and  O_13
REMARK    9  A    between atoms: N_14  and  C_15
REMARK                            x       y       z     vdW  Elec       q    Type
REMARK                         _______ _______ _______ _____ _____    ______ ____
ROOT
ATOM      1  C   UNL     1       0.027   1.478  -0.151  0.00  0.00    +0.034 C 
ATOM      2  C   UNL     1      -0.095  -0.047  -0.125  0.00  0.00    +0.053 C 
ENDROOT
BRANCH   2   3
ATOM      3  N   UNL     1       0.505  -0.606  -1.339  0.00  0.00    -0.336 N 
ATOM      4  H   UNL     1      -0.009  -1.206  -1.902  0.00  0.00    +0.147 HD
BRANCH   3   5
ATOM      5  C   UNL     1       1.817  -0.274  -1.687  0.00  0.00    +0.029 A 
ATOM      6  C   UNL     1       2.603   0.464  -0.811  0.00  0.00    +0.023 A 
ATOM      7  C   UNL     1       3.899   0.791  -1.157  0.00  0.00    +0.003 A 
ATOM      8  C   UNL     1       4.415   0.385  -2.374  0.00  0.00    +0.015 A 
ATOM      9  C   UNL     1       3.635  -0.349  -3.249  0.00  0.00    +0.020 A 
ATOM     10  C   UNL     1       2.339  -0.685  -2.906  0.00  0.00    +0.038 A 
ATOM     11 BR   UNL     1       4.345  -0.902  -4.912  0.00  0.00    -0.050 Br
ENDBRANCH   3   5
ENDBRANCH   2   3
BRANCH   2  12
ATOM     12  C   UNL     1       0.633  -0.596   1.103  0.00  0.00    +0.032 C 
BRANCH  12  13
ATOM     13  C   UNL     1      -0.041  -0.072   2.373  0.00  0.00    +0.037 C 
BRANCH  13  14
ATOM     14  C   UNL     1       0.677  -0.613   3.582  0.00  0.00    -0.047 A 
ATOM     15  C   UNL     1       0.281  -1.815   4.139  0.00  0.00    +0.007 A 
ATOM     16  C   UNL     1       0.937  -2.313   5.248  0.00  0.00    +0.045 A 
ATOM     17  C   UNL     1       1.994  -1.606   5.803  0.00  0.00    +0.117 A 
ATOM     18  C   UNL     1       2.389  -0.400   5.242  0.00  0.00    +0.045 A 
ATOM     19  C   UNL     1       1.734   0.091   4.130  0.00  0.00    +0.007 A 
BRANCH  17  20
ATOM     20  O   UNL     1       2.640  -2.093   6.895  0.00  0.00    -0.507 OA
ATOM     21  H   UNL     1       3.392  -2.665   6.684  0.00  0.00    +0.292 HD
ENDBRANCH  17  20
ENDBRANCH  13  14
ENDBRANCH  12  13
ENDBRANCH   2  12
BRANCH   2  22
ATOM     22  C   UNL     1      -1.573  -0.439  -0.059  0.00  0.00    +0.181 C 
BRANCH  22  23
ATOM     23  O   UNL     1      -1.686  -1.863  -0.022  0.00  0.00    -0.393 OA
ATOM     24  H   UNL     1      -2.597  -2.184   0.021  0.00  0.00    +0.209 HD
ENDBRANCH  22  23
ENDBRANCH   2  22
TORSDOF 8
