REMARK  Name = ZINC15062075
REMARK  8 active torsions:
REMARK  status: ('A' for Active; 'I' for Inactive)
REMARK    1  A    between atoms: C_4  and  C_7
REMARK    2  A    between atoms: C_9  and  C_12
REMARK    3  A    between atoms: C_12  and  N_13
REMARK    4  A    between atoms: N_13  and  C_14
REMARK    5  A    between atoms: C_14  and  C_15
REMARK    6  A    between atoms: C_15  and  O_29
REMARK    7  A    between atoms: N_19  and  C_22
REMARK    8  A    between atoms: C_22  and  C_23
REMARK                            x       y       z     vdW  Elec       q    Type
REMARK                         _______ _______ _______ _____ _____    ______ ____
ROOT
ATOM      1  C   UNL     1       3.056  -3.614  -1.705  0.00  0.00    -0.037 C 
ENDROOT
BRANCH   1   2
ATOM      2  C   UNL     1       3.171  -4.010  -3.179  0.00  0.00    +0.127 C 
ATOM      3  C   UNL     1       3.344  -5.527  -3.287  0.00  0.00    +0.044 C 
ATOM      4  C   UNL     1       3.181  -5.930  -4.757  0.00  0.00    +0.022 C 
ATOM      5  C   UNL     1       1.729  -5.692  -5.172  0.00  0.00    +0.108 C 
ATOM      6  N   UNL     1       1.310  -4.343  -4.812  0.00  0.00    -0.299 N 
ATOM      7  C   UNL     1       1.929  -3.585  -3.908  0.00  0.00    +0.245 C 
ATOM      8  O   UNL     1       1.463  -2.493  -3.661  0.00  0.00    -0.273 OA
BRANCH   2   9
ATOM      9  O   UNL     1       4.306  -3.360  -3.757  0.00  0.00    -0.381 OA
ATOM     10  H   UNL     1       4.552  -3.524  -4.816  0.00  0.00    +0.211 HD
ENDBRANCH   2   9
BRANCH   6  11
ATOM     11  C   UNL     1       0.135  -3.786  -5.487  0.00  0.00    +0.111 C 
BRANCH  11  12
ATOM     12  C   UNL     1      -1.134  -4.251  -4.768  0.00  0.00    +0.006 C 
ATOM     13  C   UNL     1      -2.363  -3.785  -5.551  0.00  0.00    +0.005 C 
ATOM     14  C   UNL     1      -3.631  -4.250  -4.832  0.00  0.00    +0.000 C 
ATOM     15  C   UNL     1      -3.667  -3.653  -3.424  0.00  0.00    +0.000 C 
ATOM     16  C   UNL     1      -2.438  -4.119  -2.641  0.00  0.00    +0.000 C 
ATOM     17  C   UNL     1      -1.169  -3.654  -3.360  0.00  0.00    +0.005 C 
ENDBRANCH  11  12
ENDBRANCH   6  11
ENDBRANCH   1   2
BRANCH   1  18
ATOM     18  N   UNL     1       4.235  -4.099  -0.975  0.00  0.00    +0.386 N 
ATOM     19  H   UNL     1       5.139  -3.713  -1.469  0.00  0.00    -0.085 HD
ATOM     20  H   UNL     1       4.241  -5.199  -1.005  0.00  0.00    -0.085 HD
BRANCH  18  21
ATOM     21  C   UNL     1       4.210  -3.648   0.423  0.00  0.00    -0.003 C 
BRANCH  21  24
ATOM     22  C   UNL     1       7.416  -4.343   2.017  0.00  0.00    +0.156 A 
ATOM     23  N   UNL     1       6.602  -3.492   1.320  0.00  0.00    -0.213 NA
ATOM     24  C   UNL     1       5.432  -4.163   1.139  0.00  0.00    +0.135 A 
ATOM     25  N   UNL     1       5.565  -5.338   1.694  0.00  0.00    -0.159 NA
ATOM     26  N   UNL     1       6.733  -5.448   2.220  0.00  0.00    -0.259 N 
ATOM     27  H   UNL     1       7.017  -6.374   2.740  0.00  0.00    +0.191 HD
BRANCH  22  31
ATOM     28  C   UNL     1      11.394  -3.563   3.288  0.00  0.00    +0.000 A 
ATOM     29  C   UNL     1      10.802  -4.778   3.585  0.00  0.00    +0.001 A 
ATOM     30  C   UNL     1       9.510  -5.037   3.175  0.00  0.00    +0.011 A 
ATOM     31  C   UNL     1       8.801  -4.071   2.460  0.00  0.00    +0.019 A 
ATOM     32  C   UNL     1       9.406  -2.851   2.159  0.00  0.00    +0.011 A 
ATOM     33  C   UNL     1      10.696  -2.601   2.580  0.00  0.00    +0.001 A 
ENDBRANCH  22  31
ENDBRANCH  21  24
ENDBRANCH  18  21
ENDBRANCH   1  18
TORSDOF 8
