REMARK  Name = ZINC58202381
REMARK  3 active torsions:
REMARK  status: ('A' for Active; 'I' for Inactive)
REMARK    1  A    between atoms: C_4  and  C_7
REMARK    2  A    between atoms: C_16  and  C_19
REMARK    3  A    between atoms: N_21  and  C_22
REMARK                            x       y       z     vdW  Elec       q    Type
REMARK                         _______ _______ _______ _____ _____    ______ ____
ROOT
ATOM      1  C   UNL     1       3.712  -0.707  -0.049  0.00  0.00    -0.003 C 
ATOM      2  C   UNL     1       4.488  -0.326  -1.311  0.00  0.00    +0.015 C 
ATOM      3  C   UNL     1       5.823  -1.073  -1.333  0.00  0.00    -0.009 C 
ATOM      4  C   UNL     1       6.641  -0.693  -0.098  0.00  0.00    +0.007 C 
ATOM      5  C   UNL     1       5.865  -1.074   1.165  0.00  0.00    -0.009 C 
ATOM      6  C   UNL     1       4.529  -0.327   1.187  0.00  0.00    +0.015 C 
ATOM      7  C   UNL     1       5.605  -2.581   1.169  0.00  0.00    +0.019 C 
ATOM      8  C   UNL     1       4.787  -2.962  -0.067  0.00  0.00    +0.049 C 
ATOM      9  C   UNL     1       5.564  -2.581  -1.329  0.00  0.00    +0.019 C 
ATOM     10  C   UNL     1       3.452  -2.215  -0.045  0.00  0.00    +0.027 C 
ENDROOT
BRANCH   1  14
ATOM     11  C   UNL     1      -0.016   1.379   0.011  0.00  0.00    +0.000 A 
ATOM     12  C   UNL     1       1.172   2.086  -0.007  0.00  0.00    +0.000 A 
ATOM     13  C   UNL     1       2.378   1.411  -0.026  0.00  0.00    +0.004 A 
ATOM     14  C   UNL     1       2.397   0.029  -0.027  0.00  0.00    -0.041 A 
ATOM     15  C   UNL     1       1.209  -0.678  -0.008  0.00  0.00    +0.004 A 
ATOM     16  C   UNL     1       0.003  -0.003   0.010  0.00  0.00    +0.000 A 
ENDBRANCH   1  14
BRANCH   8  17
ATOM     17  C   UNL     1       4.532  -4.447  -0.063  0.00  0.00    +0.223 C 
ATOM     18  O   UNL     1       3.394  -4.867  -0.044  0.00  0.00    -0.275 OA
ATOM     19  N   UNL     1       5.568  -5.309  -0.080  0.00  0.00    -0.285 N 
ATOM     20  H   UNL     1       6.475  -4.975  -0.163  0.00  0.00    +0.155 HD
BRANCH  19  21
ATOM     21  C   UNL     1       5.335  -6.686   0.021  0.00  0.00    +0.035 A 
ATOM     22  C   UNL     1       6.233  -7.493   0.711  0.00  0.00    +0.025 A 
ATOM     23  C   UNL     1       6.009  -8.851   0.814  0.00  0.00    +0.029 A 
ATOM     24  C   UNL     1       4.885  -9.414   0.229  0.00  0.00    +0.067 A 
ATOM     25  C   UNL     1       3.981  -8.606  -0.464  0.00  0.00    +0.069 A 
ATOM     26  C   UNL     1       4.206  -7.242  -0.561  0.00  0.00    +0.051 A 
ATOM     27  N   UNL     1       2.969  -9.442  -0.931  0.00  0.00    -0.306 N 
ATOM     28  H   UNL     1       2.198  -9.165  -1.450  0.00  0.00    +0.170 HD
ATOM     29  C   UNL     1       3.245 -10.701  -0.541  0.00  0.00    +0.325 A 
ATOM     30  O   UNL     1       2.559 -11.676  -0.786  0.00  0.00    -0.247 OA
ATOM     31  N   UNL     1       4.394 -10.717   0.161  0.00  0.00    -0.306 N 
ATOM     32  H   UNL     1       4.809 -11.502   0.552  0.00  0.00    +0.170 HD
ENDBRANCH  19  21
ENDBRANCH   8  17
TORSDOF 3
