REMARK  Name = ZINC26594989
REMARK  4 active torsions:
REMARK  status: ('A' for Active; 'I' for Inactive)
REMARK    1  A    between atoms: C_1  and  C_2
REMARK    2  A    between atoms: C_11  and  O_13
REMARK    3  A    between atoms: O_13  and  C_14
REMARK    4  A    between atoms: C_14  and  C_15
REMARK                            x       y       z     vdW  Elec       q    Type
REMARK                         _______ _______ _______ _____ _____    ______ ____
ROOT
ATOM      1  C   UNL     1      -8.793   0.010   3.500  0.00  0.00    +0.045 C 
ATOM      2  C   UNL     1      -8.219   0.210   2.121  0.00  0.00    -0.033 A 
ATOM      3  C   UNL     1      -8.967  -0.030   1.013  0.00  0.00    +0.096 A 
ATOM      4  C   UNL     1      -8.407   0.164  -0.266  0.00  0.00    +0.337 A 
ATOM      5  O   UNL     1      -9.088  -0.055  -1.252  0.00  0.00    -0.245 OA
ATOM      6  O   UNL     1      -7.142   0.583  -0.426  0.00  0.00    -0.422 OA
ATOM      7  C   UNL     1      -6.345   0.840   0.633  0.00  0.00    +0.143 A 
ATOM      8  C   UNL     1      -6.840   0.667   1.940  0.00  0.00    +0.022 A 
ATOM      9  C   UNL     1      -6.018   0.932   3.041  0.00  0.00    +0.035 A 
ATOM     10  C   UNL     1      -4.735   1.357   2.844  0.00  0.00    +0.083 A 
ATOM     11  C   UNL     1      -4.240   1.530   1.552  0.00  0.00    +0.143 A 
ATOM     12  C   UNL     1      -5.042   1.278   0.451  0.00  0.00    +0.094 A 
ATOM     13 CL   UNL     1      -3.715   1.685   4.210  0.00  0.00    -0.080 Cl
ENDROOT
BRANCH  11  14
ATOM     14  O   UNL     1      -2.963   1.953   1.371  0.00  0.00    -0.484 OA
BRANCH  14  15
ATOM     15  C   UNL     1      -2.516   2.110   0.023  0.00  0.00    +0.288 C 
BRANCH  15  16
ATOM     16  C   UNL     1      -1.085   2.584   0.020  0.00  0.00    +0.128 A 
ATOM     17  C   UNL     1      -0.021   1.732   0.012  0.00  0.00    +0.124 A 
ATOM     18  S   UNL     1       1.301   2.851   0.005  0.00  0.00    +0.049 S 
ATOM     19  N   UNL     1       0.486   4.203   0.020  0.00  0.00    -0.109 NA
ATOM     20  N   UNL     1      -0.751   3.857   0.030  0.00  0.00    -0.141 NA
ATOM     21 CL   UNL     1       0.002  -0.004   0.002  0.00  0.00    -0.072 Cl
ENDBRANCH  15  16
ENDBRANCH  14  15
ENDBRANCH  11  14
TORSDOF 3
