REMARK  Name = ZINC11190136
REMARK  5 active torsions:
REMARK  status: ('A' for Active; 'I' for Inactive)
REMARK    1  A    between atoms: C_9  and  C_12
REMARK    2  A    between atoms: C_15  and  C_17
REMARK    3  A    between atoms: C_17  and  O_18
REMARK    4  A    between atoms: O_18  and  C_19
REMARK    5  A    between atoms: C_24  and  C_25
REMARK                            x       y       z     vdW  Elec       q    Type
REMARK                         _______ _______ _______ _____ _____    ______ ____
ROOT
ATOM      1  C   UNL     1      -3.602   2.102   0.357  0.00  0.00    +0.002 A 
ATOM      2  C   UNL     1      -3.612   3.457   0.077  0.00  0.00    +0.004 A 
ATOM      3  C   UNL     1      -2.435   4.115  -0.212  0.00  0.00    +0.047 A 
ATOM      4  C   UNL     1      -1.236   3.418  -0.239  0.00  0.00    +0.143 A 
ATOM      5  C   UNL     1      -1.228   2.054   0.035  0.00  0.00    +0.078 A 
ATOM      6  C   UNL     1      -2.412   1.399   0.336  0.00  0.00    +0.027 A 
ATOM      7  N   UNL     1      -0.016   1.343   0.010  0.00  0.00    -0.261 N 
ATOM      8  C   UNL     1       1.234   2.123  -0.014  0.00  0.00    +0.168 C 
ATOM      9  C   UNL     1       1.030   3.297  -0.982  0.00  0.00    +0.276 C 
ATOM     10  O   UNL     1      -0.084   4.074  -0.536  0.00  0.00    -0.476 OA
ATOM     11  C   UNL     1       0.002  -0.004   0.002  0.00  0.00    +0.258 C 
ATOM     12  O   UNL     1      -1.035  -0.625   0.100  0.00  0.00    -0.272 OA
ENDROOT
BRANCH   9  13
ATOM     13  C   UNL     1       2.270   4.153  -1.007  0.00  0.00    +0.253 C 
ATOM     14  O   UNL     1       2.227   5.294  -0.600  0.00  0.00    -0.272 OA
ATOM     15  N   UNL     1       3.426   3.649  -1.482  0.00  0.00    -0.326 N 
ATOM     16  H   UNL     1       3.461   2.736  -1.807  0.00  0.00    +0.145 HD
ATOM     17  H   UNL     1       4.225   4.200  -1.497  0.00  0.00    +0.145 HD
ENDBRANCH   9  13
BRANCH  11  18
ATOM     18  C   UNL     1       1.311  -0.739  -0.128  0.00  0.00    +0.325 C 
BRANCH  18  19
ATOM     19  O   UNL     1       1.062  -2.143  -0.228  0.00  0.00    -0.482 OA
BRANCH  19  20
ATOM     20  C   UNL     1       2.142  -2.953  -0.352  0.00  0.00    +0.133 A 
ATOM     21  C   UNL     1       3.419  -2.412  -0.377  0.00  0.00    +0.048 A 
ATOM     22  C   UNL     1       4.519  -3.238  -0.504  0.00  0.00    +0.023 A 
ATOM     23  C   UNL     1       4.356  -4.611  -0.606  0.00  0.00    +0.042 A 
ATOM     24  C   UNL     1       3.094  -5.165  -0.582  0.00  0.00    +0.036 A 
ATOM     25  C   UNL     1       1.974  -4.341  -0.449  0.00  0.00    +0.079 A 
ATOM     26 CL   UNL     1       5.748  -5.637  -0.765  0.00  0.00    -0.084 Cl
BRANCH  25  27
ATOM     27  C   UNL     1       0.620  -4.928  -0.416  0.00  0.00    +0.245 C 
ATOM     28  O   UNL     1      -0.352  -4.207  -0.305  0.00  0.00    -0.270 OA
ATOM     29  N   UNL     1       0.462  -6.263  -0.510  0.00  0.00    -0.325 N 
ATOM     30  H   UNL     1       1.238  -6.838  -0.598  0.00  0.00    +0.145 HD
ATOM     31  H   UNL     1      -0.427  -6.649  -0.489  0.00  0.00    +0.145 HD
ENDBRANCH  25  27
ENDBRANCH  19  20
ENDBRANCH  18  19
ENDBRANCH  11  18
TORSDOF 5
