REMARK  Name = ZINC63908224
REMARK  8 active torsions:
REMARK  status: ('A' for Active; 'I' for Inactive)
REMARK    1  A    between atoms: C_4  and  C_7
REMARK    2  A    between atoms: C_7  and  N_8
REMARK    3  A    between atoms: C_9  and  N_38
REMARK    4  A    between atoms: C_11  and  N_18
REMARK    5  A    between atoms: N_18  and  C_19
REMARK    6  A    between atoms: C_19  and  C_20
REMARK    7  A    between atoms: C_26  and  C_28
REMARK    8  A    between atoms: C_28  and  C_29
REMARK                            x       y       z     vdW  Elec       q    Type
REMARK                         _______ _______ _______ _____ _____    ______ ____
ROOT
ATOM      1  N   UNL     1       2.983   0.768   3.545  0.00  0.00    -0.282 N 
ATOM      2  C   UNL     1       1.752   0.582   3.028  0.00  0.00    +0.221 C 
ATOM      3  O   UNL     1       0.975   1.511   2.963  0.00  0.00    -0.275 OA
ENDROOT
BRANCH   1   6
ATOM      4  N   UNL     1       5.065   0.217   5.634  0.00  0.00    -0.262 N 
ATOM      5  C   UNL     1       4.237  -0.786   4.959  0.00  0.00    +0.173 C 
ATOM      6  C   UNL     1       3.958  -0.326   3.526  0.00  0.00    +0.199 C 
ATOM      7  C   UNL     1       5.242   0.155   2.899  0.00  0.00    +0.264 C 
ATOM      8  O   UNL     1       5.444  -0.014   1.582  0.00  0.00    -0.271 OA
ATOM      9  N   UNL     1       6.157   0.732   3.625  0.00  0.00    -0.126 NA
ATOM     10  C   UNL     1       6.006   0.891   4.950  0.00  0.00    +0.330 C 
ATOM     11  O   UNL     1       6.739   1.659   5.545  0.00  0.00    -0.250 OA
BRANCH   5  12
ATOM     12  N   UNL     1       2.967  -0.942   5.682  0.00  0.00    -0.311 NA
ATOM     13  H   UNL     1       3.127  -1.241   6.632  0.00  0.00    +0.120 HD
ATOM     14  H   UNL     1       2.430  -0.088   5.657  0.00  0.00    +0.120 HD
ENDBRANCH   5  12
BRANCH   4  15
ATOM     15  C   UNL     1       4.863   0.490   7.059  0.00  0.00    +0.146 C 
BRANCH  15  19
ATOM     16  C   UNL     1       2.136   3.745   7.515  0.00  0.00    +0.000 A 
ATOM     17  C   UNL     1       1.677   2.444   7.590  0.00  0.00    +0.000 A 
ATOM     18  C   UNL     1       2.559   1.390   7.442  0.00  0.00    +0.005 A 
ATOM     19  C   UNL     1       3.901   1.638   7.219  0.00  0.00    -0.030 A 
ATOM     20  C   UNL     1       4.360   2.940   7.144  0.00  0.00    +0.005 A 
ATOM     21  C   UNL     1       3.477   3.994   7.293  0.00  0.00    +0.000 A 
ENDBRANCH  15  19
ENDBRANCH   4  15
ENDBRANCH   1   6
BRANCH   1  22
ATOM     22  C   UNL     1       3.346   2.063   4.125  0.00  0.00    +0.143 C 
BRANCH  22  23
ATOM     23  C   UNL     1       3.769   3.005   3.027  0.00  0.00    -0.030 A 
ATOM     24  C   UNL     1       5.110   3.170   2.738  0.00  0.00    +0.005 A 
ATOM     25  C   UNL     1       5.499   4.034   1.731  0.00  0.00    +0.000 A 
ATOM     26  C   UNL     1       4.545   4.732   1.013  0.00  0.00    +0.000 A 
ATOM     27  C   UNL     1       3.204   4.565   1.302  0.00  0.00    +0.000 A 
ATOM     28  C   UNL     1       2.815   3.698   2.306  0.00  0.00    +0.005 A 
ENDBRANCH  22  23
ENDBRANCH   1  22
BRANCH   2  29
ATOM     29  C   UNL     1       1.341  -0.780   2.530  0.00  0.00    +0.129 C 
BRANCH  29  30
ATOM     30  C   UNL     1      -0.025  -0.693   1.900  0.00  0.00    -0.033 C 
ATOM     31  C   UNL     1      -0.306  -0.528   0.587  0.00  0.00    -0.001 A 
ATOM     32  C   UNL     1       0.544  -0.384  -0.601  0.00  0.00    +0.010 A 
ATOM     33  C   UNL     1      -0.041  -0.229  -1.811  0.00  0.00    +0.001 A 
ATOM     34  C   UNL     1      -1.434  -0.203  -1.958  0.00  0.00    +0.002 A 
ATOM     35  C   UNL     1      -2.280  -0.329  -0.913  0.00  0.00    +0.026 A 
ATOM     36  C   UNL     1      -1.774  -0.498   0.405  0.00  0.00    +0.043 A 
ATOM     37  N   UNL     1      -2.378  -0.638   1.560  0.00  0.00    -0.380 N 
ATOM     38  C   UNL     1      -1.359  -0.780   2.606  0.00  0.00    +0.145 C 
ATOM     39  H   UNL     1      -3.338  -0.651   1.699  0.00  0.00    +0.160 HD
ENDBRANCH  29  30
ENDBRANCH   2  29
TORSDOF 8
