REMARK  Name = ZINC04163405
REMARK  3 active torsions:
REMARK  status: ('A' for Active; 'I' for Inactive)
REMARK    1  A    between atoms: C_5  and  C_7
REMARK    2  A    between atoms: C_10  and  C_20
REMARK    3  A    between atoms: C_10  and  O_24
REMARK                            x       y       z     vdW  Elec       q    Type
REMARK                         _______ _______ _______ _____ _____    ______ ____
ROOT
ATOM      1  C   UNL     1       2.425   3.873  -0.053  0.00  0.00    +0.270 C 
ATOM      2  O   UNL     1       2.376   5.085  -0.131  0.00  0.00    -0.268 OA
ATOM      3  N   UNL     1       3.615   3.252   0.063  0.00  0.00    -0.148 N 
ATOM      4  C   UNL     1       4.921   3.917   0.190  0.00  0.00    +0.259 C 
ATOM      5  C   UNL     1       5.919   2.734   0.109  0.00  0.00    +0.096 C 
ATOM      6  C   UNL     1       6.646   2.879  -1.228  0.00  0.00    +0.014 C 
ATOM      7  C   UNL     1       7.665   1.795  -1.437  0.00  0.00    +0.001 C 
ATOM      8  C   UNL     1       7.054   0.435  -1.634  0.00  0.00    +0.000 C 
ATOM      9  C   UNL     1       6.749  -0.301  -0.372  0.00  0.00    +0.006 C 
ATOM     10  C   UNL     1       5.444   0.071   0.282  0.00  0.00    +0.053 C 
ATOM     11  C   UNL     1       5.048   1.512   0.150  0.00  0.00    +0.045 C 
ATOM     12  N   UNL     1       3.817   1.879   0.077  0.00  0.00    -0.183 NA
ENDROOT
BRANCH   1  17
ATOM     13  C   UNL     1       0.069   0.950  -0.159  0.00  0.00    +0.001 A 
ATOM     14  C   UNL     1      -1.157   1.592  -0.152  0.00  0.00    +0.001 A 
ATOM     15  C   UNL     1      -1.222   2.972  -0.104  0.00  0.00    +0.016 A 
ATOM     16  C   UNL     1      -0.062   3.721  -0.073  0.00  0.00    +0.030 A 
ATOM     17  C   UNL     1       1.179   3.079  -0.086  0.00  0.00    +0.053 A 
ATOM     18  C   UNL     1       1.236   1.685  -0.129  0.00  0.00    +0.014 A 
ATOM     19 BR   UNL     1      -0.153   5.609  -0.015  0.00  0.00    -0.050 Br
ENDBRANCH   1  17
BRANCH   4  20
ATOM     20  C   UNL     1       5.145   4.897  -0.963  0.00  0.00    +0.438 C 
ATOM     21  F   UNL     1       4.238   5.956  -0.858  0.00  0.00    -0.166 F 
ATOM     22  F   UNL     1       6.452   5.394  -0.905  0.00  0.00    -0.166 F 
ATOM     23  F   UNL     1       4.952   4.236  -2.181  0.00  0.00    -0.166 F 
ENDBRANCH   4  20
BRANCH   4  24
ATOM     24  O   UNL     1       5.030   4.582   1.450  0.00  0.00    -0.363 OA
ATOM     25  H   UNL     1       4.375   5.280   1.584  0.00  0.00    +0.212 HD
ENDBRANCH   4  24
TORSDOF 3
