REMARK  Name = ZINC09963739
REMARK  4 active torsions:
REMARK  status: ('A' for Active; 'I' for Inactive)
REMARK    1  A    between atoms: C_4  and  C_7
REMARK    2  A    between atoms: C_15  and  C_18
REMARK    3  A    between atoms: C_18  and  S_19
REMARK    4  A    between atoms: S_19  and  C_20
REMARK                            x       y       z     vdW  Elec       q    Type
REMARK                         _______ _______ _______ _____ _____    ______ ____
ROOT
ATOM      1  C   UNL     1      -2.363   1.315   0.389  0.00  0.00    +0.340 C 
ATOM      2  O   UNL     1      -2.369   0.080  -0.338  0.00  0.00    -0.333 OA
ATOM      3  C   UNL     1      -1.288  -0.785   0.019  0.00  0.00    +0.203 C 
ATOM      4  C   UNL     1       0.002  -0.004   0.002  0.00  0.00    +0.021 A 
ATOM      5  C   UNL     1       1.209  -0.677  -0.018  0.00  0.00    +0.024 A 
ATOM      6  C   UNL     1       2.398   0.030  -0.027  0.00  0.00    +0.019 A 
ATOM      7  C   UNL     1       2.381   1.413  -0.017  0.00  0.00    +0.023 A 
ATOM      8  C   UNL     1       1.178   2.090   0.002  0.00  0.00    +0.006 A 
ATOM      9  C   UNL     1      -0.017   1.382   0.010  0.00  0.00    +0.134 A 
ATOM     10  O   UNL     1      -1.197   2.057   0.019  0.00  0.00    -0.459 OA
ATOM     11 BR   UNL     1       4.047  -0.895  -0.054  0.00  0.00    -0.050 Br
ENDROOT
BRANCH   1  15
ATOM     12  C   UNL     1      -5.862   3.566  -0.577  0.00  0.00    +0.000 A 
ATOM     13  C   UNL     1      -5.982   2.310  -0.012  0.00  0.00    +0.000 A 
ATOM     14  C   UNL     1      -4.850   1.582   0.301  0.00  0.00    +0.010 A 
ATOM     15  C   UNL     1      -3.597   2.109   0.048  0.00  0.00    +0.020 A 
ATOM     16  C   UNL     1      -3.477   3.367  -0.511  0.00  0.00    +0.010 A 
ATOM     17  C   UNL     1      -4.609   4.094  -0.828  0.00  0.00    +0.000 A 
ENDBRANCH   1  15
BRANCH   8  18
ATOM     18  C   UNL     1       1.160   3.597   0.014  0.00  0.00    +0.116 C 
BRANCH  18  19
ATOM     19  S   UNL     1       1.172   4.188   1.729  0.00  0.00    -0.081 S 
BRANCH  19  20
ATOM     20  C   UNL     1       1.150   5.943   1.574  0.00  0.00    +0.198 A 
ATOM     21  N   UNL     1       1.129   6.618   0.450  0.00  0.00    -0.120 NA
ATOM     22  N   UNL     1       1.117   7.983   0.764  0.00  0.00    -0.110 NA
ATOM     23  C   UNL     1       1.131   8.099   2.073  0.00  0.00    +0.235 A 
ATOM     24  N   UNL     1       1.145   6.842   2.607  0.00  0.00    -0.255 N 
ATOM     25  C   UNL     1       1.152   6.957   3.999  0.00  0.00    +0.075 A 
ATOM     26  C   UNL     1       1.168   6.018   5.019  0.00  0.00    +0.028 A 
ATOM     27  C   UNL     1       1.170   6.431   6.337  0.00  0.00    +0.002 A 
ATOM     28  C   UNL     1       1.156   7.781   6.644  0.00  0.00    +0.002 A 
ATOM     29  C   UNL     1       1.139   8.724   5.637  0.00  0.00    +0.028 A 
ATOM     30  C   UNL     1       1.137   8.318   4.309  0.00  0.00    +0.066 A 
ATOM     31  N   UNL     1       1.132   9.019   3.107  0.00  0.00    -0.322 N 
ATOM     32  H   UNL     1       1.120   9.984   3.011  0.00  0.00    +0.169 HD
ENDBRANCH  19  20
ENDBRANCH  18  19
ENDBRANCH   8  18
TORSDOF 4
