REMARK  Name = ZINC67183676
REMARK  7 active torsions:
REMARK  status: ('A' for Active; 'I' for Inactive)
REMARK    1  A    between atoms: C_4  and  O_22
REMARK    2  A    between atoms: C_5  and  C_7
REMARK    3  A    between atoms: C_7  and  N_8
REMARK    4  A    between atoms: N_8  and  C_9
REMARK    5  A    between atoms: C_9  and  C_10
REMARK    6  A    between atoms: N_12  and  C_13
REMARK    7  A    between atoms: O_22  and  C_23
REMARK                            x       y       z     vdW  Elec       q    Type
REMARK                         _______ _______ _______ _____ _____    ______ ____
ROOT
ATOM      1  N   UNL     1       0.761  -2.370   2.316  0.00  0.00    -0.304 NA
ATOM      2  H   UNL     1       1.463  -1.715   2.627  0.00  0.00    +0.123 HD
ENDROOT
BRANCH   1   3
ATOM      3  C   UNL     1       0.508  -2.228   0.876  0.00  0.00    +0.120 C 
BRANCH   3   8
ATOM      4  C   UNL     1      -1.569   0.834   0.124  0.00  0.00    +0.001 A 
ATOM      5  C   UNL     1      -0.596   1.811   0.014  0.00  0.00    +0.004 A 
ATOM      6  C   UNL     1       0.735   1.484   0.182  0.00  0.00    +0.046 A 
ATOM      7  C   UNL     1       1.097   0.174   0.462  0.00  0.00    +0.125 A 
ATOM      8  C   UNL     1       0.119  -0.804   0.573  0.00  0.00    +0.008 A 
ATOM      9  C   UNL     1      -1.211  -0.472   0.403  0.00  0.00    +0.008 A 
BRANCH   7  10
ATOM     10  O   UNL     1       2.406  -0.150   0.628  0.00  0.00    -0.489 OA
BRANCH  10  11
ATOM     11  C   UNL     1       3.346   0.926   0.631  0.00  0.00    +0.173 C 
ATOM     12  C   UNL     1       3.778   1.255  -0.813  0.00  0.00    +0.044 C 
ATOM     13  C   UNL     1       5.280   1.609  -0.688  0.00  0.00    +0.004 C 
ATOM     14  C   UNL     1       5.782   0.603   0.377  0.00  0.00    +0.004 C 
ATOM     15  C   UNL     1       4.620   0.511   1.387  0.00  0.00    +0.044 C 
ENDBRANCH  10  11
ENDBRANCH   7  10
ENDBRANCH   3   8
ENDBRANCH   1   3
BRANCH   1  16
ATOM     16  C   UNL     1       1.144  -3.749   2.650  0.00  0.00    +0.178 C 
BRANCH  16  17
ATOM     17  C   UNL     1       1.394  -3.856   4.132  0.00  0.00    +0.231 C 
ATOM     18  O   UNL     1       1.266  -2.880   4.841  0.00  0.00    -0.274 OA
ATOM     19  N   UNL     1       1.760  -5.036   4.670  0.00  0.00    -0.282 N 
ATOM     20  H   UNL     1       1.951  -5.793   4.095  0.00  0.00    +0.155 HD
BRANCH  19  21
ATOM     21  C   UNL     1       1.865  -5.169   6.062  0.00  0.00    +0.072 A 
ATOM     22  C   UNL     1       1.219  -4.268   6.897  0.00  0.00    +0.029 A 
ATOM     23  C   UNL     1       1.323  -4.399   8.268  0.00  0.00    +0.043 A 
ATOM     24  C   UNL     1       2.070  -5.430   8.812  0.00  0.00    +0.161 A 
ATOM     25  C   UNL     1       2.717  -6.332   7.982  0.00  0.00    +0.195 A 
ATOM     26  C   UNL     1       2.611  -6.207   6.607  0.00  0.00    +0.182 A 
ATOM     27  F   UNL     1       3.236  -7.089   5.797  0.00  0.00    -0.200 F 
ATOM     28  F   UNL     1       3.447  -7.337   8.515  0.00  0.00    -0.199 F 
ATOM     29  F   UNL     1       2.170  -5.556  10.154  0.00  0.00    -0.202 F 
ENDBRANCH  19  21
ENDBRANCH  16  17
ENDBRANCH   1  16
TORSDOF 7
