REMARK  Name = ZINC14302227
REMARK  10 active torsions:
REMARK  status: ('A' for Active; 'I' for Inactive)
REMARK    1  A    between atoms: C_1  and  C_2
REMARK    2  A    between atoms: C_6  and  O_9
REMARK    3  A    between atoms: C_7  and  C_8
REMARK    4  A    between atoms: O_9  and  C_10
REMARK    5  A    between atoms: C_10  and  C_12
REMARK    6  A    between atoms: C_10  and  C_13
REMARK    7  A    between atoms: N_15  and  N_16
REMARK    8  A    between atoms: C_17  and  C_19
REMARK    9  A    between atoms: C_19  and  C_20
REMARK   10  A    between atoms: C_20  and  C_21
REMARK                            x       y       z     vdW  Elec       q    Type
REMARK                         _______ _______ _______ _____ _____    ______ ____
ROOT
ATOM      1  N   UNL     1       0.009   0.923  -0.273  0.00  0.00    -0.234 N 
ATOM      2  C   UNL     1       1.165   1.609  -0.176  0.00  0.00    +0.229 C 
ATOM      3  O   UNL     1       1.146   2.814  -0.035  0.00  0.00    -0.274 OA
ATOM      4  H   UNL     1       0.025  -0.040  -0.386  0.00  0.00    +0.173 HD
ENDROOT
BRANCH   1   7
ATOM      5  C   UNL     1      -2.371   0.916  -0.319  0.00  0.00    +0.270 C 
ATOM      6  O   UNL     1      -2.351  -0.288  -0.461  0.00  0.00    -0.270 OA
ATOM      7  N   UNL     1      -1.215   1.602  -0.217  0.00  0.00    -0.231 N 
ATOM      8  H   UNL     1      -1.231   2.565  -0.104  0.00  0.00    +0.173 HD
BRANCH   5   9
ATOM      9  C   UNL     1      -3.688   1.646  -0.259  0.00  0.00    +0.257 C 
ATOM     10  C   UNL     1      -3.813   2.575  -1.468  0.00  0.00    +0.062 C 
BRANCH   9  11
ATOM     11  O   UNL     1      -4.758   0.700  -0.272  0.00  0.00    -0.480 OA
BRANCH  11  17
ATOM     12  C   UNL     1      -9.455  -0.233   0.674  0.00  0.00    +0.044 C 
ATOM     13  C   UNL     1      -8.256   0.678   0.729  0.00  0.00    -0.044 A 
ATOM     14  C   UNL     1      -8.365   1.928   1.310  0.00  0.00    +0.004 A 
ATOM     15  C   UNL     1      -7.267   2.767   1.362  0.00  0.00    +0.004 A 
ATOM     16  C   UNL     1      -6.058   2.358   0.832  0.00  0.00    +0.046 A 
ATOM     17  C   UNL     1      -5.946   1.105   0.249  0.00  0.00    +0.125 A 
ATOM     18  C   UNL     1      -7.051   0.267   0.194  0.00  0.00    -0.006 A 
ATOM     19  C   UNL     1      -6.935  -1.093  -0.445  0.00  0.00    +0.048 C 
ENDBRANCH  11  17
ENDBRANCH   9  11
ENDBRANCH   5   9
ENDBRANCH   1   7
BRANCH   2  20
ATOM     20  C   UNL     1       2.482   0.880  -0.243  0.00  0.00    +0.098 C 
BRANCH  20  21
ATOM     21  C   UNL     1       3.629   1.884  -0.109  0.00  0.00    +0.022 C 
BRANCH  21  22
ATOM     22  C   UNL     1       4.960   1.133  -0.051  0.00  0.00    +0.080 C 
ATOM     23  C   UNL     1       5.205   0.428  -1.385  0.00  0.00    +0.049 C 
ATOM     24  C   UNL     1       6.627  -0.069  -1.442  0.00  0.00    -0.025 A 
ATOM     25  C   UNL     1       6.921  -1.240  -2.114  0.00  0.00    +0.005 A 
ATOM     26  C   UNL     1       8.226  -1.692  -2.178  0.00  0.00    +0.000 A 
ATOM     27  C   UNL     1       9.241  -0.973  -1.573  0.00  0.00    +0.002 A 
ATOM     28  C   UNL     1       8.952   0.196  -0.896  0.00  0.00    +0.023 A 
ATOM     29  C   UNL     1       7.640   0.648  -0.823  0.00  0.00    +0.037 A 
ATOM     30  N   UNL     1       7.342   1.812  -0.109  0.00  0.00    -0.285 N 
ATOM     31  C   UNL     1       6.074   2.109   0.221  0.00  0.00    +0.221 C 
ATOM     32  O   UNL     1       5.825   3.174   0.745  0.00  0.00    -0.275 OA
ATOM     33  H   UNL     1       8.059   2.413   0.149  0.00  0.00    +0.155 HD
ENDBRANCH  21  22
ENDBRANCH  20  21
ENDBRANCH   2  20
TORSDOF 7
