REMARK  Name = ZINC00885913
REMARK  9 active torsions:
REMARK  status: ('A' for Active; 'I' for Inactive)
REMARK    1  A    between atoms: C_4  and  C_7
REMARK    2  A    between atoms: C_10  and  C_13
REMARK    3  A    between atoms: N_15  and  C_16
REMARK    4  A    between atoms: N_15  and  C_22
REMARK    5  A    between atoms: C_16  and  C_17
REMARK    6  A    between atoms: C_22  and  C_24
REMARK    7  A    between atoms: C_22  and  C_29
REMARK    8  A    between atoms: N_31  and  C_32
REMARK    9  A    between atoms: C_32  and  C_33
REMARK                            x       y       z     vdW  Elec       q    Type
REMARK                         _______ _______ _______ _____ _____    ______ ____
ROOT
ATOM      1  C   UNL     1       5.103  -3.847  -1.036  0.00  0.00    +0.264 C 
ATOM      2  O   UNL     1       6.180  -3.425  -1.415  0.00  0.00    -0.268 OA
ATOM      3  N   UNL     1       5.049  -4.796  -0.081  0.00  0.00    -0.275 N 
ENDROOT
BRANCH   1   7
ATOM      4  C   UNL     1       1.706  -2.898  -1.960  0.00  0.00    +0.047 A 
ATOM      5  C   UNL     1       2.419  -2.241  -2.940  0.00  0.00    +0.028 A 
ATOM      6  C   UNL     1       3.771  -2.505  -2.728  0.00  0.00    +0.033 A 
ATOM      7  C   UNL     1       3.864  -3.322  -1.618  0.00  0.00    +0.102 A 
ATOM      8  N   UNL     1       2.589  -3.552  -1.152  0.00  0.00    -0.351 N 
ATOM      9  H   UNL     1       2.358  -4.091  -0.379  0.00  0.00    +0.166 HD
BRANCH   4  13
ATOM     10  C   UNL     1      -2.518  -2.878  -1.524  0.00  0.00    +0.000 A 
ATOM     11  C   UNL     1      -1.930  -2.176  -2.561  0.00  0.00    +0.001 A 
ATOM     12  C   UNL     1      -0.558  -2.179  -2.709  0.00  0.00    +0.010 A 
ATOM     13  C   UNL     1       0.236  -2.891  -1.808  0.00  0.00    -0.002 A 
ATOM     14  C   UNL     1      -0.364  -3.597  -0.764  0.00  0.00    +0.010 A 
ATOM     15  C   UNL     1      -1.737  -3.586  -0.629  0.00  0.00    +0.001 A 
ENDBRANCH   4  13
ENDBRANCH   1   7
BRANCH   3  16
ATOM     16  C   UNL     1       3.763  -5.393   0.287  0.00  0.00    +0.151 C 
BRANCH  16  17
ATOM     17  C   UNL     1       3.230  -4.716   1.524  0.00  0.00    +0.007 A 
ATOM     18  C   UNL     1       2.718  -3.469   1.661  0.00  0.00    +0.013 A 
ATOM     19  C   UNL     1       2.284  -3.056   2.907  0.00  0.00    +0.008 A 
ATOM     20  C   UNL     1       2.385  -3.910   3.955  0.00  0.00    +0.045 A 
ATOM     21  S   UNL     1       3.104  -5.352   3.187  0.00  0.00    -0.100 S 
ENDBRANCH  16  17
ENDBRANCH   3  16
BRANCH   3  22
ATOM     22  C   UNL     1       6.277  -5.231   0.590  0.00  0.00    +0.199 C 
BRANCH  22  23
ATOM     23  C   UNL     1       6.448  -6.717   0.410  0.00  0.00    +0.019 A 
ATOM     24  C   UNL     1       7.584  -7.427   0.205  0.00  0.00    +0.013 A 
ATOM     25  C   UNL     1       7.501  -8.800   0.068  0.00  0.00    +0.008 A 
ATOM     26  C   UNL     1       6.286  -9.396   0.142  0.00  0.00    +0.045 A 
ATOM     27  S   UNL     1       5.207  -8.001   0.421  0.00  0.00    -0.099 S 
ENDBRANCH  22  23
BRANCH  22  28
ATOM     28  C   UNL     1       6.188  -4.909   2.059  0.00  0.00    +0.239 C 
ATOM     29  O   UNL     1       5.303  -4.187   2.469  0.00  0.00    -0.273 OA
ATOM     30  N   UNL     1       7.090  -5.423   2.918  0.00  0.00    -0.311 N 
ATOM     31  H   UNL     1       7.797  -6.001   2.590  0.00  0.00    +0.149 HD
BRANCH  30  32
ATOM     32  C   UNL     1       7.003  -5.111   4.346  0.00  0.00    +0.135 C 
BRANCH  32  33
ATOM     33  C   UNL     1       8.138  -5.816   5.093  0.00  0.00    +0.135 C 
ATOM     34  C   UNL     1       7.984  -5.591   6.612  0.00  0.00    +0.035 C 
ATOM     35  C   UNL     1       9.456  -5.388   7.066  0.00  0.00    +0.031 C 
ATOM     36  C   UNL     1      10.047  -4.662   5.831  0.00  0.00    +0.160 C 
ATOM     37  O   UNL     1       9.398  -5.261   4.696  0.00  0.00    -0.375 OA
ENDBRANCH  32  33
ENDBRANCH  30  32
ENDBRANCH  22  28
ENDBRANCH   3  22
TORSDOF 9
