REMARK  Name = ZINC59644610
REMARK  12 active torsions:
REMARK  status: ('A' for Active; 'I' for Inactive)
REMARK    1  A    between atoms: C_1  and  C_2
REMARK    2  A    between atoms: C_2  and  O_3
REMARK    3  A    between atoms: O_3  and  C_4
REMARK    4  A    between atoms: C_4  and  C_6
REMARK    5  A    between atoms: C_6  and  O_7
REMARK    6  A    between atoms: O_7  and  C_8
REMARK    7  A    between atoms: C_9  and  O_27
REMARK    8  A    between atoms: C_11  and  C_15
REMARK    9  A    between atoms: N_16  and  N_17
REMARK   10  A    between atoms: C_18  and  C_20
REMARK   11  A    between atoms: C_20  and  C_21
REMARK   12  A    between atoms: O_27  and  C_28
REMARK                            x       y       z     vdW  Elec       q    Type
REMARK                         _______ _______ _______ _____ _____    ______ ____
ROOT
ATOM      1  C   UNL     1       2.039  -4.447  -3.522  0.00  0.00    +0.177 A 
ATOM      2  C   UNL     1       1.289  -4.794  -4.644  0.00  0.00    +0.163 A 
ATOM      3  C   UNL     1       1.885  -5.471  -5.691  0.00  0.00    +0.059 A 
ATOM      4  C   UNL     1       3.240  -5.807  -5.621  0.00  0.00    -0.001 A 
ATOM      5  C   UNL     1       3.986  -5.457  -4.493  0.00  0.00    +0.028 A 
ATOM      6  C   UNL     1       3.385  -4.776  -3.454  0.00  0.00    +0.064 A 
ATOM      7 BR   UNL     1       4.398  -4.295  -1.931  0.00  0.00    -0.046 Br
ENDROOT
BRANCH   4   8
ATOM      8  C   UNL     1       3.880  -6.530  -6.735  0.00  0.00    +0.138 C 
ATOM      9  N   UNL     1       5.138  -6.841  -6.669  0.00  0.00    -0.188 NA
BRANCH   9  10
ATOM     10  N   UNL     1       5.747  -7.528  -7.727  0.00  0.00    -0.207 N 
ATOM     11  C   UNL     1       7.053  -7.851  -7.658  0.00  0.00    +0.238 C 
ATOM     12  O   UNL     1       7.703  -7.548  -6.680  0.00  0.00    -0.274 OA
ATOM     13  H   UNL     1       5.228  -7.771  -8.510  0.00  0.00    +0.177 HD
BRANCH  11  14
ATOM     14  C   UNL     1       7.708  -8.590  -8.797  0.00  0.00    +0.153 C 
BRANCH  14  15
ATOM     15  C   UNL     1       9.160  -8.828  -8.473  0.00  0.00    +0.059 A 
ATOM     16  C   UNL     1       9.697 -10.071  -8.502  0.00  0.00    +0.072 A 
ATOM     17  S   UNL     1      11.386  -9.716  -8.044  0.00  0.00    -0.061 S 
ATOM     18  C   UNL     1      11.234  -8.049  -7.867  0.00  0.00    +0.156 A 
ATOM     19  N   UNL     1       9.968  -7.832  -8.153  0.00  0.00    -0.230 NA
ATOM     20  N   UNL     1      12.207  -7.128  -7.511  0.00  0.00    -0.338 N 
ATOM     21  H   UNL     1      13.112  -7.425  -7.329  0.00  0.00    +0.144 HD
ATOM     22  H   UNL     1      11.983  -6.187  -7.445  0.00  0.00    +0.144 HD
ENDBRANCH  14  15
ENDBRANCH  11  14
ENDBRANCH   9  10
ENDBRANCH   4   8
BRANCH   2  23
ATOM     23  O   UNL     1      -0.029  -4.466  -4.708  0.00  0.00    -0.491 OA
ATOM     24  C   UNL     1      -0.736  -4.852  -5.888  0.00  0.00    +0.277 C 
ENDBRANCH   2  23
BRANCH   1  25
ATOM     25  O   UNL     1       1.450  -3.781  -2.493  0.00  0.00    -0.476 OA
BRANCH  25  26
ATOM     26  C   UNL     1       1.468  -2.353  -2.550  0.00  0.00    +0.349 C 
BRANCH  26  27
ATOM     27  C   UNL     1       0.775  -1.794  -1.334  0.00  0.00    +0.345 C 
ATOM     28  O   UNL     1       0.314  -2.540  -0.504  0.00  0.00    -0.247 OA
BRANCH  27  29
ATOM     29  O   UNL     1       0.671  -0.465  -1.174  0.00  0.00    -0.463 OA
BRANCH  29  31
ATOM     30  C   UNL     1      -0.019   1.526   0.010  0.00  0.00    +0.048 C 
ATOM     31  C   UNL     1       0.002  -0.004   0.002  0.00  0.00    +0.229 C 
ENDBRANCH  29  31
ENDBRANCH  27  29
ENDBRANCH  26  27
ENDBRANCH  25  26
ENDBRANCH   1  25
TORSDOF 10
