REMARK  Name = ZINC62473715
REMARK  5 active torsions:
REMARK  status: ('A' for Active; 'I' for Inactive)
REMARK    1  A    between atoms: C_1  and  C_2
REMARK    2  A    between atoms: C_2  and  C_3
REMARK    3  A    between atoms: C_2  and  N_10
REMARK    4  A    between atoms: C_16  and  N_19
REMARK    5  A    between atoms: C_20  and  C_22
REMARK                            x       y       z     vdW  Elec       q    Type
REMARK                         _______ _______ _______ _____ _____    ______ ____
ROOT
ATOM      1  N   UNL     1       2.859  -0.410   0.036  0.00  0.00    -0.296 N 
ATOM      2  C   UNL     1       2.284  -0.782  -1.124  0.00  0.00    +0.302 C 
ATOM      3  O   UNL     1       1.119  -0.513  -1.339  0.00  0.00    -0.253 OA
ATOM      4  N   UNL     1       3.002  -1.455  -2.046  0.00  0.00    -0.286 N 
ATOM      5  C   UNL     1       2.428  -1.761  -3.364  0.00  0.00    +0.111 C 
ATOM      6  C   UNL     1       3.380  -1.246  -4.448  0.00  0.00    +0.041 C 
ATOM      7  C   UNL     1       4.774  -1.833  -4.218  0.00  0.00    +0.076 C 
ATOM      8  C   UNL     1       5.303  -1.378  -2.856  0.00  0.00    +0.041 C 
ATOM      9  C   UNL     1       4.375  -1.889  -1.755  0.00  0.00    +0.111 C 
ATOM     10  H   UNL     1       3.808  -0.557   0.177  0.00  0.00    +0.151 HD
ENDROOT
BRANCH   7  11
ATOM     11  N   UNL     1       5.679  -1.369  -5.272  0.00  0.00    -0.312 N 
ATOM     12  C   UNL     1       6.767  -2.096  -5.594  0.00  0.00    +0.216 C 
ATOM     13  O   UNL     1       6.997  -3.135  -5.011  0.00  0.00    -0.276 OA
ATOM     14  H   UNL     1       5.495  -0.539  -5.738  0.00  0.00    +0.149 HD
BRANCH  12  15
ATOM     15  C   UNL     1       7.698  -1.619  -6.679  0.00  0.00    +0.075 C 
ATOM     16  C   UNL     1       6.929  -1.502  -7.996  0.00  0.00    +0.013 C 
ATOM     17  C   UNL     1       7.874  -1.017  -9.098  0.00  0.00    +0.001 C 
ATOM     18  C   UNL     1       9.019  -2.018  -9.264  0.00  0.00    +0.000 C 
ATOM     19  C   UNL     1       9.789  -2.135  -7.946  0.00  0.00    +0.001 C 
ATOM     20  C   UNL     1       8.844  -2.620  -6.845  0.00  0.00    +0.013 C 
ENDBRANCH  12  15
ENDBRANCH   7  11
BRANCH   1  22
ATOM     21  C   UNL     1       1.385  -0.866   1.934  0.00  0.00    +0.028 C 
ATOM     22  C   UNL     1       2.052   0.219   1.085  0.00  0.00    +0.075 C 
BRANCH  22  23
ATOM     23  C   UNL     1       2.952   1.080   1.974  0.00  0.00    +0.012 C 
ATOM     24  C   UNL     1       3.432   2.331   1.203  0.00  0.00    +0.009 C 
ATOM     25  C   UNL     1       2.867   3.536   2.015  0.00  0.00    -0.010 C 
ATOM     26  C   UNL     1       1.328   3.487   1.768  0.00  0.00    +0.004 C 
ATOM     27  C   UNL     1       0.848   2.236   2.539  0.00  0.00    +0.004 C 
ATOM     28  C   UNL     1       2.142   1.647   3.180  0.00  0.00    -0.006 C 
ATOM     29  C   UNL     1       2.944   2.963   3.475  0.00  0.00    +0.007 C 
ENDBRANCH  22  23
ENDBRANCH   1  22
TORSDOF 4
