REMARK  Name = ZINC39490545
REMARK  8 active torsions:
REMARK  status: ('A' for Active; 'I' for Inactive)
REMARK    1  A    between atoms: C_1  and  C_2
REMARK    2  A    between atoms: C_5  and  C_33
REMARK    3  A    between atoms: C_6  and  N_8
REMARK    4  A    between atoms: C_10  and  C_21
REMARK    5  A    between atoms: C_12  and  C_15
REMARK    6  A    between atoms: C_21  and  N_22
REMARK    7  A    between atoms: N_22  and  C_23
REMARK    8  A    between atoms: C_23  and  C_24
REMARK                            x       y       z     vdW  Elec       q    Type
REMARK                         _______ _______ _______ _____ _____    ______ ____
ROOT
ATOM      1  N   UNL     1      -0.264  -3.034   2.216  0.00  0.00    -0.266 N 
ATOM      2  C   UNL     1       0.619  -3.026   3.393  0.00  0.00    +0.127 C 
ATOM      3  C   UNL     1       0.005  -4.051   4.376  0.00  0.00    +0.014 C 
ATOM      4  C   UNL     1      -1.450  -4.145   3.842  0.00  0.00    +0.105 C 
ATOM      5  N   UNL     1      -1.251  -3.971   2.382  0.00  0.00    -0.232 NA
ATOM      6  H   UNL     1      -0.997  -4.845   1.948  0.00  0.00    +0.145 HD
ENDROOT
BRANCH   1  12
ATOM      7  C   UNL     1       1.804  -2.147  -2.153  0.00  0.00    +0.044 C 
ATOM      8  C   UNL     1       0.875  -1.753  -1.034  0.00  0.00    -0.049 A 
ATOM      9  C   UNL     1       0.162  -0.570  -1.113  0.00  0.00    +0.004 A 
ATOM     10  C   UNL     1      -0.692  -0.204  -0.089  0.00  0.00    +0.005 A 
ATOM     11  C   UNL     1      -0.835  -1.019   1.017  0.00  0.00    -0.028 A 
ATOM     12  C   UNL     1      -0.121  -2.208   1.099  0.00  0.00    +0.048 A 
ATOM     13  C   UNL     1       0.732  -2.575   0.066  0.00  0.00    +0.028 A 
ATOM     14  C   UNL     1      -1.765  -0.619   2.133  0.00  0.00    +0.046 C 
ENDBRANCH   1  12
BRANCH   4  15
ATOM     15  C   UNL     1      -2.052  -5.491   4.150  0.00  0.00    -0.029 A 
ATOM     16  C   UNL     1      -1.743  -6.584   3.362  0.00  0.00    +0.005 A 
ATOM     17  C   UNL     1      -2.295  -7.819   3.645  0.00  0.00    +0.000 A 
ATOM     18  C   UNL     1      -3.156  -7.962   4.717  0.00  0.00    +0.000 A 
ATOM     19  C   UNL     1      -3.465  -6.870   5.506  0.00  0.00    +0.000 A 
ATOM     20  C   UNL     1      -2.909  -5.635   5.226  0.00  0.00    +0.005 A 
ENDBRANCH   4  15
BRANCH   3  21
ATOM     21  C   UNL     1       0.716  -5.402   4.279  0.00  0.00    -0.076 C 
BRANCH  21  22
ATOM     22  N   UNL     1       2.099  -5.262   4.753  0.00  0.00    +0.381 N 
ATOM     23  H   UNL     1       2.584  -4.585   4.184  0.00  0.00    -0.086 HD
ATOM     24  H   UNL     1       2.096  -4.953   5.714  0.00  0.00    -0.086 HD
BRANCH  22  25
ATOM     25  C   UNL     1       2.783  -6.559   4.660  0.00  0.00    -0.049 C 
BRANCH  25  26
ATOM     26  C   UNL     1       4.223  -6.414   5.154  0.00  0.00    +0.139 C 
ATOM     27  C   UNL     1       4.899  -7.767   5.244  0.00  0.00    -0.023 C 
ATOM     28  C   UNL     1       5.206  -7.908   6.532  0.00  0.00    +0.064 C 
ATOM     29  C   UNL     1       5.898  -9.241   6.754  0.00  0.00    +0.057 C 
ATOM     30  C   UNL     1       5.582 -10.073   5.492  0.00  0.00    +0.011 C 
ATOM     31  C   UNL     1       5.332  -8.966   4.442  0.00  0.00    +0.035 C 
ATOM     32  N   UNL     1       4.800  -6.811   7.228  0.00  0.00    -0.159 NA
ATOM     33  N   UNL     1       4.251  -5.938   6.548  0.00  0.00    -0.181 NA
ENDBRANCH  25  26
ENDBRANCH  22  25
ENDBRANCH  21  22
ENDBRANCH   3  21
TORSDOF 6
