REMARK  Name = ZINC01691050
REMARK  2 active torsions:
REMARK  status: ('A' for Active; 'I' for Inactive)
REMARK    1  A    between atoms: C_2  and  C_3
REMARK    2  A    between atoms: C_3  and  O_9
REMARK                            x       y       z     vdW  Elec       q    Type
REMARK                         _______ _______ _______ _____ _____    ______ ____
ROOT
ATOM      1  C   UNL     1       1.286   1.562  -0.002  0.00  0.00    +0.084 C 
ATOM      2  C   UNL     1       2.064   1.114   1.238  0.00  0.00    +0.039 C 
ATOM      3  C   UNL     1       1.310   1.548   2.497  0.00  0.00    +0.003 C 
ATOM      4  C   UNL     1       1.169   3.072   2.506  0.00  0.00    +0.000 C 
ATOM      5  C   UNL     1       0.392   3.519   1.266  0.00  0.00    +0.003 C 
ATOM      6  C   UNL     1       1.145   3.085   0.008  0.00  0.00    +0.039 C 
ENDROOT
BRANCH   1   8
ATOM      7  C   UNL     1       1.456   0.330  -2.103  0.00  0.00    +0.007 C 
ATOM      8  C   UNL     1       2.028   1.134  -1.242  0.00  0.00    -0.001 C 
ENDBRANCH   1   8
BRANCH   1   9
ATOM      9  O   UNL     1      -0.011   0.963   0.007  0.00  0.00    -0.385 OA
ATOM     10  H   UNL     1       0.002  -0.004   0.002  0.00  0.00    +0.211 HD
ENDBRANCH   1   9
TORSDOF 2
