REMARK  Name = ZINC12420589
REMARK  6 active torsions:
REMARK  status: ('A' for Active; 'I' for Inactive)
REMARK    1  A    between atoms: C_1  and  O_2
REMARK    2  A    between atoms: O_2  and  C_3
REMARK    3  A    between atoms: C_6  and  C_9
REMARK    4  A    between atoms: N_14  and  N_22
REMARK    5  A    between atoms: N_22  and  C_23
REMARK    6  A    between atoms: C_30  and  C_31
REMARK                            x       y       z     vdW  Elec       q    Type
REMARK                         _______ _______ _______ _____ _____    ______ ____
ROOT
ATOM      1  C   UNL     1       5.608   1.462  -2.743  0.00  0.00    +0.063 C 
ATOM      2  C   UNL     1       4.292   0.709  -2.965  0.00  0.00    +0.111 C 
ATOM      3  C   UNL     1       3.145   1.618  -2.596  0.00  0.00    +0.237 C 
ATOM      4  O   UNL     1       2.096   1.545  -3.199  0.00  0.00    -0.274 OA
ATOM      5  N   UNL     1       3.289   2.509  -1.599  0.00  0.00    -0.194 N 
ATOM      6  C   UNL     1       4.442   2.554  -0.856  0.00  0.00    +0.040 C 
ATOM      7  C   UNL     1       5.596   2.072  -1.360  0.00  0.00    +0.022 C 
ATOM      8  C   UNL     1       6.794   2.128  -0.631  0.00  0.00    +0.161 C 
ATOM      9  O   UNL     1       7.814   1.688  -1.122  0.00  0.00    -0.292 OA
ATOM     10  C   UNL     1       6.841   2.738   0.739  0.00  0.00    +0.080 C 
ATOM     11  C   UNL     1       5.740   3.797   0.855  0.00  0.00    +0.014 C 
ATOM     12  C   UNL     1       4.395   3.145   0.530  0.00  0.00    +0.053 C 
ENDROOT
BRANCH   1  16
ATOM     13  C   UNL     1       8.886  -1.259  -3.078  0.00  0.00    +0.120 A 
ATOM     14  C   UNL     1       8.796  -0.171  -3.934  0.00  0.00    +0.046 A 
ATOM     15  C   UNL     1       7.735   0.707  -3.824  0.00  0.00    +0.008 A 
ATOM     16  C   UNL     1       6.764   0.502  -2.861  0.00  0.00    -0.039 A 
ATOM     17  C   UNL     1       6.854  -0.578  -2.003  0.00  0.00    +0.008 A 
ATOM     18  C   UNL     1       7.910  -1.463  -2.113  0.00  0.00    +0.046 A 
BRANCH  13  20
ATOM     19  C   UNL     1       9.956  -3.223  -2.270  0.00  0.00    +0.277 C 
ATOM     20  O   UNL     1       9.928  -2.125  -3.185  0.00  0.00    -0.495 OA
ENDBRANCH  13  20
ENDBRANCH   1  16
BRANCH   5  21
ATOM     21  N   UNL     1       2.250   3.406  -1.318  0.00  0.00    -0.255 N 
ATOM     22  H   UNL     1       2.327   4.336  -1.582  0.00  0.00    +0.171 HD
BRANCH  21  23
ATOM     23  C   UNL     1       1.114   2.965  -0.664  0.00  0.00    +0.078 A 
ATOM     24  C   UNL     1       1.023   1.673  -0.171  0.00  0.00    +0.098 A 
ATOM     25  C   UNL     1      -0.165   1.306   0.480  0.00  0.00    +0.267 A 
ATOM     26  O   UNL     1      -0.289   0.177   0.930  0.00  0.00    -0.266 OA
ATOM     27  N   UNL     1      -1.170   2.189   0.604  0.00  0.00    -0.243 N 
ATOM     28  H   UNL     1      -1.982   1.908   1.054  0.00  0.00    +0.192 HD
ATOM     29  N   UNL     1      -1.100   3.390   0.158  0.00  0.00    -0.169 NA
ATOM     30  C   UNL     1      -0.042   3.847  -0.467  0.00  0.00    +0.114 A 
BRANCH  30  31
ATOM     31  C   UNL     1      -0.015   5.242  -0.969  0.00  0.00    +0.004 A 
ATOM     32  C   UNL     1      -0.623   6.261  -0.239  0.00  0.00    +0.010 A 
ATOM     33  C   UNL     1      -0.589   7.558  -0.708  0.00  0.00    +0.001 A 
ATOM     34  C   UNL     1       0.037   7.846  -1.908  0.00  0.00    +0.000 A 
ATOM     35  C   UNL     1       0.638   6.838  -2.640  0.00  0.00    +0.001 A 
ATOM     36  C   UNL     1       0.615   5.538  -2.177  0.00  0.00    +0.010 A 
ENDBRANCH  30  31
ENDBRANCH  21  23
ENDBRANCH   5  21
TORSDOF 5
