REMARK  Name = ZINC10128211
REMARK  6 active torsions:
REMARK  status: ('A' for Active; 'I' for Inactive)
REMARK    1  A    between atoms: C_5  and  C_7
REMARK    2  A    between atoms: C_8  and  C_9
REMARK    3  A    between atoms: C_8  and  C_11
REMARK    4  A    between atoms: N_13  and  C_14
REMARK    5  A    between atoms: C_14  and  C_15
REMARK    6  A    between atoms: C_15  and  C_16
REMARK                            x       y       z     vdW  Elec       q    Type
REMARK                         _______ _______ _______ _____ _____    ______ ____
ROOT
ATOM      1  C   UNL     1       3.642   1.802   0.082  0.00  0.00    +0.254 C 
ATOM      2  O   UNL     1       2.617   1.172  -0.095  0.00  0.00    -0.269 OA
ATOM      3  N   UNL     1       4.808   1.152   0.271  0.00  0.00    -0.310 N 
ATOM      4  H   UNL     1       5.626   1.655   0.411  0.00  0.00    +0.149 HD
ENDROOT
BRANCH   1   6
ATOM      5  C   UNL     1       2.405   3.936   0.044  0.00  0.00    +0.033 C 
ATOM      6  C   UNL     1       3.610   3.274   0.090  0.00  0.00    +0.114 C 
BRANCH   5  11
ATOM      7  C   UNL     1      -0.153   1.516   1.324  0.00  0.00    +0.001 A 
ATOM      8  C   UNL     1      -1.214   1.774   0.472  0.00  0.00    +0.001 A 
ATOM      9  C   UNL     1      -1.104   2.740  -0.512  0.00  0.00    +0.015 A 
ATOM     10  C   UNL     1       0.071   3.448  -0.660  0.00  0.00    +0.021 A 
ATOM     11  C   UNL     1       1.152   3.189   0.194  0.00  0.00    -0.011 A 
ATOM     12  C   UNL     1       1.028   2.212   1.191  0.00  0.00    +0.009 A 
ATOM     13  I   UNL     1       0.240   4.904  -2.157  0.00  0.00    -0.043 I 
ENDBRANCH   5  11
BRANCH   6  14
ATOM     14  C   UNL     1       4.834   4.016   0.145  0.00  0.00    +0.104 C 
ATOM     15  N   UNL     1       5.804   4.606   0.189  0.00  0.00    -0.191 NA
ENDBRANCH   6  14
ENDBRANCH   1   6
BRANCH   3  16
ATOM     16  C   UNL     1       4.840  -0.312   0.263  0.00  0.00    +0.109 C 
BRANCH  16  17
ATOM     17  C   UNL     1       6.274  -0.792   0.497  0.00  0.00    +0.056 C 
BRANCH  17  18
ATOM     18  C   UNL     1       6.306  -2.299   0.489  0.00  0.00    -0.021 A 
ATOM     19  C   UNL     1       6.246  -3.105   1.561  0.00  0.00    +0.087 A 
ATOM     20  N   UNL     1       6.300  -4.413   1.165  0.00  0.00    -0.360 N 
ATOM     21  H   UNL     1       6.271  -5.178   1.761  0.00  0.00    +0.165 HD
ATOM     22  C   UNL     1       6.408  -4.483  -0.206  0.00  0.00    +0.047 A 
ATOM     23  C   UNL     1       6.417  -3.162  -0.690  0.00  0.00    +0.003 A 
ATOM     24  C   UNL     1       6.518  -2.923  -2.061  0.00  0.00    +0.010 A 
ATOM     25  C   UNL     1       6.608  -3.975  -2.929  0.00  0.00    +0.001 A 
ATOM     26  C   UNL     1       6.600  -5.280  -2.457  0.00  0.00    +0.002 A 
ATOM     27  C   UNL     1       6.501  -5.539  -1.107  0.00  0.00    +0.026 A 
ENDBRANCH  17  18
ENDBRANCH  16  17
ENDBRANCH   3  16
TORSDOF 6
