REMARK  Name = ZINC10450702
REMARK  10 active torsions:
REMARK  status: ('A' for Active; 'I' for Inactive)
REMARK    1  A    between atoms: C_1  and  C_2
REMARK    2  A    between atoms: C_7  and  O_8
REMARK    3  A    between atoms: O_8  and  C_9
REMARK    4  A    between atoms: C_9  and  C_10
REMARK    5  A    between atoms: N_12  and  N_13
REMARK    6  A    between atoms: N_13  and  C_14
REMARK    7  A    between atoms: C_14  and  N_16
REMARK    8  A    between atoms: C_17  and  C_19
REMARK    9  A    between atoms: C_20  and  C_21
REMARK   10  A    between atoms: C_25  and  N_27
REMARK                            x       y       z     vdW  Elec       q    Type
REMARK                         _______ _______ _______ _____ _____    ______ ____
ROOT
ATOM      1  C   UNL     1       0.081  -0.109   8.376  0.00  0.00    +0.153 C 
ATOM      2  S   UNL     1       0.079   0.925   9.740  0.00  0.00    -0.017 S 
ENDROOT
BRANCH   1   3
ATOM      3  N   UNL     1       0.101  -1.446   8.543  0.00  0.00    -0.263 N 
ATOM      4  C   UNL     1       0.120  -1.970   9.785  0.00  0.00    +0.242 C 
ATOM      5  O   UNL     1       0.119  -1.235  10.755  0.00  0.00    -0.270 OA
ATOM      6  H   UNL     1       0.102  -2.032   7.770  0.00  0.00    +0.157 HD
BRANCH   4   7
ATOM      7  C   UNL     1       0.142  -3.421   9.967  0.00  0.00    +0.068 C 
ATOM      8  C   UNL     1       0.161  -3.945  11.210  0.00  0.00    +0.013 C 
BRANCH   8   9
ATOM      9  C   UNL     1       0.183  -5.405  11.393  0.00  0.00    -0.023 A 
ATOM     10  C   UNL     1       0.190  -6.253  10.280  0.00  0.00    +0.008 A 
ATOM     11  C   UNL     1       0.211  -7.620  10.460  0.00  0.00    +0.003 A 
ATOM     12  C   UNL     1       0.224  -8.153  11.737  0.00  0.00    +0.033 A 
ATOM     13  C   UNL     1       0.217  -7.321  12.843  0.00  0.00    +0.127 A 
ATOM     14  C   UNL     1       0.203  -5.952  12.680  0.00  0.00    +0.040 A 
BRANCH  13  15
ATOM     15  N   UNL     1       0.231  -7.902  14.204  0.00  0.00    +0.056 N 
ATOM     16  O   UNL     1       0.248  -9.102  14.349  0.00  0.00    -0.126 OA
ATOM     17  O   UNL     1       0.224  -7.176  15.171  0.00  0.00    -0.126 OA
ENDBRANCH  13  15
ENDBRANCH   8   9
ENDBRANCH   4   7
ENDBRANCH   1   3
BRANCH   1  18
ATOM     18  N   UNL     1       0.062   0.414   7.134  0.00  0.00    -0.245 N 
ATOM     19  H   UNL     1       0.048   1.376   7.013  0.00  0.00    +0.172 HD
BRANCH  18  22
ATOM     20  C   UNL     1       0.045   0.091   4.775  0.00  0.00    +0.267 C 
ATOM     21  O   UNL     1       0.027   1.294   4.624  0.00  0.00    -0.271 OA
ATOM     22  N   UNL     1       0.064  -0.432   6.017  0.00  0.00    -0.232 N 
ATOM     23  H   UNL     1       0.078  -1.394   6.138  0.00  0.00    +0.173 HD
BRANCH  20  24
ATOM     24  C   UNL     1       0.047  -0.819   3.574  0.00  0.00    +0.326 C 
BRANCH  24  25
ATOM     25  O   UNL     1       0.025  -0.033   2.381  0.00  0.00    -0.482 OA
BRANCH  25  32
ATOM     26  C   UNL     1      -0.018   1.503   0.010  0.00  0.00    +0.047 C 
ATOM     27  C   UNL     1       0.002  -0.004   0.002  0.00  0.00    -0.008 A 
ATOM     28  C   UNL     1       0.006  -0.689  -1.198  0.00  0.00    +0.022 A 
ATOM     29  C   UNL     1       0.025  -2.072  -1.206  0.00  0.00    +0.018 A 
ATOM     30  C   UNL     1       0.040  -2.772  -0.013  0.00  0.00    +0.019 A 
ATOM     31  C   UNL     1       0.036  -2.092   1.189  0.00  0.00    +0.047 A 
ATOM     32  C   UNL     1       0.023  -0.705   1.199  0.00  0.00    +0.124 A 
ATOM     33 BR   UNL     1       0.029  -3.006  -2.850  0.00  0.00    -0.050 Br
ENDBRANCH  25  32
ENDBRANCH  24  25
ENDBRANCH  20  24
ENDBRANCH  18  22
ENDBRANCH   1  18
TORSDOF 9
