REMARK  Name = ZINC02947983
REMARK  5 active torsions:
REMARK  status: ('A' for Active; 'I' for Inactive)
REMARK    1  A    between atoms: C_1  and  C_2
REMARK    2  A    between atoms: C_6  and  C_7
REMARK    3  A    between atoms: N_14  and  C_17
REMARK    4  A    between atoms: C_19  and  C_24
REMARK    5  A    between atoms: C_21  and  C_23
REMARK                            x       y       z     vdW  Elec       q    Type
REMARK                         _______ _______ _______ _____ _____    ______ ____
ROOT
ATOM      1  C   UNL     1       2.391   1.419  -0.115  0.00  0.00    +0.033 C 
ATOM      2  C   UNL     1       1.238   2.017   0.382  0.00  0.00    +0.101 C 
ATOM      3  C   UNL     1       1.262   3.374   0.956  0.00  0.00    +0.257 C 
ATOM      4  O   UNL     1       2.297   4.011   1.011  0.00  0.00    -0.270 OA
ATOM      5  N   UNL     1       0.105   3.891   1.418  0.00  0.00    -0.235 N 
ATOM      6  C   UNL     1      -1.043   3.200   1.363  0.00  0.00    +0.320 C 
ATOM      7  O   UNL     1      -2.050   3.723   1.797  0.00  0.00    -0.251 OA
ATOM      8  N   UNL     1      -1.138   1.966   0.850  0.00  0.00    -0.190 N 
ATOM      9  C   UNL     1      -0.060   1.322   0.356  0.00  0.00    +0.264 C 
ATOM     10  O   UNL     1      -0.159   0.200  -0.103  0.00  0.00    -0.269 OA
ATOM     11  H   UNL     1       0.103   4.783   1.800  0.00  0.00    +0.159 HD
ENDROOT
BRANCH   8  12
ATOM     12  C   UNL     1      -2.385   1.327   0.830  0.00  0.00    +0.046 A 
ATOM     13  C   UNL     1      -2.613   0.222   1.639  0.00  0.00    +0.027 A 
ATOM     14  C   UNL     1      -3.845  -0.402   1.623  0.00  0.00    -0.048 A 
ATOM     15  C   UNL     1      -4.848   0.066   0.793  0.00  0.00    +0.006 A 
ATOM     16  C   UNL     1      -4.622   1.162  -0.018  0.00  0.00    -0.048 A 
ATOM     17  C   UNL     1      -3.394   1.794  -0.002  0.00  0.00    +0.027 A 
ATOM     18  C   UNL     1      -5.717   1.669  -0.921  0.00  0.00    +0.044 C 
ATOM     19  C   UNL     1      -4.096  -1.597   2.506  0.00  0.00    +0.044 C 
ENDBRANCH   8  12
BRANCH   1  25
ATOM     20  C   UNL     1       5.195   0.473   0.728  0.00  0.00    +0.045 C 
ATOM     21  C   UNL     1       4.878   1.815   0.119  0.00  0.00    -0.036 A 
ATOM     22  C   UNL     1       5.854   2.744  -0.111  0.00  0.00    +0.011 A 
ATOM     23  C   UNL     1       5.517   3.944  -0.663  0.00  0.00    +0.046 A 
ATOM     24  S   UNL     1       3.803   3.811  -0.889  0.00  0.00    -0.097 S 
ATOM     25  C   UNL     1       3.573   2.167  -0.235  0.00  0.00    +0.016 A 
ENDBRANCH   1  25
TORSDOF 2
