REMARK  Name = ZINC36533129
REMARK  5 active torsions:
REMARK  status: ('A' for Active; 'I' for Inactive)
REMARK    1  A    between atoms: C_4  and  C_7
REMARK    2  A    between atoms: C_11  and  O_32
REMARK    3  A    between atoms: C_13  and  C_16
REMARK    4  A    between atoms: C_18  and  O_31
REMARK    5  A    between atoms: C_22  and  C_25
REMARK                            x       y       z     vdW  Elec       q    Type
REMARK                         _______ _______ _______ _____ _____    ______ ____
ROOT
ATOM      1  C   UNL     1       3.962  -0.619  -0.227  0.00  0.00    +0.282 C 
ATOM      2  O   UNL     1       4.754  -0.431  -1.402  0.00  0.00    -0.345 OA
ATOM      3  C   UNL     1       5.932  -1.242  -1.440  0.00  0.00    +0.197 C 
ATOM      4  C   UNL     1       5.524  -2.716  -1.339  0.00  0.00    +0.172 C 
ATOM      5  C   UNL     1       4.661  -2.906  -0.086  0.00  0.00    +0.184 C 
ATOM      6  O   UNL     1       3.564  -1.989  -0.134  0.00  0.00    -0.339 OA
ENDROOT
BRANCH   1  10
ATOM      7  C   UNL     1       0.491   1.862  -0.438  0.00  0.00    +0.000 A 
ATOM      8  C   UNL     1       1.750   2.432  -0.464  0.00  0.00    +0.000 A 
ATOM      9  C   UNL     1       2.874   1.629  -0.396  0.00  0.00    +0.008 A 
ATOM     10  C   UNL     1       2.738   0.257  -0.300  0.00  0.00    +0.008 A 
ATOM     11  C   UNL     1       1.479  -0.313  -0.273  0.00  0.00    +0.008 A 
ATOM     12  C   UNL     1       0.355   0.489  -0.344  0.00  0.00    +0.000 A 
ENDBRANCH   1  10
BRANCH   5  13
ATOM     13  C   UNL     1       5.504  -2.635   1.162  0.00  0.00    +0.184 C 
ATOM     14  C   UNL     1       4.627  -2.767   2.412  0.00  0.00    +0.172 C 
ATOM     15  C   UNL     1       5.448  -2.356   3.639  0.00  0.00    +0.197 C 
ATOM     16  O   UNL     1       5.981  -1.046   3.423  0.00  0.00    -0.345 OA
ATOM     17  C   UNL     1       6.799  -0.941   2.255  0.00  0.00    +0.282 C 
ATOM     18  O   UNL     1       6.036  -1.308   1.102  0.00  0.00    -0.339 OA
BRANCH  17  19
ATOM     19  C   UNL     1       7.282   0.478   2.105  0.00  0.00    +0.008 A 
ATOM     20  C   UNL     1       6.956   1.204   0.975  0.00  0.00    +0.008 A 
ATOM     21  C   UNL     1       7.400   2.506   0.838  0.00  0.00    +0.000 A 
ATOM     22  C   UNL     1       8.170   3.082   1.831  0.00  0.00    +0.000 A 
ATOM     23  C   UNL     1       8.495   2.357   2.962  0.00  0.00    +0.000 A 
ATOM     24  C   UNL     1       8.048   1.056   3.101  0.00  0.00    +0.008 A 
ENDBRANCH  17  19
BRANCH  14  25
ATOM     25  O   UNL     1       4.195  -4.122   2.554  0.00  0.00    -0.387 OA
ATOM     26  H   UNL     1       3.635  -4.277   3.326  0.00  0.00    +0.210 HD
ENDBRANCH  14  25
ENDBRANCH   5  13
BRANCH   4  27
ATOM     27  O   UNL     1       4.776  -3.087  -2.499  0.00  0.00    -0.387 OA
ATOM     28  H   UNL     1       5.261  -2.982  -3.329  0.00  0.00    +0.210 HD
ENDBRANCH   4  27
TORSDOF 5
