REMARK  Name = ZINC11613914
REMARK  7 active torsions:
REMARK  status: ('A' for Active; 'I' for Inactive)
REMARK    1  A    between atoms: C_1  and  C_2
REMARK    2  A    between atoms: C_2  and  C_3
REMARK    3  A    between atoms: C_2  and  C_4
REMARK    4  A    between atoms: C_7  and  C_13
REMARK    5  A    between atoms: C_9  and  N_10
REMARK    6  A    between atoms: N_14  and  N_15
REMARK    7  A    between atoms: C_16  and  C_18
REMARK                            x       y       z     vdW  Elec       q    Type
REMARK                         _______ _______ _______ _____ _____    ______ ____
ROOT
ATOM      1  C   UNL     1      -0.768   1.891  -1.724  0.00  0.00    +0.138 C 
ATOM      2  N   UNL     1      -0.974   3.172  -1.692  0.00  0.00    -0.187 NA
ENDROOT
BRANCH   1   6
ATOM      3  C   UNL     1       2.139   0.143   0.828  0.00  0.00    -0.015 A 
ATOM      4  C   UNL     1       1.921   1.510   0.865  0.00  0.00    +0.007 A 
ATOM      5  C   UNL     1       0.977   2.084   0.040  0.00  0.00    +0.010 A 
ATOM      6  C   UNL     1       0.239   1.283  -0.835  0.00  0.00    -0.003 A 
ATOM      7  C   UNL     1       0.464  -0.095  -0.867  0.00  0.00    +0.042 A 
ATOM      8  C   UNL     1       1.411  -0.656  -0.036  0.00  0.00    +0.130 A 
BRANCH   3  10
ATOM      9  C   UNL     1       4.564   0.014   1.327  0.00  0.00    +0.012 C 
ATOM     10  C   UNL     1       3.172  -0.477   1.732  0.00  0.00    +0.015 C 
ATOM     11  C   UNL     1       2.891  -0.073   3.181  0.00  0.00    +0.012 C 
ENDBRANCH   3  10
BRANCH   8  12
ATOM     12  N   UNL     1       1.651  -2.116  -0.069  0.00  0.00    +0.057 N 
ATOM     13  O   UNL     1       0.712  -2.885  -0.178  0.00  0.00    -0.126 OA
ATOM     14  O   UNL     1       2.786  -2.549   0.013  0.00  0.00    -0.126 OA
ENDBRANCH   8  12
ENDBRANCH   1   6
BRANCH   2  15
ATOM     15  N   UNL     1      -1.931   3.749  -2.537  0.00  0.00    -0.203 N 
ATOM     16  C   UNL     1      -2.145   5.080  -2.503  0.00  0.00    +0.263 C 
ATOM     17  O   UNL     1      -1.508   5.779  -1.738  0.00  0.00    -0.268 OA
ATOM     18  H   UNL     1      -2.439   3.192  -3.146  0.00  0.00    +0.178 HD
BRANCH  16  19
ATOM     19  C   UNL     1      -3.154   5.689  -3.394  0.00  0.00    +0.039 A 
ATOM     20  C   UNL     1      -3.883   4.890  -4.277  0.00  0.00    +0.013 A 
ATOM     21  C   UNL     1      -4.827   5.464  -5.104  0.00  0.00    +0.002 A 
ATOM     22  C   UNL     1      -5.045   6.830  -5.066  0.00  0.00    +0.014 A 
ATOM     23  C   UNL     1      -4.322   7.628  -4.197  0.00  0.00    +0.014 A 
ATOM     24  C   UNL     1      -3.378   7.066  -3.361  0.00  0.00    +0.027 A 
ATOM     25  I   UNL     1      -4.661   9.695  -4.150  0.00  0.00    -0.044 I 
ENDBRANCH  16  19
ENDBRANCH   2  15
TORSDOF 5
