REMARK  Name = ZINC35777053
REMARK  12 active torsions:
REMARK  status: ('A' for Active; 'I' for Inactive)
REMARK    1  A    between atoms: C_1  and  C_2
REMARK    2  A    between atoms: C_2  and  C_3
REMARK    3  A    between atoms: C_8  and  N_9
REMARK    4  A    between atoms: N_9  and  C_10
REMARK    5  A    between atoms: C_11  and  C_26
REMARK    6  A    between atoms: C_15  and  C_16
REMARK    7  A    between atoms: C_20  and  O_23
REMARK    8  A    between atoms: C_21  and  O_22
REMARK    9  A    between atoms: O_23  and  C_24
REMARK   10  A    between atoms: C_26  and  O_28
REMARK   11  A    between atoms: O_28  and  C_29
REMARK   12  A    between atoms: C_29  and  C_30
REMARK                            x       y       z     vdW  Elec       q    Type
REMARK                         _______ _______ _______ _____ _____    ______ ____
ROOT
ATOM      1  C   UNL     1      -2.069  -0.929  -3.552  0.00  0.00    +0.088 C 
ATOM      2  C   UNL     1      -1.514  -1.101  -4.824  0.00  0.00    +0.134 C 
ATOM      3  C   UNL     1      -2.417  -1.324  -5.925  0.00  0.00    +0.209 C 
ATOM      4  O   UNL     1      -2.023  -1.485  -7.069  0.00  0.00    -0.286 OA
ATOM      5  C   UNL     1      -3.847  -1.346  -5.574  0.00  0.00    +0.062 C 
ATOM      6  C   UNL     1      -4.916  -1.533  -6.390  0.00  0.00    +0.030 C 
ATOM      7  S   UNL     1      -3.825  -1.073  -3.813  0.00  0.00    -0.069 S 
ENDROOT
BRANCH   6   8
ATOM      8  C   UNL     1      -4.731  -1.575  -7.845  0.00  0.00    +0.021 A 
ATOM      9  C   UNL     1      -3.905  -0.638  -8.478  0.00  0.00    +0.012 A 
ATOM     10  C   UNL     1      -3.735  -0.682  -9.844  0.00  0.00    +0.004 A 
ATOM     11  C   UNL     1      -4.377  -1.651 -10.598  0.00  0.00    +0.049 A 
ATOM     12  C   UNL     1      -5.197  -2.586  -9.988  0.00  0.00    +0.162 A 
ATOM     13  C   UNL     1      -5.376  -2.559  -8.610  0.00  0.00    +0.166 A 
BRANCH  13  14
ATOM     14  O   UNL     1      -6.175  -3.478  -8.008  0.00  0.00    -0.503 OA
ATOM     15  H   UNL     1      -7.101  -3.208  -7.937  0.00  0.00    +0.292 HD
ENDBRANCH  13  14
BRANCH  12  16
ATOM     16  O   UNL     1      -5.823  -3.533 -10.737  0.00  0.00    -0.491 OA
ATOM     17  C   UNL     1      -5.589  -3.504 -12.147  0.00  0.00    +0.277 C 
ENDBRANCH  12  16
ENDBRANCH   6   8
BRANCH   1  18
ATOM     18  N   UNL     1      -1.412  -0.708  -2.372  0.00  0.00    -0.308 N 
ATOM     19  H   UNL     1      -0.443  -0.739  -2.344  0.00  0.00    +0.153 HD
BRANCH  18  25
ATOM     20  C   UNL     1      -1.713  -0.949   0.011  0.00  0.00    -0.026 A 
ATOM     21  C   UNL     1      -2.429  -0.674   1.160  0.00  0.00    +0.005 A 
ATOM     22  C   UNL     1      -3.569   0.105   1.097  0.00  0.00    +0.000 A 
ATOM     23  C   UNL     1      -3.997   0.613  -0.117  0.00  0.00    +0.002 A 
ATOM     24  C   UNL     1      -3.286   0.342  -1.269  0.00  0.00    +0.023 A 
ATOM     25  C   UNL     1      -2.136  -0.436  -1.208  0.00  0.00    +0.035 A 
BRANCH  20  27
ATOM     26  C   UNL     1       0.759  -0.895   0.201  0.00  0.00    +0.009 C 
ATOM     27  C   UNL     1      -0.470  -1.798   0.081  0.00  0.00    +0.033 C 
ENDBRANCH  20  27
ENDBRANCH  18  25
ENDBRANCH   1  18
BRANCH   2  28
ATOM     28  C   UNL     1      -0.069  -1.056  -5.030  0.00  0.00    +0.345 C 
ATOM     29  O   UNL     1       0.675  -0.865  -4.085  0.00  0.00    -0.245 OA
BRANCH  28  30
ATOM     30  O   UNL     1       0.442  -1.224  -6.267  0.00  0.00    -0.461 OA
BRANCH  30  31
ATOM     31  C   UNL     1       1.864  -1.167  -6.395  0.00  0.00    +0.229 C 
ATOM     32  C   UNL     1       2.253  -1.379  -7.860  0.00  0.00    +0.048 C 
ENDBRANCH  30  31
ENDBRANCH  28  30
ENDBRANCH   2  28
TORSDOF 9
