REMARK  Name = ZINC11844164
REMARK  10 active torsions:
REMARK  status: ('A' for Active; 'I' for Inactive)
REMARK    1  A    between atoms: C_1  and  C_2
REMARK    2  A    between atoms: C_3  and  C_25
REMARK    3  A    between atoms: C_4  and  O_23
REMARK    4  A    between atoms: C_7  and  C_8
REMARK    5  A    between atoms: C_10  and  C_14
REMARK    6  A    between atoms: C_11  and  C_13
REMARK    7  A    between atoms: C_14  and  N_53
REMARK    8  A    between atoms: C_19  and  C_21
REMARK    9  A    between atoms: C_21  and  O_22
REMARK   10  A    between atoms: O_23  and  C_24
REMARK                            x       y       z     vdW  Elec       q    Type
REMARK                         _______ _______ _______ _____ _____    ______ ____
ROOT
ATOM      1  C   UNL     1       1.562   1.942  -0.556  0.00  0.00    +0.228 A 
ATOM      2  N   UNL     1       2.289   0.860  -0.400  0.00  0.00    -0.216 NA
ATOM      3  C   UNL     1       1.468  -0.197  -0.296  0.00  0.00    +0.066 A 
ATOM      4  C   UNL     1       0.204   0.253  -0.392  0.00  0.00    +0.124 A 
ATOM      5  O   UNL     1       0.265   1.590  -0.555  0.00  0.00    -0.440 OA
ATOM      6  C   UNL     1      -1.049  -0.583  -0.330  0.00  0.00    +0.088 C 
ENDROOT
BRANCH   1  13
ATOM      7  C   UNL     1       0.529   3.634  -2.661  0.00  0.00    +0.045 C 
ATOM      8  C   UNL     1       1.592   4.143  -1.721  0.00  0.00    -0.032 A 
ATOM      9  C   UNL     1       2.077   5.426  -1.857  0.00  0.00    -0.005 A 
ATOM     10  C   UNL     1       3.060   5.893  -0.995  0.00  0.00    +0.123 A 
ATOM     11  C   UNL     1       3.556   5.072   0.010  0.00  0.00    +0.046 A 
ATOM     12  C   UNL     1       3.072   3.790   0.156  0.00  0.00    +0.017 A 
ATOM     13  C   UNL     1       2.083   3.316  -0.709  0.00  0.00    +0.040 A 
ATOM     14  C   UNL     1       1.544   6.320  -2.946  0.00  0.00    +0.048 C 
BRANCH  10  15
ATOM     15  O   UNL     1       3.539   7.156  -1.135  0.00  0.00    -0.495 OA
ATOM     16  C   UNL     1       4.550   7.573  -0.215  0.00  0.00    +0.277 C 
ENDBRANCH  10  15
ENDBRANCH   1  13
BRANCH   3  17
ATOM     17  C   UNL     1       1.887  -1.631  -0.105  0.00  0.00    -0.018 C 
BRANCH  17  23
ATOM     18  C   UNL     1       0.818  -2.247  -2.188  0.00  0.00    -0.078 C 
ATOM     19  C   UNL     1       1.077  -2.784  -3.597  0.00  0.00    -0.019 C 
ATOM     20  C   UNL     1       1.617  -4.213  -3.503  0.00  0.00    -0.003 C 
ATOM     21  C   UNL     1       2.892  -4.214  -2.655  0.00  0.00    -0.013 C 
ATOM     22  C   UNL     1       2.580  -3.636  -1.272  0.00  0.00    -0.042 C 
ATOM     23  N   UNL     1       2.088  -2.251  -1.431  0.00  0.00    +0.387 N 
ATOM     24  H   UNL     1       2.787  -1.707  -1.951  0.00  0.00    -0.081 HD
BRANCH  22  25
ATOM     25  C   UNL     1       3.856  -3.616  -0.428  0.00  0.00    +0.140 C 
BRANCH  25  26
ATOM     26  O   UNL     1       4.867  -2.872  -1.111  0.00  0.00    -0.397 OA
ATOM     27  H   UNL     1       5.706  -2.817  -0.633  0.00  0.00    +0.209 HD
ENDBRANCH  25  26
ENDBRANCH  22  25
ENDBRANCH  17  23
ENDBRANCH   3  17
TORSDOF 6
