REMARK  Name = ZINC61560677
REMARK  7 active torsions:
REMARK  status: ('A' for Active; 'I' for Inactive)
REMARK    1  A    between atoms: C_1  and  O_2
REMARK    2  A    between atoms: O_2  and  C_3
REMARK    3  A    between atoms: C_5  and  C_12
REMARK    4  A    between atoms: C_8  and  O_9
REMARK    5  A    between atoms: O_9  and  C_10
REMARK    6  A    between atoms: C_12  and  C_14
REMARK    7  A    between atoms: C_12  and  N_22
REMARK                            x       y       z     vdW  Elec       q    Type
REMARK                         _______ _______ _______ _____ _____    ______ ____
ROOT
ATOM      1  C   UNL     1       2.402   0.381  -4.230  0.00  0.00    -0.010 C 
ENDROOT
BRANCH   1   2
ATOM      2  C   UNL     1       1.411   0.550  -5.353  0.00  0.00    -0.054 A 
ATOM      3  C   UNL     1       0.406   1.494  -5.251  0.00  0.00    +0.040 A 
ATOM      4  C   UNL     1      -0.505   1.649  -6.282  0.00  0.00    +0.125 A 
ATOM      5  C   UNL     1      -0.409   0.859  -7.414  0.00  0.00    +0.053 A 
ATOM      6  C   UNL     1       0.597  -0.085  -7.514  0.00  0.00    +0.021 A 
ATOM      7  C   UNL     1       1.510  -0.235  -6.486  0.00  0.00    +0.017 A 
ATOM      8 BR   UNL     1       0.729  -1.165  -9.061  0.00  0.00    -0.050 Br
ATOM      9  F   UNL     1      -1.487   2.571  -6.182  0.00  0.00    -0.205 F 
ENDBRANCH   1   2
BRANCH   1  12
ATOM     10  C   UNL     1       0.606  -0.608  -1.057  0.00  0.00    +0.162 A 
ATOM     11  C   UNL     1       1.173   0.159  -2.062  0.00  0.00    +0.054 A 
ATOM     12  C   UNL     1       1.787  -0.455  -3.138  0.00  0.00    -0.019 A 
ATOM     13  C   UNL     1       1.837  -1.836  -3.214  0.00  0.00    +0.129 A 
ATOM     14  C   UNL     1       1.272  -2.607  -2.212  0.00  0.00    +0.088 A 
ATOM     15  C   UNL     1       0.662  -1.996  -1.129  0.00  0.00    +0.164 A 
ATOM     16  F   UNL     1       2.437  -2.433  -4.267  0.00  0.00    -0.205 F 
BRANCH  10  18
ATOM     17  C   UNL     1      -0.017   1.425   0.010  0.00  0.00    +0.277 C 
ATOM     18  O   UNL     1       0.002  -0.004   0.002  0.00  0.00    -0.491 OA
ENDBRANCH  10  18
BRANCH  15  19
ATOM     19  O   UNL     1       0.112  -2.752  -0.141  0.00  0.00    -0.491 OA
ATOM     20  C   UNL     1       0.206  -4.171  -0.281  0.00  0.00    +0.277 C 
ENDBRANCH  15  19
ENDBRANCH   1  12
BRANCH   1  21
ATOM     21  N   UNL     1       2.763   1.700  -3.693  0.00  0.00    +0.385 N 
ATOM     22  H   UNL     1       3.427   1.587  -2.942  0.00  0.00    -0.089 HD
ATOM     23  H   UNL     1       3.175   2.260  -4.425  0.00  0.00    -0.089 HD
ATOM     24  H   UNL     1       1.935   2.159  -3.344  0.00  0.00    -0.089 HD
ENDBRANCH   1  21
TORSDOF 5
