REMARK  Name = ZINC23590137
REMARK  8 active torsions:
REMARK  status: ('A' for Active; 'I' for Inactive)
REMARK    1  A    between atoms: C_1  and  C_2
REMARK    2  A    between atoms: C_2  and  N_3
REMARK    3  A    between atoms: C_12  and  S_13
REMARK    4  A    between atoms: S_13  and  C_14
REMARK    5  A    between atoms: C_14  and  C_15
REMARK    6  A    between atoms: N_17  and  C_18
REMARK    7  A    between atoms: C_19  and  C_23
REMARK    8  A    between atoms: C_26  and  C_30
REMARK                            x       y       z     vdW  Elec       q    Type
REMARK                         _______ _______ _______ _____ _____    ______ ____
ROOT
ATOM      1  N   UNL     1      -8.832   3.147   0.063  0.00  0.00    -0.288 N 
ATOM      2  C   UNL     1     -10.014   2.505   0.060  0.00  0.00    +0.263 A 
ATOM      3  O   UNL     1     -11.059   3.132   0.069  0.00  0.00    -0.267 OA
ATOM      4  C   UNL     1     -10.027   1.074   0.050  0.00  0.00    +0.076 A 
ATOM      5  C   UNL     1     -11.185   0.178   0.049  0.00  0.00    -0.023 A 
ATOM      6  C   UNL     1     -10.934  -1.147   0.039  0.00  0.00    -0.004 A 
ATOM      7  S   UNL     1      -9.167  -1.280   0.031  0.00  0.00    -0.073 S 
ATOM      8  C   UNL     1      -8.769   0.449   0.041  0.00  0.00    +0.117 A 
ATOM      9  N   UNL     1      -7.636   1.143   0.040  0.00  0.00    -0.216 NA
ATOM     10  C   UNL     1      -7.652   2.461   0.048  0.00  0.00    +0.173 A 
ATOM     11  C   UNL     1     -11.937  -2.261   0.035  0.00  0.00    +0.046 C 
ATOM     12  C   UNL     1     -13.306  -1.682   0.418  0.00  0.00    -0.009 C 
ATOM     13  C   UNL     1     -13.554  -0.417  -0.409  0.00  0.00    +0.008 C 
ATOM     14  C   UNL     1     -12.620   0.700   0.058  0.00  0.00    +0.037 C 
ATOM     15  C   UNL     1     -14.399  -2.712   0.125  0.00  0.00    +0.008 C 
ENDROOT
BRANCH   1  17
ATOM     16  C   UNL     1      -8.812   5.137  -1.359  0.00  0.00    +0.027 C 
ATOM     17  C   UNL     1      -8.810   4.612   0.078  0.00  0.00    +0.124 C 
ENDBRANCH   1  17
BRANCH  10  18
ATOM     18  S   UNL     1      -6.130   3.348   0.047  0.00  0.00    -0.078 S 
BRANCH  18  19
ATOM     19  C   UNL     1      -4.961   1.966   0.034  0.00  0.00    +0.173 C 
BRANCH  19  20
ATOM     20  C   UNL     1      -3.552   2.500   0.031  0.00  0.00    +0.228 C 
ATOM     21  O   UNL     1      -3.357   3.697   0.038  0.00  0.00    -0.275 OA
ATOM     22  N   UNL     1      -2.508   1.648   0.022  0.00  0.00    -0.278 N 
ATOM     23  H   UNL     1      -2.684   0.562   0.016  0.00  0.00    +0.155 HD
BRANCH  22  24
ATOM     24  C   UNL     1      -1.210   2.140   0.019  0.00  0.00    +0.089 A 
ATOM     25  C   UNL     1      -0.017   1.428   0.010  0.00  0.00    +0.080 A 
ATOM     26  C   UNL     1       1.201   2.201   0.002  0.00  0.00    +0.028 A 
ATOM     27  C   UNL     1       1.078   3.541   0.011  0.00  0.00    +0.048 A 
ATOM     28  S   UNL     1      -0.685   3.790   0.029  0.00  0.00    -0.081 S 
BRANCH  25  29
ATOM     29  C   UNL     1       0.002  -0.004   0.002  0.00  0.00    +0.102 C 
ATOM     30  N   UNL     1       0.018  -1.140  -0.004  0.00  0.00    -0.191 NA
ENDBRANCH  25  29
ENDBRANCH  22  24
ENDBRANCH  19  20
ENDBRANCH  18  19
ENDBRANCH  10  18
TORSDOF 6
