REMARK  Name = ZINC42474487
REMARK  10 active torsions:
REMARK  status: ('A' for Active; 'I' for Inactive)
REMARK    1  A    between atoms: C_1  and  C_2
REMARK    2  A    between atoms: C_5  and  N_9
REMARK    3  A    between atoms: C_10  and  C_12
REMARK    4  A    between atoms: C_12  and  C_14
REMARK    5  A    between atoms: C_12  and  N_15
REMARK    6  A    between atoms: N_18  and  C_21
REMARK    7  A    between atoms: C_21  and  C_22
REMARK    8  A    between atoms: N_24  and  C_25
REMARK    9  A    between atoms: C_25  and  C_26
REMARK   10  A    between atoms: C_25  and  C_27
REMARK                            x       y       z     vdW  Elec       q    Type
REMARK                         _______ _______ _______ _____ _____    ______ ____
ROOT
ATOM      1  N   UNL     1      -0.112  -6.834  -2.579  0.00  0.00    +0.389 N 
ATOM      2  C   UNL     1      -0.084  -8.303  -2.577  0.00  0.00    -0.062 C 
ATOM      3  C   UNL     1      -0.080  -8.814  -4.020  0.00  0.00    +0.066 C 
ATOM      4  N   UNL     1       1.099  -8.285  -4.720  0.00  0.00    -0.298 NA
ATOM      5  C   UNL     1       1.098  -6.816  -4.708  0.00  0.00    +0.066 C 
ATOM      6  C   UNL     1       1.084  -6.321  -3.260  0.00  0.00    -0.062 C 
ATOM      7  H   UNL     1      -0.938  -6.514  -3.062  0.00  0.00    -0.081 HD
ENDROOT
BRANCH   1   8
ATOM      8  C   UNL     1      -0.134  -6.344  -1.194  0.00  0.00    +0.017 C 
ATOM      9  C   UNL     1      -1.412  -6.825  -0.503  0.00  0.00    -0.004 C 
BRANCH   8  11
ATOM     10  N   UNL     1       0.409  -4.175  -0.136  0.00  0.00    -0.285 N 
ATOM     11  C   UNL     1      -0.100  -4.837  -1.194  0.00  0.00    +0.203 C 
ATOM     12  O   UNL     1      -0.529  -4.221  -2.146  0.00  0.00    -0.277 OA
ATOM     13  H   UNL     1       0.821  -4.667   0.592  0.00  0.00    +0.155 HD
BRANCH  10  18
ATOM     14  C   UNL     1       0.138   1.491   0.061  0.00  0.00    +0.044 C 
ATOM     15  C   UNL     1       0.211  -0.013   0.009  0.00  0.00    -0.048 A 
ATOM     16  C   UNL     1      -0.656  -0.719  -0.805  0.00  0.00    +0.005 A 
ATOM     17  C   UNL     1      -0.593  -2.098  -0.855  0.00  0.00    +0.026 A 
ATOM     18  C   UNL     1       0.343  -2.777  -0.087  0.00  0.00    +0.069 A 
ATOM     19  C   UNL     1       1.214  -2.066   0.730  0.00  0.00    +0.145 A 
ATOM     20  C   UNL     1       1.149  -0.685   0.772  0.00  0.00    +0.043 A 
ATOM     21  F   UNL     1       2.127  -2.723   1.480  0.00  0.00    -0.204 F 
ENDBRANCH  10  18
ENDBRANCH   8  11
ENDBRANCH   1   8
BRANCH   4  22
ATOM     22  C   UNL     1       1.170  -8.800  -6.094  0.00  0.00    +0.180 C 
BRANCH  22  23
ATOM     23  C   UNL     1       2.503  -8.441  -6.698  0.00  0.00    +0.227 C 
ATOM     24  O   UNL     1       3.315  -7.817  -6.047  0.00  0.00    -0.274 OA
ATOM     25  N   UNL     1       2.794  -8.813  -7.960  0.00  0.00    -0.312 N 
ATOM     26  H   UNL     1       2.145  -9.311  -8.480  0.00  0.00    +0.149 HD
BRANCH  25  27
ATOM     27  C   UNL     1       4.090  -8.463  -8.546  0.00  0.00    +0.067 C 
ATOM     28  C   UNL     1       5.128  -9.517  -8.154  0.00  0.00    +0.027 C 
ATOM     29  C   UNL     1       3.964  -8.415 -10.071  0.00  0.00    +0.027 C 
ENDBRANCH  25  27
ENDBRANCH  22  23
ENDBRANCH   4  22
TORSDOF 6
