REMARK  Name = ZINC21725864
REMARK  4 active torsions:
REMARK  status: ('A' for Active; 'I' for Inactive)
REMARK    1  A    between atoms: C_4  and  C_7
REMARK    2  A    between atoms: C_7  and  O_8
REMARK    3  A    between atoms: O_8  and  C_9
REMARK    4  A    between atoms: C_13  and  C_15
REMARK                            x       y       z     vdW  Elec       q    Type
REMARK                         _______ _______ _______ _____ _____    ______ ____
ROOT
ATOM      1  C   UNL     1       2.227  -7.495  -0.069  0.00  0.00    +0.063 C 
ATOM      2  C   UNL     1       0.863  -7.395  -0.757  0.00  0.00    +0.109 C 
ATOM      3  C   UNL     1       0.103  -6.183  -0.299  0.00  0.00    +0.219 C 
ATOM      4  O   UNL     1      -1.100  -6.261  -0.171  0.00  0.00    -0.275 OA
ATOM      5  N   UNL     1       0.714  -5.011  -0.025  0.00  0.00    -0.270 N 
ATOM      6  C   UNL     1       2.107  -4.978  -0.044  0.00  0.00    +0.134 A 
ATOM      7  C   UNL     1       2.856  -6.125  -0.061  0.00  0.00    +0.020 A 
ATOM      8  C   UNL     1       4.195  -5.763  -0.071  0.00  0.00    +0.141 A 
ATOM      9  N   UNL     1       4.268  -4.452  -0.069  0.00  0.00    -0.171 NA
ATOM     10  N   UNL     1       2.963  -3.933  -0.047  0.00  0.00    -0.194 N 
ATOM     11  C   UNL     1       2.615  -2.587  -0.036  0.00  0.00    +0.196 A 
ATOM     12  N   UNL     1       1.420  -2.046  -0.022  0.00  0.00    -0.221 NA
ATOM     13  C   UNL     1       1.228  -0.710  -0.013  0.00  0.00    +0.081 A 
ATOM     14  C   UNL     1       0.002  -0.004   0.002  0.00  0.00    +0.029 A 
ATOM     15  C   UNL     1      -0.017   1.366   0.010  0.00  0.00    +0.002 A 
ATOM     16  C   UNL     1       1.157   2.107   0.002  0.00  0.00    +0.001 A 
ATOM     17  C   UNL     1       2.373   1.450  -0.013  0.00  0.00    +0.017 A 
ATOM     18  C   UNL     1       2.402   0.078  -0.021  0.00  0.00    +0.041 A 
ATOM     19  S   UNL     1       3.682  -1.153  -0.039  0.00  0.00    -0.048 S 
ATOM     20  H   UNL     1       0.114  -4.118   0.204  0.00  0.00    +0.156 HD
ENDROOT
BRANCH   1  25
ATOM     21  C   UNL     1       2.502  -9.587   3.066  0.00  0.00    +0.121 A 
ATOM     22  C   UNL     1       1.714  -8.863   3.949  0.00  0.00    +0.045 A 
ATOM     23  C   UNL     1       1.096  -7.701   3.529  0.00  0.00    +0.004 A 
ATOM     24  C   UNL     1       1.268  -7.256   2.231  0.00  0.00    +0.004 A 
ATOM     25  C   UNL     1       2.047  -7.979   1.347  0.00  0.00    -0.036 A 
ATOM     26  C   UNL     1       2.667  -9.142   1.763  0.00  0.00    +0.050 A 
BRANCH  21  27
ATOM     27  O   UNL     1       3.110 -10.730   3.477  0.00  0.00    -0.487 OA
BRANCH  27  28
ATOM     28  C   UNL     1       2.895 -11.129   4.833  0.00  0.00    +0.264 C 
BRANCH  28  32
ATOM     29  C   UNL     1       5.012 -14.758   5.604  0.00  0.00    +0.000 A 
ATOM     30  C   UNL     1       5.629 -13.539   5.817  0.00  0.00    +0.000 A 
ATOM     31  C   UNL     1       4.944 -12.364   5.567  0.00  0.00    +0.007 A 
ATOM     32  C   UNL     1       3.642 -12.409   5.105  0.00  0.00    -0.010 A 
ATOM     33  C   UNL     1       3.023 -13.627   4.897  0.00  0.00    +0.007 A 
ATOM     34  C   UNL     1       3.709 -14.802   5.143  0.00  0.00    +0.000 A 
ENDBRANCH  28  32
ENDBRANCH  27  28
ENDBRANCH  21  27
ENDBRANCH   1  25
TORSDOF 4
