REMARK  Name = ZINC64062204
REMARK  8 active torsions:
REMARK  status: ('A' for Active; 'I' for Inactive)
REMARK    1  A    between atoms: C_1  and  O_2
REMARK    2  A    between atoms: O_2  and  C_3
REMARK    3  A    between atoms: C_8  and  S_13
REMARK    4  A    between atoms: S_13  and  C_14
REMARK    5  A    between atoms: C_14  and  C_15
REMARK    6  A    between atoms: N_17  and  C_18
REMARK    7  A    between atoms: C_24  and  O_28
REMARK    8  A    between atoms: O_28  and  C_29
REMARK                            x       y       z     vdW  Elec       q    Type
REMARK                         _______ _______ _______ _____ _____    ______ ____
ROOT
ATOM      1  C   UNL     1      -4.587  -4.544   4.199  0.00  0.00    +0.225 C 
ATOM      2  O   UNL     1      -5.254  -5.557   4.213  0.00  0.00    -0.275 OA
ATOM      3  N   UNL     1      -4.202  -3.974   5.358  0.00  0.00    -0.288 N 
ATOM      4  H   UNL     1      -3.669  -3.163   5.346  0.00  0.00    +0.151 HD
ENDROOT
BRANCH   3   5
ATOM      5  C   UNL     1      -4.589  -4.578   6.635  0.00  0.00    +0.224 C 
ATOM      6  N   UNL     1      -3.850  -3.972   7.751  0.00  0.00    -0.316 N 
ATOM      7  C   UNL     1      -4.592  -3.306   8.730  0.00  0.00    +0.043 A 
ATOM      8  C   UNL     1      -4.062  -2.669   9.865  0.00  0.00    +0.027 A 
ATOM      9  C   UNL     1      -4.877  -2.038  10.776  0.00  0.00    +0.047 A 
ATOM     10  C   UNL     1      -6.253  -2.009  10.604  0.00  0.00    +0.121 A 
ATOM     11  C   UNL     1      -6.803  -2.631   9.491  0.00  0.00    +0.062 A 
ATOM     12  C   UNL     1      -5.982  -3.261   8.583  0.00  0.00    +0.035 A 
ATOM     13  S   UNL     1      -6.319  -4.144   7.075  0.00  0.00    -0.082 S 
ATOM     14  H   UNL     1      -2.884  -4.032   7.807  0.00  0.00    +0.149 HD
BRANCH  10  15
ATOM     15  O   UNL     1      -7.050  -1.384  11.511  0.00  0.00    -0.495 OA
ATOM     16  C   UNL     1      -6.404  -0.770  12.628  0.00  0.00    +0.277 C 
ENDBRANCH  10  15
ENDBRANCH   3   5
BRANCH   1  17
ATOM     17  C   UNL     1      -4.190  -3.922   2.885  0.00  0.00    +0.168 C 
BRANCH  17  18
ATOM     18  S   UNL     1      -4.855  -4.915   1.520  0.00  0.00    -0.106 S 
BRANCH  18  24
ATOM     19  C   UNL     1      -1.198  -0.636   0.010  0.00  0.00    +0.122 A 
ATOM     20  C   UNL     1      -2.418   0.160   0.020  0.00  0.00    +0.048 A 
ATOM     21  C   UNL     1      -3.638  -0.408   0.029  0.00  0.00    +0.031 A 
ATOM     22  C   UNL     1      -3.762  -1.873   0.028  0.00  0.00    +0.061 A 
ATOM     23  N   UNL     1      -4.795  -2.665   0.036  0.00  0.00    -0.355 N 
ATOM     24  C   UNL     1      -4.295  -4.045   0.030  0.00  0.00    +0.236 C 
ATOM     25  N   UNL     1      -2.830  -3.955   0.019  0.00  0.00    -0.355 N 
ATOM     26  C   UNL     1      -2.517  -2.688   0.017  0.00  0.00    +0.064 A 
ATOM     27  C   UNL     1      -1.229  -1.991   0.003  0.00  0.00    +0.073 A 
ATOM     28  H   UNL     1      -5.726  -2.393   0.044  0.00  0.00    +0.162 HD
ATOM     29  H   UNL     1      -2.209  -4.700   0.013  0.00  0.00    +0.162 HD
BRANCH  19  31
ATOM     30  C   UNL     1      -0.017   1.425   0.010  0.00  0.00    +0.277 C 
ATOM     31  O   UNL     1       0.002  -0.004   0.002  0.00  0.00    -0.495 OA
ENDBRANCH  19  31
ENDBRANCH  18  24
ENDBRANCH  17  18
ENDBRANCH   1  17
TORSDOF 6
