REMARK  Name = ZINC01844685
REMARK  7 active torsions:
REMARK  status: ('A' for Active; 'I' for Inactive)
REMARK    1  A    between atoms: C_1  and  O_2
REMARK    2  A    between atoms: O_2  and  C_3
REMARK    3  A    between atoms: C_6  and  N_9
REMARK    4  A    between atoms: C_18  and  C_22
REMARK    5  A    between atoms: C_18  and  N_26
REMARK    6  A    between atoms: N_26  and  S_27
REMARK    7  A    between atoms: S_27  and  C_30
REMARK                            x       y       z     vdW  Elec       q    Type
REMARK                         _______ _______ _______ _____ _____    ______ ____
ROOT
ATOM      1  N   UNL     1      -1.537   4.277   0.333  0.00  0.00    -0.249 N 
ATOM      2  C   UNL     1      -0.465   3.425   0.507  0.00  0.00    +0.125 A 
ATOM      3  C   UNL     1       0.788   3.903   0.266  0.00  0.00    +0.095 A 
ATOM      4  C   UNL     1       0.969   5.229  -0.149  0.00  0.00    +0.262 A 
ATOM      5  O   UNL     1       2.089   5.659  -0.365  0.00  0.00    -0.267 OA
ATOM      6  N   UNL     1      -0.110   6.025  -0.304  0.00  0.00    -0.274 N 
ATOM      7  H   UNL     1       0.009   6.974  -0.599  0.00  0.00    +0.173 HD
ATOM      8  C   UNL     1      -1.344   5.546  -0.065  0.00  0.00    +0.335 A 
ATOM      9  O   UNL     1      -2.304   6.277  -0.211  0.00  0.00    -0.246 OA
ATOM     10  C   UNL     1       1.744   2.765   0.535  0.00  0.00    +0.243 C 
ATOM     11  C   UNL     1       0.833   1.627   0.949  0.00  0.00    +0.254 C 
ATOM     12  O   UNL     1       1.169   0.505   1.261  0.00  0.00    -0.273 OA
ATOM     13  N   UNL     1      -0.422   2.107   0.895  0.00  0.00    -0.269 N 
ATOM     14  H   UNL     1      -1.209   1.582   1.109  0.00  0.00    +0.156 HD
ENDROOT
BRANCH   1  18
ATOM     15  C   UNL     1      -5.410   2.902   1.048  0.00  0.00    +0.120 A 
ATOM     16  C   UNL     1      -4.431   2.755   2.021  0.00  0.00    +0.047 A 
ATOM     17  C   UNL     1      -3.149   3.210   1.784  0.00  0.00    +0.030 A 
ATOM     18  C   UNL     1      -2.839   3.814   0.573  0.00  0.00    +0.053 A 
ATOM     19  C   UNL     1      -3.820   3.966  -0.397  0.00  0.00    +0.030 A 
ATOM     20  C   UNL     1      -5.101   3.505  -0.162  0.00  0.00    +0.047 A 
BRANCH  15  22
ATOM     21  C   UNL     1      -7.629   2.637   0.236  0.00  0.00    +0.277 C 
ATOM     22  O   UNL     1      -6.672   2.454   1.281  0.00  0.00    -0.495 OA
ENDBRANCH  15  22
ENDBRANCH   1  18
BRANCH  10  23
ATOM     23  C   UNL     1       2.705   3.126   1.670  0.00  0.00    +0.422 C 
ATOM     24  F   UNL     1       3.437   1.992   2.039  0.00  0.00    -0.168 F 
ATOM     25  F   UNL     1       3.582   4.127   1.238  0.00  0.00    -0.168 F 
ATOM     26  F   UNL     1       1.975   3.588   2.770  0.00  0.00    -0.168 F 
ENDBRANCH  10  23
BRANCH  10  27
ATOM     27  N   UNL     1       2.489   2.415  -0.677  0.00  0.00    -0.162 NA
ATOM     28  H   UNL     1       3.432   2.632  -0.747  0.00  0.00    +0.150 HD
BRANCH  27  29
ATOM     29  S   UNL     1       1.721   1.651  -1.929  0.00  0.00    +0.060 S 
ATOM     30  O   UNL     1       2.713   1.380  -2.910  0.00  0.00    -0.153 OA
ATOM     31  O   UNL     1       0.922   0.627  -1.351  0.00  0.00    -0.153 OA
BRANCH  29  32
ATOM     32  C   UNL     1       0.608   2.813  -2.646  0.00  0.00    +0.105 A 
ATOM     33  C   UNL     1      -0.733   2.782  -2.313  0.00  0.00    +0.030 A 
ATOM     34  C   UNL     1      -1.606   3.698  -2.870  0.00  0.00    +0.022 A 
ATOM     35  C   UNL     1      -1.138   4.638  -3.771  0.00  0.00    +0.041 A 
ATOM     36  C   UNL     1       0.203   4.666  -4.108  0.00  0.00    +0.022 A 
ATOM     37  C   UNL     1       1.076   3.753  -3.546  0.00  0.00    +0.030 A 
ATOM     38 CL   UNL     1      -2.235   5.784  -4.477  0.00  0.00    -0.084 Cl
ENDBRANCH  29  32
ENDBRANCH  27  29
ENDBRANCH  10  27
TORSDOF 6
