REMARK  Name = ZINC39481751
REMARK  9 active torsions:
REMARK  status: ('A' for Active; 'I' for Inactive)
REMARK    1  A    between atoms: C_1  and  C_2
REMARK    2  A    between atoms: C_2  and  C_3
REMARK    3  A    between atoms: C_2  and  C_4
REMARK    4  A    between atoms: C_4  and  C_5
REMARK    5  A    between atoms: C_8  and  N_19
REMARK    6  A    between atoms: C_9  and  N_11
REMARK    7  A    between atoms: N_19  and  S_20
REMARK    8  A    between atoms: S_20  and  C_23
REMARK    9  A    between atoms: C_28  and  O_29
REMARK                            x       y       z     vdW  Elec       q    Type
REMARK                         _______ _______ _______ _____ _____    ______ ____
ROOT
ATOM      1  C   UNL     1      -0.184  -2.380   0.056  0.00  0.00    -0.045 A 
ATOM      2  C   UNL     1      -0.476  -2.828  -1.219  0.00  0.00    +0.005 A 
ATOM      3  C   UNL     1      -0.788  -4.157  -1.435  0.00  0.00    +0.026 A 
ATOM      4  C   UNL     1      -0.809  -5.046  -0.371  0.00  0.00    +0.069 A 
ATOM      5  C   UNL     1      -0.514  -4.595   0.915  0.00  0.00    +0.053 A 
ATOM      6  C   UNL     1      -0.198  -3.261   1.122  0.00  0.00    +0.028 A 
ENDROOT
BRANCH   5   7
ATOM      7  N   UNL     1      -0.534  -5.487   1.994  0.00  0.00    -0.325 N 
ATOM      8  C   UNL     1       0.679  -6.220   2.390  0.00  0.00    +0.120 C 
ATOM      9  C   UNL     1       0.336  -7.710   2.490  0.00  0.00    +0.101 C 
ATOM     10  N   UNL     1      -0.816  -7.886   3.385  0.00  0.00    -0.302 NA
ATOM     11  C   UNL     1      -2.013  -7.227   2.847  0.00  0.00    +0.139 C 
ATOM     12  C   UNL     1      -1.765  -5.712   2.766  0.00  0.00    +0.135 C 
ATOM     13 BR   UNL     1      -3.542  -7.577   4.033  0.00  0.00    -0.070 Br
ATOM     14  H   UNL     1      -0.990  -8.863   3.563  0.00  0.00    +0.123 HD
ENDBRANCH   5   7
BRANCH   4  15
ATOM     15  N   UNL     1      -1.125  -6.393  -0.587  0.00  0.00    -0.214 N 
ATOM     16  H   UNL     1      -1.625  -6.887   0.081  0.00  0.00    +0.174 HD
BRANCH  15  17
ATOM     17  S   UNL     1      -0.644  -7.143  -1.983  0.00  0.00    +0.076 S 
ATOM     18  O   UNL     1       0.718  -6.793  -2.184  0.00  0.00    -0.150 OA
ATOM     19  O   UNL     1      -1.078  -8.492  -1.890  0.00  0.00    -0.150 OA
BRANCH  17  20
ATOM     20  C   UNL     1      -1.552  -6.412  -3.305  0.00  0.00    +0.150 A 
ATOM     21  C   UNL     1      -0.888  -5.718  -4.299  0.00  0.00    +0.032 A 
ATOM     22  C   UNL     1      -1.600  -5.145  -5.336  0.00  0.00    +0.002 A 
ATOM     23  C   UNL     1      -2.977  -5.265  -5.383  0.00  0.00    +0.004 A 
ATOM     24  C   UNL     1      -3.644  -5.958  -4.393  0.00  0.00    +0.047 A 
ATOM     25  C   UNL     1      -2.932  -6.539  -3.353  0.00  0.00    +0.143 A 
BRANCH  25  26
ATOM     26  O   UNL     1      -3.587  -7.227  -2.381  0.00  0.00    -0.505 OA
ATOM     27  H   UNL     1      -3.877  -6.679  -1.639  0.00  0.00    +0.292 HD
ENDBRANCH  25  26
ENDBRANCH  17  20
ENDBRANCH  15  17
ENDBRANCH   4  15
BRANCH   1  28
ATOM     28  C   UNL     1       0.155  -0.930   0.284  0.00  0.00    +0.038 C 
BRANCH  28  30
ATOM     29  C   UNL     1       1.995   0.760   0.245  0.00  0.00    +0.007 C 
ATOM     30  C   UNL     1       1.665  -0.730   0.138  0.00  0.00    -0.013 C 
ATOM     31  C   UNL     1       2.390  -1.494   1.247  0.00  0.00    +0.007 C 
ENDBRANCH  28  30
ENDBRANCH   1  28
TORSDOF 7
