REMARK  Name = ZINC67638554
REMARK  11 active torsions:
REMARK  status: ('A' for Active; 'I' for Inactive)
REMARK    1  A    between atoms: C_1  and  C_2
REMARK    2  A    between atoms: C_4  and  C_14
REMARK    3  A    between atoms: C_8  and  C_13
REMARK    4  A    between atoms: C_9  and  C_12
REMARK    5  A    between atoms: C_14  and  N_15
REMARK    6  A    between atoms: N_18  and  C_19
REMARK    7  A    between atoms: C_19  and  C_20
REMARK    8  A    between atoms: C_20  and  C_22
REMARK    9  A    between atoms: C_20  and  O_30
REMARK   10  A    between atoms: C_22  and  N_23
REMARK   11  A    between atoms: C_26  and  C_29
REMARK                            x       y       z     vdW  Elec       q    Type
REMARK                         _______ _______ _______ _____ _____    ______ ____
ROOT
ATOM      1  N   UNL     1      -1.329  -3.254  -2.862  0.00  0.00    -0.295 N 
ATOM      2  C   UNL     1      -1.569  -3.935  -4.000  0.00  0.00    +0.300 C 
ATOM      3  O   UNL     1      -0.660  -4.164  -4.774  0.00  0.00    -0.253 OA
ATOM      4  N   UNL     1      -2.816  -4.362  -4.280  0.00  0.00    -0.297 N 
ATOM      5  H   UNL     1      -2.055  -3.072  -2.244  0.00  0.00    +0.151 HD
ATOM      6  H   UNL     1      -3.542  -4.179  -3.663  0.00  0.00    +0.150 HD
ENDROOT
BRANCH   1   7
ATOM      7  C   UNL     1       0.026  -2.791  -2.557  0.00  0.00    +0.143 C 
BRANCH   7  11
ATOM      8  C   UNL     1      -0.018   1.503   0.010  0.00  0.00    +0.044 C 
ATOM      9  C   UNL     1       0.002  -0.004   0.002  0.00  0.00    -0.049 A 
ATOM     10  C   UNL     1       0.006  -0.686  -1.207  0.00  0.00    +0.010 A 
ATOM     11  C   UNL     1       0.024  -2.063  -1.237  0.00  0.00    -0.006 A 
ATOM     12  C   UNL     1       0.039  -2.780  -0.045  0.00  0.00    +0.052 A 
ATOM     13  C   UNL     1       0.036  -2.084   1.178  0.00  0.00    +0.003 A 
ATOM     14  C   UNL     1       0.023  -0.688   1.185  0.00  0.00    +0.013 A 
ATOM     15  C   UNL     1       0.055  -3.107   2.226  0.00  0.00    -0.022 A 
ATOM     16  C   UNL     1       0.067  -4.300   1.610  0.00  0.00    +0.017 A 
ATOM     17  N   UNL     1       0.058  -4.124   0.253  0.00  0.00    -0.358 N 
ATOM     18  H   UNL     1       0.065  -4.840  -0.402  0.00  0.00    +0.166 HD
ATOM     19  C   UNL     1       0.088  -5.635   2.309  0.00  0.00    +0.063 C 
ATOM     20  C   UNL     1       0.059  -2.867   3.713  0.00  0.00    +0.046 C 
ENDBRANCH   7  11
ENDBRANCH   1   7
BRANCH   4  21
ATOM     21  C   UNL     1      -3.077  -5.101  -5.518  0.00  0.00    +0.135 C 
BRANCH  21  22
ATOM     22  C   UNL     1      -4.561  -5.465  -5.592  0.00  0.00    +0.115 C 
BRANCH  22  23
ATOM     23  O   UNL     1      -4.908  -6.278  -4.469  0.00  0.00    -0.392 OA
ATOM     24  H   UNL     1      -4.413  -7.107  -4.415  0.00  0.00    +0.210 HD
ENDBRANCH  22  23
BRANCH  22  25
ATOM     25  C   UNL     1      -4.833  -6.238  -6.884  0.00  0.00    -0.046 C 
BRANCH  25  26
ATOM     26  N   UNL     1      -6.275  -6.483  -7.013  0.00  0.00    +0.381 N 
ATOM     27  C   UNL     1      -6.977  -5.203  -7.162  0.00  0.00    -0.078 C 
ATOM     28  C   UNL     1      -8.487  -5.447  -7.215  0.00  0.00    -0.016 C 
ATOM     29  C   UNL     1      -8.810  -6.349  -8.410  0.00  0.00    -0.018 C 
ATOM     30  C   UNL     1      -8.015  -7.652  -8.283  0.00  0.00    -0.016 C 
ATOM     31  C   UNL     1      -6.523  -7.326  -8.189  0.00  0.00    -0.078 C 
ATOM     32  C   UNL     1     -10.307  -6.662  -8.424  0.00  0.00    +0.007 C 
ATOM     33  H   UNL     1      -6.611  -6.955  -6.187  0.00  0.00    -0.082 HD
ENDBRANCH  25  26
ENDBRANCH  22  25
ENDBRANCH  21  22
ENDBRANCH   4  21
TORSDOF 7
