REMARK  Name = ZINC19314522
REMARK  8 active torsions:
REMARK  status: ('A' for Active; 'I' for Inactive)
REMARK    1  A    between atoms: C_1  and  C_2
REMARK    2  A    between atoms: C_2  and  O_3
REMARK    3  A    between atoms: O_3  and  C_4
REMARK    4  A    between atoms: C_6  and  C_20
REMARK    5  A    between atoms: C_11  and  C_15
REMARK    6  A    between atoms: C_11  and  C_16
REMARK    7  A    between atoms: C_18  and  C_19
REMARK    8  A    between atoms: C_25  and  C_26
REMARK                            x       y       z     vdW  Elec       q    Type
REMARK                         _______ _______ _______ _____ _____    ______ ____
ROOT
ATOM      1  C   UNL     1       0.636  -1.798   1.419  0.00  0.00    +0.338 C 
ATOM      2  C   UNL     1       1.372  -2.330   2.457  0.00  0.00    +0.069 C 
ATOM      3  C   UNL     1       1.388  -3.815   2.663  0.00  0.00    +0.093 C 
ATOM      4  C   UNL     1       2.244  -4.191   3.845  0.00  0.00    +0.028 C 
ATOM      5  C   UNL     1       2.899  -3.234   4.583  0.00  0.00    +0.049 C 
ATOM      6  C   UNL     1       3.760  -3.630   5.760  0.00  0.00    +0.062 C 
ATOM      7  C   UNL     1       3.203  -4.903   6.399  0.00  0.00    -0.023 C 
ATOM      8  C   UNL     1       3.176  -6.008   5.338  0.00  0.00    +0.086 C 
ATOM      9  C   UNL     1       2.350  -5.546   4.170  0.00  0.00    +0.162 C 
ATOM     10  O   UNL     1       1.762  -6.369   3.494  0.00  0.00    -0.292 OA
ATOM     11  C   UNL     1       4.099  -5.329   7.563  0.00  0.00    +0.011 C 
ATOM     12  C   UNL     1       1.783  -4.643   6.907  0.00  0.00    +0.011 C 
ATOM     13  N   UNL     1       2.800  -1.939   4.292  0.00  0.00    -0.256 NA
ATOM     14  C   UNL     1       2.087  -1.481   3.286  0.00  0.00    +0.049 C 
ATOM     15  C   UNL     1       2.042   0.004   3.034  0.00  0.00    +0.066 C 
ATOM     16  O   UNL     1      -0.009  -2.615   0.563  0.00  0.00    -0.245 OA
ENDROOT
BRANCH   3  17
ATOM     17  C   UNL     1      -0.021  -4.296   2.900  0.00  0.00    -0.024 A 
ATOM     18  C   UNL     1      -0.746  -3.809   3.971  0.00  0.00    +0.005 A 
ATOM     19  C   UNL     1      -2.037  -4.250   4.189  0.00  0.00    +0.000 A 
ATOM     20  C   UNL     1      -2.604  -5.178   3.336  0.00  0.00    +0.001 A 
ATOM     21  C   UNL     1      -1.879  -5.664   2.264  0.00  0.00    +0.012 A 
ATOM     22  C   UNL     1      -0.589  -5.220   2.043  0.00  0.00    +0.059 A 
BRANCH  22  23
ATOM     23  C   UNL     1       0.200  -5.746   0.872  0.00  0.00    +0.418 C 
ATOM     24  F   UNL     1      -0.581  -6.661   0.158  0.00  0.00    -0.166 F 
ATOM     25  F   UNL     1       0.556  -4.683   0.035  0.00  0.00    -0.166 F 
ATOM     26  F   UNL     1       1.356  -6.382   1.336  0.00  0.00    -0.166 F 
ENDBRANCH  22  23
ENDBRANCH   3  17
BRANCH   1  27
ATOM     27  O   UNL     1       0.562  -0.462   1.261  0.00  0.00    -0.462 OA
BRANCH  27  29
ATOM     28  C   UNL     1      -0.185   1.548   0.147  0.00  0.00    +0.048 C 
ATOM     29  C   UNL     1      -0.218   0.019   0.165  0.00  0.00    +0.229 C 
ENDBRANCH  27  29
ENDBRANCH   1  27
TORSDOF 4
