REMARK  Name = ZINC43758411
REMARK  12 active torsions:
REMARK  status: ('A' for Active; 'I' for Inactive)
REMARK    1  A    between atoms: C_1  and  C_2
REMARK    2  A    between atoms: C_2  and  C_4
REMARK    3  A    between atoms: C_2  and  C_10
REMARK    4  A    between atoms: C_4  and  C_5
REMARK    5  A    between atoms: C_5  and  C_6
REMARK    6  A    between atoms: C_6  and  C_7
REMARK    7  A    between atoms: C_7  and  C_8
REMARK    8  A    between atoms: C_7  and  C_9
REMARK    9  A    between atoms: C_16  and  C_36
REMARK   10  A    between atoms: C_26  and  O_35
REMARK   11  A    between atoms: C_27  and  C_34
REMARK   12  A    between atoms: C_30  and  O_33
REMARK                            x       y       z     vdW  Elec       q    Type
REMARK                         _______ _______ _______ _____ _____    ______ ____
ROOT
ATOM      1  C   UNL     1       0.848  -0.507   1.174  0.00  0.00    -0.002 C 
ATOM      2  C   UNL     1       0.934  -2.046   1.145  0.00  0.00    +0.004 C 
ATOM      3  C   UNL     1       0.297  -2.546   2.460  0.00  0.00    +0.004 C 
ATOM      4  C   UNL     1      -0.659  -1.389   2.875  0.00  0.00    -0.001 C 
ATOM      5  C   UNL     1       0.175  -0.147   2.505  0.00  0.00    -0.026 C 
ATOM      6  C   UNL     1      -0.648   1.118   2.416  0.00  0.00    +0.007 C 
ATOM      7  C   UNL     1      -1.841   0.938   1.478  0.00  0.00    +0.005 C 
ATOM      8  C   UNL     1      -2.708  -0.209   2.014  0.00  0.00    +0.002 C 
ATOM      9  C   UNL     1      -1.901  -1.508   1.989  0.00  0.00    +0.004 C 
ATOM     10  C   UNL     1      -2.748  -2.692   2.473  0.00  0.00    +0.081 C 
ATOM     11  C   UNL     1      -3.965  -2.781   1.569  0.00  0.00    +0.165 C 
ATOM     12  O   UNL     1      -4.782  -3.663   1.684  0.00  0.00    -0.294 OA
ATOM     13  C   UNL     1      -4.095  -1.702   0.517  0.00  0.00    +0.131 C 
ATOM     14  C   UNL     1      -3.974  -0.327   1.181  0.00  0.00    +0.007 C 
ATOM     15  C   UNL     1      -4.044   0.779   0.129  0.00  0.00    +0.012 C 
ATOM     16  C   UNL     1      -5.380   0.677  -0.614  0.00  0.00    +0.032 C 
ATOM     17  C   UNL     1      -5.495  -0.691  -1.288  0.00  0.00    +0.118 C 
ATOM     18  C   UNL     1      -5.448  -1.813  -0.185  0.00  0.00    +0.074 C 
ATOM     19  C   UNL     1      -5.183  -0.171   2.104  0.00  0.00    +0.015 C 
ATOM     20  C   UNL     1       1.257   0.060   3.567  0.00  0.00    +0.012 C 
ENDROOT
BRANCH   1  22
ATOM     21  C   UNL     1       0.029   1.525  -0.026  0.00  0.00    +0.008 C 
ATOM     22  C   UNL     1       0.002  -0.004   0.002  0.00  0.00    -0.010 C 
BRANCH  22  23
ATOM     23  C   UNL     1       0.572  -0.549  -1.309  0.00  0.00    +0.003 C 
BRANCH  23  24
ATOM     24  C   UNL     1      -0.344  -0.149  -2.468  0.00  0.00    +0.001 C 
BRANCH  24  25
ATOM     25  C   UNL     1       0.226  -0.694  -3.779  0.00  0.00    +0.003 C 
BRANCH  25  26
ATOM     26  C   UNL     1      -0.690  -0.295  -4.938  0.00  0.00    -0.017 C 
ATOM     27  C   UNL     1      -0.681   1.227  -5.094  0.00  0.00    +0.007 C 
ATOM     28  C   UNL     1      -0.189  -0.943  -6.231  0.00  0.00    +0.007 C 
ENDBRANCH  25  26
ENDBRANCH  24  25
ENDBRANCH  23  24
ENDBRANCH  22  23
ENDBRANCH   1  22
BRANCH  17  29
ATOM     29  O   UNL     1      -6.751  -0.784  -1.962  0.00  0.00    -0.392 OA
ATOM     30  H   UNL     1      -6.879  -0.115  -2.649  0.00  0.00    +0.210 HD
ENDBRANCH  17  29
BRANCH  13  31
ATOM     31  O   UNL     1      -3.045  -1.839  -0.443  0.00  0.00    -0.380 OA
ATOM     32  H   UNL     1      -3.043  -2.688  -0.905  0.00  0.00    +0.211 HD
ENDBRANCH  13  31
TORSDOF 7
