REMARK  Name = ZINC03175644
REMARK  5 active torsions:
REMARK  status: ('A' for Active; 'I' for Inactive)
REMARK    1  A    between atoms: C_1  and  C_2
REMARK    2  A    between atoms: C_2  and  C_33
REMARK    3  A    between atoms: C_4  and  N_69
REMARK    4  A    between atoms: N_9  and  C_22
REMARK    5  A    between atoms: P_10  and  N_12
REMARK                            x       y       z     vdW  Elec       q    Type
REMARK                         _______ _______ _______ _____ _____    ______ ____
ROOT
ATOM      1  C   UNL     1      -0.599  -7.119  -4.630  0.00  0.00    +0.015 C 
ATOM      2  C   UNL     1      -0.126  -5.990  -3.711  0.00  0.00    -0.010 C 
ATOM      3  C   UNL     1      -0.793  -6.154  -2.356  0.00  0.00    +0.060 C 
ATOM      4  C   UNL     1      -0.138  -5.294  -1.296  0.00  0.00    +0.004 C 
ATOM      5  C   UNL     1       1.152  -5.058  -1.413  0.00  0.00    +0.052 C 
ATOM      6  C   UNL     1       1.990  -5.502  -2.561  0.00  0.00    +0.054 C 
ATOM      7  C   UNL     1       1.377  -6.020  -3.645  0.00  0.00    +0.005 C 
ATOM      8  N   UNL     1       3.327  -5.297  -2.331  0.00  0.00    -0.259 N 
ATOM      9  N   UNL     1       3.738  -4.510  -1.250  0.00  0.00    -0.209 N 
ATOM     10  P   UNL     1       2.362  -4.195  -0.368  0.00  0.00    +0.124 P 
ATOM     11  S   UNL     1       2.455  -4.946   1.335  0.00  0.00    -0.024 S 
ATOM     12  C   UNL     1      -0.562  -4.653  -4.314  0.00  0.00    +0.015 C 
ATOM     13  H   UNL     1       3.987  -5.697  -2.918  0.00  0.00    +0.171 HD
ENDROOT
BRANCH  10  14
ATOM     14  N   UNL     1       2.044  -2.544  -0.292  0.00  0.00    -0.254 NA
ATOM     15  C   UNL     1       0.989  -2.255   0.693  0.00  0.00    +0.096 C 
ATOM     16  C   UNL     1       0.998  -0.755   0.988  0.00  0.00    +0.051 C 
ATOM     17  C   UNL     1       0.974   0.024  -0.303  0.00  0.00    -0.042 A 
ATOM     18  C   UNL     1       0.626   1.365  -0.260  0.00  0.00    +0.004 A 
ATOM     19  C   UNL     1       0.597   2.116  -1.418  0.00  0.00    +0.000 A 
ATOM     20  C   UNL     1       0.916   1.527  -2.627  0.00  0.00    +0.000 A 
ATOM     21  C   UNL     1       1.260   0.191  -2.671  0.00  0.00    +0.005 A 
ATOM     22  C   UNL     1       1.290  -0.565  -1.509  0.00  0.00    -0.030 A 
ATOM     23  C   UNL     1       1.667  -2.020  -1.608  0.00  0.00    +0.126 C 
ENDBRANCH  10  14
BRANCH   4  29
ATOM     24  C   UNL     1      -1.976  -3.844  -0.488  0.00  0.00    +0.085 C 
ATOM     25  C   UNL     1      -3.233  -4.385   0.209  0.00  0.00    +0.017 C 
ATOM     26  C   UNL     1      -2.927  -4.623   1.689  0.00  0.00    +0.003 C 
ATOM     27  C   UNL     1      -1.817  -5.668   1.821  0.00  0.00    +0.017 C 
ATOM     28  C   UNL     1      -0.546  -5.145   1.142  0.00  0.00    +0.085 C 
ATOM     29  N   UNL     1      -1.095  -5.053  -0.264  0.00  0.00    -0.396 NA
ATOM     30  H   UNL     1      -1.736  -5.851  -0.340  0.00  0.00    +0.126 HD
ENDBRANCH   4  29
BRANCH   9  31
ATOM     31  C   UNL     1       5.036  -4.079  -0.967  0.00  0.00    +0.054 A 
ATOM     32  C   UNL     1       5.264  -3.199   0.083  0.00  0.00    +0.025 A 
ATOM     33  C   UNL     1       6.550  -2.778   0.362  0.00  0.00    +0.002 A 
ATOM     34  C   UNL     1       7.608  -3.224  -0.408  0.00  0.00    +0.000 A 
ATOM     35  C   UNL     1       7.384  -4.096  -1.458  0.00  0.00    +0.002 A 
ATOM     36  C   UNL     1       6.101  -4.525  -1.739  0.00  0.00    +0.025 A 
ENDBRANCH   9  31
TORSDOF 3
