REMARK  Name = ZINC20696683
REMARK  11 active torsions:
REMARK  status: ('A' for Active; 'I' for Inactive)
REMARK    1  A    between atoms: C_1  and  C_2
REMARK    2  A    between atoms: C_2  and  N_3
REMARK    3  A    between atoms: N_3  and  C_4
REMARK    4  A    between atoms: N_3  and  C_6
REMARK    5  A    between atoms: C_4  and  C_5
REMARK    6  A    between atoms: C_9  and  C_12
REMARK    7  A    between atoms: C_23  and  S_28
REMARK    8  A    between atoms: S_28  and  N_31
REMARK    9  A    between atoms: N_31  and  C_32
REMARK   10  A    between atoms: C_32  and  C_33
REMARK   11  A    between atoms: C_33  and  C_34
REMARK                            x       y       z     vdW  Elec       q    Type
REMARK                         _______ _______ _______ _____ _____    ______ ____
ROOT
ATOM      1  C   UNL     1       1.238   2.179   0.002  0.00  0.00    +0.105 C 
ATOM      2  C   UNL     1       2.235   1.362   0.804  0.00  0.00    +0.029 C 
ATOM      3  C   UNL     1       3.691   1.849   0.813  0.00  0.00    +0.033 C 
ATOM      4  C   UNL     1       4.454   0.536   0.996  0.00  0.00    -0.030 C 
ATOM      5  C   UNL     1       3.731  -0.477   0.534  0.00  0.00    -0.023 C 
ATOM      6  C   UNL     1       2.462   0.059  -0.019  0.00  0.00    +0.049 C 
ATOM      7  C   UNL     1       1.205  -0.719   0.004  0.00  0.00    -0.018 A 
ATOM      8  C   UNL     1       1.188  -2.097   0.018  0.00  0.00    +0.034 A 
ATOM      9  C   UNL     1      -0.014  -2.780   0.016  0.00  0.00    +0.106 A 
ATOM     10  C   UNL     1      -1.207  -2.080   0.001  0.00  0.00    +0.030 A 
ATOM     11  C   UNL     1      -1.200  -0.701  -0.005  0.00  0.00    +0.025 A 
ATOM     12  C   UNL     1       0.002  -0.004   0.002  0.00  0.00    +0.031 A 
ATOM     13  N   UNL     1      -0.017   1.396   0.010  0.00  0.00    -0.336 N 
ATOM     14  H   UNL     1      -0.988   1.913   0.022  0.00  0.00    +0.147 HD
ENDROOT
BRANCH   1  18
ATOM     15  C   UNL     1       0.616   5.981   1.852  0.00  0.00    +0.030 A 
ATOM     16  C   UNL     1       1.406   5.882   0.714  0.00  0.00    +0.023 A 
ATOM     17  C   UNL     1       1.605   4.652   0.119  0.00  0.00    +0.007 A 
ATOM     18  C   UNL     1       1.018   3.520   0.654  0.00  0.00    -0.027 A 
ATOM     19  C   UNL     1       0.227   3.616   1.784  0.00  0.00    +0.007 A 
ATOM     20  C   UNL     1       0.028   4.842   2.388  0.00  0.00    +0.023 A 
BRANCH  15  21
ATOM     21  N   UNL     1       0.412   7.224   2.457  0.00  0.00    -0.330 N 
BRANCH  21  23
ATOM     22  C   UNL     1       0.452   7.152   4.901  0.00  0.00    +0.024 C 
ATOM     23  C   UNL     1      -0.421   7.327   3.657  0.00  0.00    +0.102 C 
ENDBRANCH  21  23
BRANCH  21  24
ATOM     24  C   UNL     1       1.033   8.424   1.891  0.00  0.00    +0.102 C 
ATOM     25  C   UNL     1       0.085   9.054   0.867  0.00  0.00    +0.024 C 
ENDBRANCH  21  24
ENDBRANCH  15  21
ENDBRANCH   1  18
BRANCH   9  26
ATOM     26  S   UNL     1      -0.027  -4.542   0.032  0.00  0.00    +0.058 S 
ATOM     27  O   UNL     1      -1.271  -4.945  -0.523  0.00  0.00    -0.153 OA
ATOM     28  O   UNL     1       1.220  -4.962  -0.506  0.00  0.00    -0.153 OA
BRANCH  26  29
ATOM     29  N   UNL     1      -0.041  -5.017   1.619  0.00  0.00    -0.190 NA
ATOM     30  H   UNL     1       0.880  -5.417   2.068  0.00  0.00    +0.148 HD
BRANCH  29  31
ATOM     31  C   UNL     1      -1.194  -4.705   2.466  0.00  0.00    +0.110 C 
BRANCH  31  32
ATOM     32  C   UNL     1      -1.135  -5.552   3.739  0.00  0.00    +0.052 C 
BRANCH  32  33
ATOM     33  C   UNL     1      -2.322  -5.232   4.611  0.00  0.00    -0.046 A 
ATOM     34  C   UNL     1      -2.233  -4.228   5.558  0.00  0.00    +0.003 A 
ATOM     35  C   UNL     1      -3.323  -3.931   6.355  0.00  0.00    +0.000 A 
ATOM     36  C   UNL     1      -4.499  -4.644   6.211  0.00  0.00    +0.000 A 
ATOM     37  C   UNL     1      -4.586  -5.650   5.268  0.00  0.00    +0.000 A 
ATOM     38  C   UNL     1      -3.498  -5.944   4.468  0.00  0.00    +0.003 A 
ENDBRANCH  32  33
ENDBRANCH  31  32
ENDBRANCH  29  31
ENDBRANCH  26  29
ENDBRANCH   9  26
TORSDOF 9
