REMARK  Name = ZINC49933630
REMARK  6 active torsions:
REMARK  status: ('A' for Active; 'I' for Inactive)
REMARK    1  A    between atoms: C_1  and  C_2
REMARK    2  A    between atoms: C_2  and  C_3
REMARK    3  A    between atoms: N_9  and  C_10
REMARK    4  A    between atoms: C_10  and  C_11
REMARK    5  A    between atoms: C_15  and  C_21
REMARK    6  A    between atoms: C_16  and  C_20
REMARK                            x       y       z     vdW  Elec       q    Type
REMARK                         _______ _______ _______ _____ _____    ______ ____
ROOT
ATOM      1  C   UNL     1      -2.514   2.286  -2.576  0.00  0.00    +0.116 A 
ATOM      2  N   UNL     1      -1.740   2.445  -3.635  0.00  0.00    -0.219 NA
ATOM      3  C   UNL     1      -2.234   2.600  -4.853  0.00  0.00    +0.128 A 
ATOM      4  C   UNL     1      -3.645   2.597  -5.034  0.00  0.00    +0.050 A 
ATOM      5  C   UNL     1      -4.426   2.745  -6.249  0.00  0.00    -0.028 A 
ATOM      6  C   UNL     1      -5.764   2.709  -6.176  0.00  0.00    -0.008 A 
ATOM      7  S   UNL     1      -6.080   2.468  -4.438  0.00  0.00    -0.074 S 
ATOM      8  C   UNL     1      -4.406   2.423  -3.857  0.00  0.00    +0.114 A 
ATOM      9  N   UNL     1      -3.828   2.270  -2.682  0.00  0.00    -0.227 NA
ATOM     10  C   UNL     1      -6.764   2.841  -7.296  0.00  0.00    +0.052 C 
ATOM     11  C   UNL     1      -3.740   2.938  -7.577  0.00  0.00    +0.045 C 
ATOM     12  N   UNL     1      -1.390   2.763  -5.936  0.00  0.00    -0.343 N 
ATOM     13  H   UNL     1      -0.459   2.998  -5.794  0.00  0.00    +0.144 HD
ATOM     14  H   UNL     1      -1.728   2.643  -6.837  0.00  0.00    +0.144 HD
ENDROOT
BRANCH   1  15
ATOM     15  C   UNL     1      -1.881   2.115  -1.220  0.00  0.00    -0.001 C 
BRANCH  15  21
ATOM     16  C   UNL     1      -0.853   0.535   0.261  0.00  0.00    -0.068 C 
ATOM     17  C   UNL     1      -0.533  -0.944   0.485  0.00  0.00    -0.015 C 
ATOM     18  C   UNL     1      -1.841  -1.730   0.615  0.00  0.00    -0.003 C 
ATOM     19  C   UNL     1      -2.689  -1.503  -0.640  0.00  0.00    -0.019 C 
ATOM     20  C   UNL     1      -2.929  -0.003  -0.821  0.00  0.00    -0.078 C 
ATOM     21  N   UNL     1      -1.642   0.688  -0.967  0.00  0.00    +0.386 N 
ATOM     22  H   UNL     1      -1.134   0.291  -1.743  0.00  0.00    -0.081 HD
BRANCH  16  24
ATOM     23  C   UNL     1       1.214   1.271   1.455  0.00  0.00    +0.002 C 
ATOM     24  C   UNL     1       0.451   1.324   0.130  0.00  0.00    -0.019 C 
ENDBRANCH  16  24
ENDBRANCH  15  21
ENDBRANCH   1  15
TORSDOF 3
