REMARK  Name = ZINC12064259
REMARK  9 active torsions:
REMARK  status: ('A' for Active; 'I' for Inactive)
REMARK    1  A    between atoms: C_1  and  C_2
REMARK    2  A    between atoms: C_9  and  N_15
REMARK    3  A    between atoms: C_10  and  C_11
REMARK    4  A    between atoms: N_13  and  C_14
REMARK    5  A    between atoms: C_16  and  C_18
REMARK    6  A    between atoms: C_21  and  S_24
REMARK    7  A    between atoms: S_24  and  N_27
REMARK    8  A    between atoms: C_29  and  C_36
REMARK    9  A    between atoms: C_32  and  C_35
REMARK                            x       y       z     vdW  Elec       q    Type
REMARK                         _______ _______ _______ _____ _____    ______ ____
ROOT
ATOM      1  N   UNL     1      -8.226   1.148  -1.078  0.00  0.00    -0.275 N 
ATOM      2  C   UNL     1      -7.644   1.499   0.085  0.00  0.00    +0.249 C 
ATOM      3  O   UNL     1      -8.149   1.171   1.141  0.00  0.00    -0.270 OA
ATOM      4  H   UNL     1      -7.824   1.410  -1.921  0.00  0.00    +0.156 HD
ENDROOT
BRANCH   1  12
ATOM      5  C   UNL     1     -14.792  -3.076  -0.602  0.00  0.00    +0.008 C 
ATOM      6  C   UNL     1     -13.435  -2.556  -1.081  0.00  0.00    -0.009 C 
ATOM      7  C   UNL     1     -13.628  -1.676  -2.319  0.00  0.00    +0.008 C 
ATOM      8  C   UNL     1     -12.270  -1.358  -2.948  0.00  0.00    +0.037 C 
ATOM      9  C   UNL     1     -11.350  -0.796  -1.871  0.00  0.00    -0.023 A 
ATOM     10  C   UNL     1     -11.620  -0.981  -0.560  0.00  0.00    -0.004 A 
ATOM     11  S   UNL     1     -10.300  -0.165   0.293  0.00  0.00    -0.077 S 
ATOM     12  C   UNL     1      -9.401   0.413  -1.071  0.00  0.00    +0.085 A 
ATOM     13  C   UNL     1     -10.146  -0.034  -2.153  0.00  0.00    +0.069 A 
ATOM     14  C   UNL     1     -12.785  -1.716   0.027  0.00  0.00    +0.046 C 
BRANCH  13  15
ATOM     15  C   UNL     1      -9.731   0.250  -3.530  0.00  0.00    +0.246 C 
ATOM     16  O   UNL     1      -9.001  -0.526  -4.118  0.00  0.00    -0.270 OA
ATOM     17  N   UNL     1     -10.159   1.370  -4.146  0.00  0.00    -0.314 N 
ATOM     18  C   UNL     1      -9.745   1.653  -5.522  0.00  0.00    +0.128 C 
ATOM     19  H   UNL     1     -10.741   1.988  -3.678  0.00  0.00    +0.149 HD
ENDBRANCH  13  15
ENDBRANCH   1  12
BRANCH   2  20
ATOM     20  C   UNL     1      -6.391   2.283   0.077  0.00  0.00    +0.037 A 
ATOM     21  C   UNL     1      -5.785   2.648   1.280  0.00  0.00    +0.015 A 
ATOM     22  C   UNL     1      -4.615   3.380   1.265  0.00  0.00    +0.029 A 
ATOM     23  C   UNL     1      -4.044   3.752   0.062  0.00  0.00    +0.106 A 
ATOM     24  C   UNL     1      -4.642   3.398  -1.135  0.00  0.00    +0.029 A 
ATOM     25  C   UNL     1      -5.809   2.662  -1.134  0.00  0.00    +0.015 A 
BRANCH  23  26
ATOM     26  S   UNL     1      -2.550   4.687   0.052  0.00  0.00    +0.061 S 
ATOM     27  O   UNL     1      -2.486   5.363   1.300  0.00  0.00    -0.153 OA
ATOM     28  O   UNL     1      -2.510   5.376  -1.190  0.00  0.00    -0.153 OA
BRANCH  26  29
ATOM     29  N   UNL     1      -1.296   3.606   0.034  0.00  0.00    -0.176 NA
ATOM     30  C   UNL     1      -0.741   3.124  -1.238  0.00  0.00    +0.112 C 
ATOM     31  C   UNL     1      -0.752   1.593  -1.232  0.00  0.00    +0.002 C 
ATOM     32  C   UNL     1      -0.013   1.086   0.008  0.00  0.00    +0.009 C 
ATOM     33  C   UNL     1      -0.729   1.579   1.268  0.00  0.00    +0.002 C 
ATOM     34  C   UNL     1      -0.717   3.111   1.290  0.00  0.00    +0.112 C 
ATOM     35  C   UNL     1      -0.008   1.045   2.507  0.00  0.00    +0.009 C 
ATOM     36  C   UNL     1      -2.198   1.093  -1.204  0.00  0.00    +0.009 C 
ENDBRANCH  26  29
ENDBRANCH  23  26
ENDBRANCH   2  20
TORSDOF 5
