REMARK  Name = ZINC05868712
REMARK  6 active torsions:
REMARK  status: ('A' for Active; 'I' for Inactive)
REMARK    1  A    between atoms: C_1  and  C_2
REMARK    2  A    between atoms: C_8  and  N_10
REMARK    3  A    between atoms: C_14  and  C_16
REMARK    4  A    between atoms: C_16  and  O_17
REMARK    5  A    between atoms: O_17  and  C_18
REMARK    6  A    between atoms: C_21  and  C_24
REMARK                            x       y       z     vdW  Elec       q    Type
REMARK                         _______ _______ _______ _____ _____    ______ ____
ROOT
ATOM      1  N   UNL     1       0.010  -0.012  -2.444  0.00  0.00    -0.296 N 
ATOM      2  C   UNL     1       0.111  -0.681  -3.609  0.00  0.00    +0.306 C 
ATOM      3  O   UNL     1       0.789  -1.687  -3.676  0.00  0.00    -0.252 OA
ATOM      4  N   UNL     1      -0.541  -0.235  -4.701  0.00  0.00    -0.237 N 
ATOM      5  C   UNL     1      -0.441  -0.904  -5.867  0.00  0.00    +0.258 C 
ATOM      6  O   UNL     1       0.236  -1.907  -5.933  0.00  0.00    -0.272 OA
ATOM      7  H   UNL     1      -0.532   0.791  -2.391  0.00  0.00    +0.151 HD
ATOM      8  H   UNL     1      -1.083   0.568  -4.648  0.00  0.00    +0.159 HD
ENDROOT
BRANCH   1  15
ATOM      9  C   UNL     1      -1.433  -0.534   0.013  0.00  0.00    +0.009 C 
ATOM     10  C   UNL     1       0.002  -0.004   0.002  0.00  0.00    +0.006 C 
ATOM     11  C   UNL     1      -0.019   1.526   0.010  0.00  0.00    +0.005 C 
ATOM     12  C   UNL     1       1.417   2.055  -0.000  0.00  0.00    +0.000 C 
ATOM     13  C   UNL     1       2.133   1.562  -1.259  0.00  0.00    +0.002 C 
ATOM     14  C   UNL     1       2.154   0.032  -1.268  0.00  0.00    +0.022 C 
ATOM     15  C   UNL     1       0.718  -0.497  -1.257  0.00  0.00    +0.077 C 
ENDBRANCH   1  15
BRANCH   5  16
ATOM     16  C   UNL     1      -1.169  -0.405  -7.088  0.00  0.00    +0.325 C 
BRANCH  16  17
ATOM     17  O   UNL     1      -0.907  -1.277  -8.189  0.00  0.00    -0.483 OA
BRANCH  17  18
ATOM     18  C   UNL     1      -1.493  -0.967  -9.373  0.00  0.00    +0.121 A 
ATOM     19  C   UNL     1      -2.310   0.153  -9.471  0.00  0.00    +0.047 A 
ATOM     20  C   UNL     1      -2.901   0.474 -10.672  0.00  0.00    +0.022 A 
ATOM     21  C   UNL     1      -2.689  -0.335 -11.792  0.00  0.00    +0.052 A 
ATOM     22  C   UNL     1      -1.872  -1.464 -11.688  0.00  0.00    +0.022 A 
ATOM     23  C   UNL     1      -1.279  -1.774 -10.484  0.00  0.00    +0.047 A 
BRANCH  21  24
ATOM     24  C   UNL     1      -3.307  -0.008 -13.041  0.00  0.00    +0.099 C 
ATOM     25  N   UNL     1      -3.798   0.251 -14.033  0.00  0.00    -0.191 NA
ENDBRANCH  21  24
ENDBRANCH  17  18
ENDBRANCH  16  17
ENDBRANCH   5  16
TORSDOF 5
