REMARK  Name = ZINC01638377
REMARK  3 active torsions:
REMARK  status: ('A' for Active; 'I' for Inactive)
REMARK    1  A    between atoms: C_1  and  C_2
REMARK    2  A    between atoms: N_4  and  C_5
REMARK    3  A    between atoms: C_16  and  N_18
REMARK                            x       y       z     vdW  Elec       q    Type
REMARK                         _______ _______ _______ _____ _____    ______ ____
ROOT
ATOM      1  C   UNL     1      -0.002   0.002   0.043  0.00  0.00    +0.056 A 
ATOM      2  C   UNL     1       0.238   0.904   1.074  0.00  0.00    +0.064 A 
ATOM      3  C   UNL     1       1.422   1.618   1.106  0.00  0.00    +0.042 A 
ATOM      4  C   UNL     1       2.370   1.441   0.118  0.00  0.00    +0.050 A 
ATOM      5  C   UNL     1       2.138   0.537  -0.922  0.00  0.00    +0.006 A 
ATOM      6  C   UNL     1       0.945  -0.180  -0.951  0.00  0.00    -0.011 A 
ATOM      7  C   UNL     1       0.976  -1.065  -2.172  0.00  0.00    +0.073 C 
ATOM      8  C   UNL     1       2.297  -0.795  -2.849  0.00  0.00    -0.033 A 
ATOM      9  C   UNL     1       2.970   0.158  -2.091  0.00  0.00    -0.013 A 
ATOM     10  C   UNL     1       4.232   0.592  -2.500  0.00  0.00    +0.011 A 
ATOM     11  C   UNL     1       4.800   0.076  -3.646  0.00  0.00    +0.033 A 
ATOM     12  C   UNL     1       4.123  -0.871  -4.394  0.00  0.00    +0.126 A 
ATOM     13  C   UNL     1       2.872  -1.306  -3.994  0.00  0.00    +0.037 A 
ATOM     14 CL   UNL     1       3.853   2.343   0.167  0.00  0.00    -0.083 Cl
ATOM     15 CL   UNL     1      -0.951   1.139   2.317  0.00  0.00    -0.082 Cl
ENDROOT
BRANCH   1  19
ATOM     16  C   UNL     1      -2.469  -2.843   0.101  0.00  0.00    +0.109 C 
ATOM     17  C   UNL     1      -1.188  -2.055   0.205  0.00  0.00    +0.214 C 
ATOM     18  O   UNL     1      -0.147  -2.620   0.464  0.00  0.00    -0.276 OA
ATOM     19  N   UNL     1      -1.200  -0.722   0.009  0.00  0.00    -0.284 N 
ATOM     20  H   UNL     1      -2.039  -0.263  -0.155  0.00  0.00    +0.155 HD
ENDBRANCH   1  19
BRANCH  12  21
ATOM     21  N   UNL     1       4.738  -1.420  -5.623  0.00  0.00    +0.056 N 
ATOM     22  O   UNL     1       5.840  -1.038  -5.975  0.00  0.00    -0.126 OA
ATOM     23  O   UNL     1       4.143  -2.254  -6.282  0.00  0.00    -0.126 OA
ENDBRANCH  12  21
TORSDOF 2
