REMARK  Name = ZINC34774316
REMARK  7 active torsions:
REMARK  status: ('A' for Active; 'I' for Inactive)
REMARK    1  A    between atoms: C_1  and  C_2
REMARK    2  A    between atoms: C_2  and  C_4
REMARK    3  A    between atoms: C_4  and  S_5
REMARK    4  A    between atoms: S_5  and  C_6
REMARK    5  A    between atoms: C_10  and  C_15
REMARK    6  A    between atoms: N_24  and  C_27
REMARK    7  A    between atoms: C_27  and  C_28
REMARK                            x       y       z     vdW  Elec       q    Type
REMARK                         _______ _______ _______ _____ _____    ______ ____
ROOT
ATOM      1  C   UNL     1      -1.364  -2.812  -3.556  0.00  0.00    +0.191 A 
ATOM      2  N   UNL     1      -2.459  -2.846  -4.305  0.00  0.00    -0.206 NA
ATOM      3  C   UNL     1      -2.776  -1.863  -5.130  0.00  0.00    +0.134 A 
ATOM      4  C   UNL     1      -1.922  -0.730  -5.225  0.00  0.00    +0.055 A 
ATOM      5  C   UNL     1      -2.054   0.467  -6.051  0.00  0.00    +0.002 A 
ATOM      6  C   UNL     1      -1.101   1.423  -5.967  0.00  0.00    +0.056 A 
ATOM      7  S   UNL     1       0.041   0.770  -4.765  0.00  0.00    -0.076 S 
ATOM      8  C   UNL     1      -0.778  -0.761  -4.402  0.00  0.00    +0.115 A 
ATOM      9  N   UNL     1      -0.534  -1.779  -3.599  0.00  0.00    -0.214 NA
ATOM     10  N   UNL     1      -3.926  -1.936  -5.895  0.00  0.00    -0.318 N 
ATOM     11  C   UNL     1      -4.005  -2.830  -7.060  0.00  0.00    +0.088 C 
ATOM     12  C   UNL     1      -5.283  -3.667  -6.945  0.00  0.00    -0.059 C 
ATOM     13  N   UNL     1      -6.439  -2.775  -6.787  0.00  0.00    +0.387 N 
ATOM     14  C   UNL     1      -6.333  -2.039  -5.521  0.00  0.00    -0.059 C 
ATOM     15  C   UNL     1      -5.108  -1.125  -5.562  0.00  0.00    +0.088 C 
ATOM     16  H   UNL     1      -6.464  -2.120  -7.554  0.00  0.00    -0.081 HD
ENDROOT
BRANCH   5  17
ATOM     17  C   UNL     1      -3.210   0.630  -6.964  0.00  0.00    -0.017 A 
ATOM     18  C   UNL     1      -3.434  -0.296  -7.982  0.00  0.00    +0.008 A 
ATOM     19  C   UNL     1      -4.512  -0.139  -8.829  0.00  0.00    +0.001 A 
ATOM     20  C   UNL     1      -5.370   0.935  -8.669  0.00  0.00    +0.000 A 
ATOM     21  C   UNL     1      -5.152   1.857  -7.661  0.00  0.00    +0.001 A 
ATOM     22  C   UNL     1      -4.080   1.707  -6.805  0.00  0.00    +0.008 A 
ENDBRANCH   5  17
BRANCH   1  23
ATOM     23  S   UNL     1      -1.010  -4.161  -2.479  0.00  0.00    -0.082 S 
BRANCH  23  24
ATOM     24  C   UNL     1       0.542  -3.682  -1.671  0.00  0.00    +0.107 C 
BRANCH  24  26
ATOM     25  C   UNL     1       0.248  -4.923   0.607  0.00  0.00    +0.039 C 
ATOM     26  C   UNL     1       0.963  -4.764  -0.710  0.00  0.00    -0.069 C 
ATOM     27  C   UNL     1       1.951  -5.567  -1.020  0.00  0.00    +0.008 C 
ENDBRANCH  24  26
ENDBRANCH  23  24
ENDBRANCH   1  23
BRANCH  13  28
ATOM     28  C   UNL     1      -7.673  -3.571  -6.787  0.00  0.00    +0.019 C 
BRANCH  28  29
ATOM     29  C   UNL     1      -8.865  -2.649  -6.748  0.00  0.00    +0.199 C 
ATOM     30  O   UNL     1      -8.702  -1.448  -6.723  0.00  0.00    -0.278 OA
ATOM     31  N   UNL     1     -10.112  -3.160  -6.741  0.00  0.00    -0.303 N 
ATOM     32  C   UNL     1     -10.326  -4.614  -6.765  0.00  0.00    +0.107 C 
ATOM     33  C   UNL     1     -11.234  -4.998  -5.593  0.00  0.00    +0.019 C 
ATOM     34  C   UNL     1     -12.521  -4.172  -5.657  0.00  0.00    +0.003 C 
ATOM     35  C   UNL     1     -12.181  -2.685  -5.538  0.00  0.00    +0.019 C 
ATOM     36  C   UNL     1     -11.284  -2.275  -6.704  0.00  0.00    +0.107 C 
ENDBRANCH  28  29
ENDBRANCH  13  28
TORSDOF 6
