REMARK  Name = ZINC09189570
REMARK  4 active torsions:
REMARK  status: ('A' for Active; 'I' for Inactive)
REMARK    1  A    between atoms: C_1  and  C_2
REMARK    2  A    between atoms: N_6  and  C_17
REMARK    3  A    between atoms: N_8  and  N_9
REMARK    4  A    between atoms: C_10  and  C_11
REMARK                            x       y       z     vdW  Elec       q    Type
REMARK                         _______ _______ _______ _____ _____    ______ ____
ROOT
ATOM      1  C   UNL     1      -0.326   3.308   1.193  0.00  0.00    +0.029 C 
ATOM      2  C   UNL     1      -0.113   2.104   0.273  0.00  0.00    +0.138 C 
ATOM      3  C   UNL     1      -0.506   2.429  -1.159  0.00  0.00    +0.239 C 
ATOM      4  O   UNL     1      -1.641   2.730  -1.463  0.00  0.00    -0.274 OA
ATOM      5  N   UNL     1       0.466   2.361  -2.053  0.00  0.00    -0.217 N 
ATOM      6  C   UNL     1       1.759   2.018  -1.712  0.00  0.00    +0.190 C 
ATOM      7  N   UNL     1       2.808   1.915  -2.501  0.00  0.00    -0.126 NA
ATOM      8  S   UNL     1       1.674   1.744   0.052  0.00  0.00    -0.075 S 
ENDROOT
BRANCH   5   9
ATOM      9  C   UNL     1       0.173   2.648  -3.393  0.00  0.00    +0.043 A 
ATOM     10  C   UNL     1       0.250   3.954  -3.858  0.00  0.00    +0.025 A 
ATOM     11  C   UNL     1      -0.034   4.233  -5.180  0.00  0.00    +0.022 A 
ATOM     12  C   UNL     1      -0.406   3.214  -6.039  0.00  0.00    +0.041 A 
ATOM     13  C   UNL     1      -0.488   1.912  -5.577  0.00  0.00    +0.022 A 
ATOM     14  C   UNL     1      -0.200   1.627  -4.257  0.00  0.00    +0.025 A 
ATOM     15 CL   UNL     1      -0.770   3.570  -7.699  0.00  0.00    -0.084 Cl
ENDBRANCH   5   9
BRANCH   7  16
ATOM     16  N   UNL     1       2.716   2.252  -3.742  0.00  0.00    -0.152 NA
ATOM     17  C   UNL     1       3.760   2.155  -4.526  0.00  0.00    +0.181 C 
BRANCH  17  18
ATOM     18  C   UNL     1       5.030   1.663  -3.993  0.00  0.00    +0.147 A 
ATOM     19  C   UNL     1       6.190   1.507  -4.699  0.00  0.00    +0.051 A 
ATOM     20  C   UNL     1       7.150   1.016  -3.796  0.00  0.00    +0.042 A 
ATOM     21  C   UNL     1       6.540   0.887  -2.599  0.00  0.00    +0.196 A 
ATOM     22  O   UNL     1       5.260   1.278  -2.722  0.00  0.00    -0.462 OA
ENDBRANCH  17  18
ENDBRANCH   7  16
TORSDOF 3
