REMARK  Name = ZINC02074159
REMARK  10 active torsions:
REMARK  status: ('A' for Active; 'I' for Inactive)
REMARK    1  A    between atoms: C_1  and  C_2
REMARK    2  A    between atoms: C_2  and  O_3
REMARK    3  A    between atoms: O_3  and  C_4
REMARK    4  A    between atoms: C_4  and  C_6
REMARK    5  A    between atoms: C_10  and  N_11
REMARK    6  A    between atoms: C_12  and  C_14
REMARK    7  A    between atoms: C_14  and  S_15
REMARK    8  A    between atoms: S_15  and  C_16
REMARK    9  A    between atoms: C_21  and  C_32
REMARK   10  A    between atoms: C_24  and  C_26
REMARK                            x       y       z     vdW  Elec       q    Type
REMARK                         _______ _______ _______ _____ _____    ______ ____
ROOT
ATOM      1  C   UNL     1       6.825  -0.498  -0.064  0.00  0.00    +0.172 C 
ENDROOT
BRANCH   1   3
ATOM      2  N   UNL     1       7.715  -2.806  -0.082  0.00  0.00    -0.279 N 
ATOM      3  C   UNL     1       7.967  -1.482  -0.079  0.00  0.00    +0.228 C 
ATOM      4  O   UNL     1       9.111  -1.082  -0.088  0.00  0.00    -0.275 OA
ATOM      5  H   UNL     1       6.800  -3.126  -0.075  0.00  0.00    +0.155 HD
BRANCH   2  10
ATOM      6  C   UNL     1       8.710  -5.098  -0.096  0.00  0.00    +0.091 A 
ATOM      7  C   UNL     1       9.970  -5.821  -0.117  0.00  0.00    -0.021 A 
ATOM      8  C   UNL     1      11.077  -5.046  -0.123  0.00  0.00    -0.004 A 
ATOM      9  S   UNL     1      10.467  -3.384  -0.110  0.00  0.00    -0.077 S 
ATOM     10  C   UNL     1       8.766  -3.710  -0.096  0.00  0.00    +0.086 A 
ATOM     11  C   UNL     1      12.502  -5.508  -0.137  0.00  0.00    +0.043 C 
ATOM     12  C   UNL     1      12.532  -6.997   0.234  0.00  0.00    +0.005 C 
ATOM     13  C   UNL     1      11.477  -7.734  -0.596  0.00  0.00    +0.005 C 
ATOM     14  C   UNL     1      10.076  -7.341  -0.125  0.00  0.00    +0.037 C 
BRANCH   6  15
ATOM     15  C   UNL     1       7.428  -5.806  -0.079  0.00  0.00    +0.342 C 
ATOM     16  O   UNL     1       6.882  -6.101  -1.126  0.00  0.00    -0.245 OA
BRANCH  15  17
ATOM     17  O   UNL     1       6.853  -6.133   1.097  0.00  0.00    -0.461 OA
BRANCH  17  19
ATOM     18  C   UNL     1       5.090  -7.117   2.457  0.00  0.00    +0.048 C 
ATOM     19  C   UNL     1       5.583  -6.834   1.037  0.00  0.00    +0.229 C 
ENDBRANCH  17  19
ENDBRANCH  15  17
ENDBRANCH   6  15
ENDBRANCH   2  10
ENDBRANCH   1   3
BRANCH   1  20
ATOM     20  S   UNL     1       7.481   1.188  -0.062  0.00  0.00    -0.096 S 
BRANCH  20  21
ATOM     21  C   UNL     1       5.975   2.103  -0.044  0.00  0.00    +0.109 A 
ATOM     22  C   UNL     1       5.986   3.521  -0.038  0.00  0.00    +0.033 A 
ATOM     23  C   UNL     1       7.177   4.254  -0.046  0.00  0.00    +0.012 A 
ATOM     24  C   UNL     1       7.128   5.617  -0.040  0.00  0.00    +0.001 A 
ATOM     25  C   UNL     1       5.909   6.289  -0.025  0.00  0.00    +0.005 A 
ATOM     26  C   UNL     1       4.730   5.604  -0.016  0.00  0.00    -0.024 A 
ATOM     27  C   UNL     1       4.744   4.202  -0.023  0.00  0.00    +0.079 A 
ATOM     28  N   UNL     1       3.613   3.483  -0.020  0.00  0.00    -0.227 NA
ATOM     29  C   UNL     1       3.659   2.163  -0.022  0.00  0.00    +0.161 A 
ATOM     30  N   UNL     1       4.804   1.483  -0.036  0.00  0.00    -0.220 NA
ATOM     31  C   UNL     1       3.420   6.349  -0.001  0.00  0.00    +0.046 C 
BRANCH  29  32
ATOM     32  C   UNL     1       2.384   1.407  -0.014  0.00  0.00    +0.019 A 
ATOM     33  C   UNL     1       1.167   2.088   0.002  0.00  0.00    +0.011 A 
ATOM     34  C   UNL     1      -0.017   1.379   0.010  0.00  0.00    +0.001 A 
ATOM     35  C   UNL     1       0.002  -0.004   0.002  0.00  0.00    +0.000 A 
ATOM     36  C   UNL     1       1.206  -0.685  -0.013  0.00  0.00    +0.001 A 
ATOM     37  C   UNL     1       2.397   0.014  -0.021  0.00  0.00    +0.011 A 
ENDBRANCH  29  32
ENDBRANCH  20  21
ENDBRANCH   1  20
TORSDOF 8
