REMARK  Name = ZINC35266950
REMARK  10 active torsions:
REMARK  status: ('A' for Active; 'I' for Inactive)
REMARK    1  A    between atoms: C_1  and  N_2
REMARK    2  A    between atoms: C_6  and  C_7
REMARK    3  A    between atoms: N_12  and  C_13
REMARK    4  A    between atoms: C_13  and  C_14
REMARK    5  A    between atoms: N_16  and  C_17
REMARK    6  A    between atoms: C_17  and  C_18
REMARK    7  A    between atoms: C_18  and  C_20
REMARK    8  A    between atoms: C_18  and  C_28
REMARK    9  A    between atoms: C_23  and  O_26
REMARK   10  A    between atoms: O_26  and  C_27
REMARK                            x       y       z     vdW  Elec       q    Type
REMARK                         _______ _______ _______ _____ _____    ______ ____
ROOT
ATOM      1  C   UNL     1      -2.899  -4.333   7.909  0.00  0.00    +0.068 C 
ENDROOT
BRANCH   1   2
ATOM      2  C   UNL     1      -2.816  -3.187   8.884  0.00  0.00    -0.013 A 
ATOM      3  C   UNL     1      -1.815  -2.942   9.744  0.00  0.00    +0.088 A 
ATOM      4  N   UNL     1      -2.088  -1.814  10.469  0.00  0.00    -0.360 N 
ATOM      5  H   UNL     1      -1.512  -1.438  11.152  0.00  0.00    +0.165 HD
ATOM      6  C   UNL     1      -3.303  -1.293  10.083  0.00  0.00    +0.047 A 
ATOM      7  C   UNL     1      -3.809  -2.127   9.069  0.00  0.00    +0.003 A 
ATOM      8  C   UNL     1      -5.040  -1.836   8.478  0.00  0.00    +0.010 A 
ATOM      9  C   UNL     1      -5.746  -0.739   8.885  0.00  0.00    +0.001 A 
ATOM     10  C   UNL     1      -5.249   0.089   9.882  0.00  0.00    +0.002 A 
ATOM     11  C   UNL     1      -4.041  -0.185  10.486  0.00  0.00    +0.026 A 
ENDBRANCH   1   2
BRANCH   1  12
ATOM     12  C   UNL     1      -2.869  -5.638   8.662  0.00  0.00    -0.038 A 
ATOM     13  C   UNL     1      -1.783  -5.949   9.460  0.00  0.00    +0.008 A 
ATOM     14  C   UNL     1      -1.753  -7.144  10.151  0.00  0.00    +0.046 A 
ATOM     15  C   UNL     1      -2.813  -8.033  10.046  0.00  0.00    +0.120 A 
ATOM     16  C   UNL     1      -3.902  -7.718   9.245  0.00  0.00    +0.046 A 
ATOM     17  C   UNL     1      -3.930  -6.519   8.560  0.00  0.00    +0.008 A 
BRANCH  15  18
ATOM     18  O   UNL     1      -2.786  -9.210  10.725  0.00  0.00    -0.495 OA
ATOM     19  C   UNL     1      -3.912 -10.075  10.569  0.00  0.00    +0.277 C 
ENDBRANCH  15  18
ENDBRANCH   1  12
BRANCH   1  20
ATOM     20  C   UNL     1      -1.710  -4.272   6.947  0.00  0.00    +0.117 C 
BRANCH  20  23
ATOM     21  C   UNL     1      -0.860  -2.794   5.207  0.00  0.00    +0.197 C 
ATOM     22  O   UNL     1       0.069  -3.558   5.052  0.00  0.00    -0.278 OA
ATOM     23  N   UNL     1      -1.805  -3.059   6.130  0.00  0.00    -0.316 N 
ATOM     24  H   UNL     1      -2.548  -2.448   6.254  0.00  0.00    +0.149 HD
BRANCH  21  25
ATOM     25  C   UNL     1      -0.958  -1.547   4.366  0.00  0.00    +0.019 C 
BRANCH  25  30
ATOM     26  C   UNL     1       0.031  -0.335   2.538  0.00  0.00    -0.020 C 
ATOM     27  C   UNL     1       1.234   0.602   2.777  0.00  0.00    -0.011 C 
ATOM     28  C   UNL     1       1.704   0.209   4.202  0.00  0.00    -0.020 C 
ATOM     29  C   UNL     1       1.440  -1.317   4.209  0.00  0.00    -0.077 C 
ATOM     30  N   UNL     1       0.184  -1.488   3.443  0.00  0.00    +0.391 N 
ATOM     31  H   UNL     1       0.227  -2.340   2.904  0.00  0.00    -0.080 HD
BRANCH  26  37
ATOM     32  C   UNL     1      -0.018   1.461   0.010  0.00  0.00    +0.148 C 
ATOM     33  N   UNL     1       0.002  -0.004   0.002  0.00  0.00    -0.355 N 
ATOM     34  C   UNL     1       0.008  -0.792  -1.110  0.00  0.00    +0.085 A 
ATOM     35  C   UNL     1       0.027  -2.081  -0.714  0.00  0.00    +0.019 A 
ATOM     36  C   UNL     1       0.033  -2.089   0.695  0.00  0.00    +0.021 A 
ATOM     37  C   UNL     1       0.023  -0.804   1.106  0.00  0.00    +0.005 A 
ENDBRANCH  26  37
ENDBRANCH  25  30
ENDBRANCH  21  25
ENDBRANCH  20  23
ENDBRANCH   1  20
TORSDOF 8
