REMARK  Name = ZINC01837550
REMARK  13 active torsions:
REMARK  status: ('A' for Active; 'I' for Inactive)
REMARK    1  A    between atoms: C_1  and  C_2
REMARK    2  A    between atoms: C_5  and  C_8
REMARK    3  A    between atoms: C_8  and  S_9
REMARK    4  A    between atoms: S_9  and  C_10
REMARK    5  A    between atoms: C_13  and  S_15
REMARK    6  A    between atoms: S_15  and  C_16
REMARK    7  A    between atoms: C_16  and  C_17
REMARK    8  A    between atoms: N_19  and  N_20
REMARK    9  A    between atoms: C_21  and  C_22
REMARK   10  A    between atoms: C_26  and  O_30
REMARK   11  A    between atoms: C_27  and  O_28
REMARK   12  A    between atoms: O_28  and  C_29
REMARK   13  A    between atoms: O_30  and  C_31
REMARK                            x       y       z     vdW  Elec       q    Type
REMARK                         _______ _______ _______ _____ _____    ______ ____
ROOT
ATOM      1  C   UNL     1       7.287   1.024  -0.064  0.00  0.00    +0.173 C 
ENDROOT
BRANCH   1   2
ATOM      2  C   UNL     1       5.970   1.756  -0.047  0.00  0.00    +0.242 C 
ATOM      3  O   UNL     1       5.950   2.969  -0.039  0.00  0.00    -0.273 OA
ATOM      4  N   UNL     1       4.814   1.063  -0.039  0.00  0.00    -0.206 N 
ATOM      5  H   UNL     1       4.830   0.093  -0.045  0.00  0.00    +0.177 HD
BRANCH   4   6
ATOM      6  N   UNL     1       3.590   1.743  -0.023  0.00  0.00    -0.188 NA
ATOM      7  C   UNL     1       2.477   1.075  -0.016  0.00  0.00    +0.142 C 
BRANCH   7   8
ATOM      8  C   UNL     1       1.188   1.791   0.000  0.00  0.00    +0.040 A 
ATOM      9  C   UNL     1      -0.013   1.076   0.008  0.00  0.00    +0.013 A 
ATOM     10  C   UNL     1      -1.216   1.749   0.017  0.00  0.00    +0.004 A 
ATOM     11  C   UNL     1      -1.242   3.133   0.031  0.00  0.00    +0.049 A 
ATOM     12  C   UNL     1      -0.059   3.856   0.023  0.00  0.00    +0.162 A 
ATOM     13  C   UNL     1       1.161   3.191   0.008  0.00  0.00    +0.170 A 
BRANCH  13  14
ATOM     14  O   UNL     1       2.323   3.896   0.001  0.00  0.00    -0.491 OA
ATOM     15  C   UNL     1       2.866   4.240  -1.275  0.00  0.00    +0.277 C 
ENDBRANCH  13  14
BRANCH  12  16
ATOM     16  O   UNL     1      -0.093   5.215   0.031  0.00  0.00    -0.491 OA
ATOM     17  C   UNL     1      -1.382   5.832   0.047  0.00  0.00    +0.277 C 
ENDBRANCH  12  16
ENDBRANCH   7   8
ENDBRANCH   4   6
ENDBRANCH   1   2
BRANCH   1  18
ATOM     18  S   UNL     1       8.647   2.225  -0.070  0.00  0.00    -0.088 S 
BRANCH  18  22
ATOM     19  C   UNL     1      12.534   0.089  -0.121  0.00  0.00    +0.160 A 
ATOM     20  N   UNL     1      11.455  -0.670  -0.115  0.00  0.00    -0.134 NA
ATOM     21  N   UNL     1      10.208  -0.088  -0.099  0.00  0.00    -0.134 NA
ATOM     22  C   UNL     1      10.098   1.227  -0.090  0.00  0.00    +0.160 A 
ATOM     23  S   UNL     1      11.814   1.724  -0.111  0.00  0.00    -0.033 S 
BRANCH  19  24
ATOM     24  S   UNL     1      14.231  -0.383  -0.141  0.00  0.00    -0.092 S 
BRANCH  24  25
ATOM     25  C   UNL     1      14.182  -2.197  -0.151  0.00  0.00    +0.111 C 
BRANCH  25  30
ATOM     26  C   UNL     1      19.575  -4.270  -0.219  0.00  0.00    +0.044 C 
ATOM     27  C   UNL     1      18.169  -3.730  -0.201  0.00  0.00    -0.050 A 
ATOM     28  C   UNL     1      17.536  -3.488   1.004  0.00  0.00    +0.003 A 
ATOM     29  C   UNL     1      16.246  -2.992   1.020  0.00  0.00    +0.005 A 
ATOM     30  C   UNL     1      15.588  -2.737  -0.169  0.00  0.00    -0.037 A 
ATOM     31  C   UNL     1      16.219  -2.983  -1.374  0.00  0.00    +0.005 A 
ATOM     32  C   UNL     1      17.511  -3.475  -1.390  0.00  0.00    +0.003 A 
ENDBRANCH  25  30
ENDBRANCH  24  25
ENDBRANCH  19  24
ENDBRANCH  18  22
ENDBRANCH   1  18
TORSDOF 10
