REMARK  Name = ZINC22825107
REMARK  9 active torsions:
REMARK  status: ('A' for Active; 'I' for Inactive)
REMARK    1  A    between atoms: C_1  and  C_2
REMARK    2  A    between atoms: C_9  and  C_16
REMARK    3  A    between atoms: C_11  and  O_12
REMARK    4  A    between atoms: C_16  and  O_17
REMARK    5  A    between atoms: O_17  and  C_18
REMARK    6  A    between atoms: C_18  and  C_20
REMARK    7  A    between atoms: C_25  and  N_26
REMARK    8  A    between atoms: C_27  and  C_29
REMARK    9  A    between atoms: C_29  and  C_30
REMARK                            x       y       z     vdW  Elec       q    Type
REMARK                         _______ _______ _______ _____ _____    ______ ____
ROOT
ATOM      1  O   UNL     1      -0.422  -8.465   0.086  0.00  0.00    -0.456 OA
ENDROOT
BRANCH   1   2
ATOM      2  C   UNL     1      -0.500  -9.269   1.165  0.00  0.00    +0.341 C 
ATOM      3  O   UNL     1      -0.500  -8.789   2.281  0.00  0.00    -0.245 OA
BRANCH   2   4
ATOM      4  C   UNL     1      -0.586 -10.730   0.990  0.00  0.00    +0.080 A 
ATOM      5  C   UNL     1      -0.482 -11.293  -0.285  0.00  0.00    +0.017 A 
ATOM      6  C   UNL     1      -0.559 -12.660  -0.440  0.00  0.00    +0.001 A 
ATOM      7  C   UNL     1      -0.749 -13.480   0.660  0.00  0.00    +0.002 A 
ATOM      8  C   UNL     1      -0.859 -12.938   1.925  0.00  0.00    +0.024 A 
ATOM      9  C   UNL     1      -0.779 -11.563   2.102  0.00  0.00    +0.047 A 
BRANCH   9  10
ATOM     10  N   UNL     1      -0.890 -11.015   3.377  0.00  0.00    -0.285 N 
ATOM     11  C   UNL     1      -0.570 -11.753   4.459  0.00  0.00    +0.222 C 
ATOM     12  O   UNL     1      -0.090 -12.858   4.319  0.00  0.00    -0.275 OA
ATOM     13  H   UNL     1      -1.238  -9.979   3.502  0.00  0.00    +0.155 HD
BRANCH  11  14
ATOM     14  C   UNL     1      -0.810 -11.205   5.842  0.00  0.00    +0.131 C 
BRANCH  14  15
ATOM     15  C   UNL     1      -0.370 -12.219   6.867  0.00  0.00    -0.039 A 
ATOM     16  C   UNL     1      -1.268 -13.158   7.340  0.00  0.00    +0.004 A 
ATOM     17  C   UNL     1      -0.864 -14.091   8.276  0.00  0.00    +0.000 A 
ATOM     18  C   UNL     1       0.436 -14.079   8.747  0.00  0.00    +0.000 A 
ATOM     19  C   UNL     1       1.333 -13.137   8.278  0.00  0.00    +0.000 A 
ATOM     20  C   UNL     1       0.929 -12.207   7.338  0.00  0.00    +0.004 A 
ENDBRANCH  14  15
ENDBRANCH  11  14
ENDBRANCH   9  10
ENDBRANCH   2   4
ENDBRANCH   1   2
BRANCH   1  21
ATOM     21  C   UNL     1      -0.340  -7.037   0.333  0.00  0.00    +0.269 C 
BRANCH  21  30
ATOM     22  C   UNL     1      -0.513   1.491  -2.190  0.00  0.00    +0.109 C 
ATOM     23  C   UNL     1      -0.516  -0.016  -2.192  0.00  0.00    +0.214 C 
ATOM     24  O   UNL     1      -1.063  -0.620  -3.090  0.00  0.00    -0.276 OA
ATOM     25  N   UNL     1       0.090  -0.692  -1.196  0.00  0.00    -0.286 N 
ATOM     26  C   UNL     1       0.003  -2.084  -1.145  0.00  0.00    +0.037 A 
ATOM     27  C   UNL     1      -0.062  -2.728   0.090  0.00  0.00    +0.024 A 
ATOM     28  C   UNL     1      -0.153  -4.088   0.157  0.00  0.00    +0.014 A 
ATOM     29  C   UNL     1      -0.168  -4.842  -1.023  0.00  0.00    +0.024 A 
ATOM     30  C   UNL     1      -0.260  -6.303  -0.981  0.00  0.00    +0.007 A 
ATOM     31  C   UNL     1      -0.271  -6.979  -2.159  0.00  0.00    +0.095 A 
ATOM     32  C   UNL     1      -0.196  -6.270  -3.376  0.00  0.00    +0.285 A 
ATOM     33  O   UNL     1      -0.112  -4.931  -3.407  0.00  0.00    -0.425 OA
ATOM     34  C   UNL     1      -0.097  -4.199  -2.272  0.00  0.00    +0.141 A 
ATOM     35  C   UNL     1      -0.011  -2.816  -2.322  0.00  0.00    +0.070 A 
ATOM     36  H   UNL     1       0.652  -0.147  -0.424  0.00  0.00    +0.155 HD
BRANCH  32  37
ATOM     37  O   UNL     1      -0.206  -6.889  -4.425  0.00  0.00    -0.480 OA
ATOM     38  H   UNL     1      -0.148  -6.350  -5.382  0.00  0.00    +0.295 HD
ENDBRANCH  32  37
ENDBRANCH  21  30
ENDBRANCH   1  21
TORSDOF 8
