REMARK  Name = ZINC49937862
REMARK  2 active torsions:
REMARK  status: ('A' for Active; 'I' for Inactive)
REMARK    1  A    between atoms: C_4  and  C_7
REMARK    2  A    between atoms: C_25  and  C_27
REMARK                            x       y       z     vdW  Elec       q    Type
REMARK                         _______ _______ _______ _____ _____    ______ ____
ROOT
ATOM      1  C   UNL     1       3.711  -0.707  -0.038  0.00  0.00    +0.215 C 
ATOM      2  C   UNL     1       4.109  -1.074   1.392  0.00  0.00    +0.113 C 
ATOM      3  C   UNL     1       2.977  -1.944   1.915  0.00  0.00    +0.065 C 
ATOM      4  C   UNL     1       2.488  -2.999   1.021  0.00  0.00    +0.040 A 
ATOM      5  C   UNL     1       1.716  -4.059   1.496  0.00  0.00    +0.033 A 
ATOM      6  C   UNL     1       1.270  -5.025   0.618  0.00  0.00    +0.042 A 
ATOM      7  C   UNL     1       1.588  -4.940  -0.730  0.00  0.00    +0.023 A 
ATOM      8  C   UNL     1       2.354  -3.896  -1.210  0.00  0.00    +0.048 A 
ATOM      9  C   UNL     1       2.816  -2.916  -0.344  0.00  0.00    +0.130 A 
ATOM     10  O   UNL     1       3.580  -1.900  -0.814  0.00  0.00    -0.483 OA
ATOM     11 CL   UNL     1       0.309  -6.348   1.200  0.00  0.00    -0.084 Cl
ATOM     12  N   UNL     1       2.453  -1.694   3.069  0.00  0.00    -0.215 NA
ATOM     13  C   UNL     1       2.765  -0.623   3.841  0.00  0.00    +0.249 A 
ATOM     14  N   UNL     1       2.321  -0.279   5.045  0.00  0.00    -0.198 NA
ATOM     15  C   UNL     1       2.868   0.874   5.417  0.00  0.00    +0.247 A 
ATOM     16  N   UNL     1       3.675   1.295   4.478  0.00  0.00    -0.156 NA
ATOM     17  N   UNL     1       3.644   0.337   3.458  0.00  0.00    -0.221 N 
ATOM     18  C   UNL     1       4.366   0.222   2.181  0.00  0.00    +0.160 C 
ENDROOT
BRANCH   1  22
ATOM     19  C   UNL     1      -0.017   1.378   0.010  0.00  0.00    +0.000 A 
ATOM     20  C   UNL     1       1.170   2.083   0.086  0.00  0.00    +0.000 A 
ATOM     21  C   UNL     1       2.377   1.408   0.071  0.00  0.00    +0.007 A 
ATOM     22  C   UNL     1       2.396   0.029  -0.020  0.00  0.00    -0.007 A 
ATOM     23  C   UNL     1       1.209  -0.676  -0.096  0.00  0.00    +0.007 A 
ATOM     24  C   UNL     1       0.003  -0.001  -0.082  0.00  0.00    +0.000 A 
ENDBRANCH   1  22
BRANCH  18  25
ATOM     25  C   UNL     1       5.843   0.321   2.462  0.00  0.00    +0.015 A 
ATOM     26  C   UNL     1       6.719   1.288   2.096  0.00  0.00    +0.013 A 
ATOM     27  C   UNL     1       8.044   1.169   2.470  0.00  0.00    +0.008 A 
ATOM     28  C   UNL     1       8.428   0.089   3.193  0.00  0.00    +0.045 A 
ATOM     29  S   UNL     1       6.891  -0.802   3.371  0.00  0.00    -0.099 S 
ENDBRANCH  18  25
TORSDOF 2
