REMARK  Name = ZINC16742040
REMARK  6 active torsions:
REMARK  status: ('A' for Active; 'I' for Inactive)
REMARK    1  A    between atoms: C_1  and  C_2
REMARK    2  A    between atoms: C_7  and  C_8
REMARK    3  A    between atoms: C_14  and  C_26
REMARK    4  A    between atoms: N_16  and  C_19
REMARK    5  A    between atoms: C_19  and  C_20
REMARK    6  A    between atoms: C_30  and  O_32
REMARK                            x       y       z     vdW  Elec       q    Type
REMARK                         _______ _______ _______ _____ _____    ______ ____
ROOT
ATOM      1  C   UNL     1       0.064  -4.295  -0.024  0.00  0.00    +0.044 C 
ATOM      2  C   UNL     1       0.053  -2.789  -0.015  0.00  0.00    -0.047 A 
ATOM      3  C   UNL     1       1.243  -2.093  -0.021  0.00  0.00    +0.019 A 
ATOM      4  C   UNL     1       1.224  -0.700  -0.013  0.00  0.00    +0.065 A 
ATOM      5  C   UNL     1       0.002  -0.004   0.002  0.00  0.00    +0.140 A 
ATOM      6  C   UNL     1      -1.186  -0.728   0.009  0.00  0.00    +0.050 A 
ATOM      7  C   UNL     1      -1.155  -2.106   0.000  0.00  0.00    -0.044 A 
ATOM      8  C   UNL     1      -2.448  -2.880   0.008  0.00  0.00    +0.044 C 
ATOM      9  O   UNL     1      -0.016   1.341   0.009  0.00  0.00    -0.450 OA
ATOM     10  C   UNL     1       1.095   2.104   0.003  0.00  0.00    +0.199 A 
ATOM     11  C   UNL     1       2.330   1.546  -0.011  0.00  0.00    +0.072 A 
ATOM     12  C   UNL     1       2.472   0.087  -0.020  0.00  0.00    +0.199 A 
ATOM     13  O   UNL     1       3.566  -0.449  -0.033  0.00  0.00    -0.287 OA
ATOM     14  C   UNL     1       3.334   2.669  -0.014  0.00  0.00    +0.145 C 
ATOM     15  N   UNL     1       2.552   3.911   0.000  0.00  0.00    -0.281 N 
ATOM     16  C   UNL     1       1.249   3.580   0.011  0.00  0.00    +0.283 C 
ATOM     17  O   UNL     1       0.330   4.375   0.023  0.00  0.00    -0.267 OA
ENDROOT
BRANCH  14  18
ATOM     18  C   UNL     1       4.183   2.603  -1.257  0.00  0.00    -0.019 A 
ATOM     19  C   UNL     1       3.684   3.066  -2.460  0.00  0.00    +0.006 A 
ATOM     20  C   UNL     1       4.460   3.007  -3.603  0.00  0.00    +0.004 A 
ATOM     21  C   UNL     1       5.738   2.485  -3.544  0.00  0.00    +0.045 A 
ATOM     22  C   UNL     1       6.242   2.020  -2.338  0.00  0.00    +0.117 A 
ATOM     23  C   UNL     1       5.462   2.085  -1.192  0.00  0.00    +0.051 A 
BRANCH  22  24
ATOM     24  O   UNL     1       7.499   1.507  -2.278  0.00  0.00    -0.507 OA
ATOM     25  H   UNL     1       8.183   2.163  -2.084  0.00  0.00    +0.292 HD
ENDBRANCH  22  24
ENDBRANCH  14  18
BRANCH  15  26
ATOM     26  C   UNL     1       3.095   5.272   0.002  0.00  0.00    +0.140 C 
BRANCH  26  27
ATOM     27  C   UNL     1       3.271   5.753  -1.439  0.00  0.00    +0.136 C 
ATOM     28  C   UNL     1       3.949   7.140  -1.450  0.00  0.00    +0.035 C 
ATOM     29  C   UNL     1       3.191   7.869  -2.592  0.00  0.00    +0.031 C 
ATOM     30  C   UNL     1       1.773   7.264  -2.438  0.00  0.00    +0.160 C 
ATOM     31  O   UNL     1       1.989   5.894  -2.064  0.00  0.00    -0.375 OA
ENDBRANCH  26  27
ENDBRANCH  15  26
TORSDOF 4
