REMARK  Name = ZINC43758824
REMARK  7 active torsions:
REMARK  status: ('A' for Active; 'I' for Inactive)
REMARK    1  A    between atoms: C_1  and  C_2
REMARK    2  A    between atoms: C_2  and  C_4
REMARK    3  A    between atoms: C_2  and  C_29
REMARK    4  A    between atoms: C_10  and  C_28
REMARK    5  A    between atoms: C_21  and  C_27
REMARK    6  A    between atoms: C_29  and  O_31
REMARK    7  A    between atoms: O_31  and  C_32
REMARK                            x       y       z     vdW  Elec       q    Type
REMARK                         _______ _______ _______ _____ _____    ______ ____
ROOT
ATOM      1  C   UNL     1      -1.427  -0.532   0.139  0.00  0.00    +0.009 C 
ATOM      2  C   UNL     1      -1.422  -2.073   0.197  0.00  0.00    +0.005 C 
ATOM      3  C   UNL     1      -2.236  -2.560  -1.022  0.00  0.00    +0.004 C 
ATOM      4  C   UNL     1      -2.133  -1.381  -2.034  0.00  0.00    -0.001 C 
ATOM      5  C   UNL     1      -2.250  -0.160  -1.102  0.00  0.00    -0.025 C 
ATOM      6  C   UNL     1      -1.781   1.125  -1.747  0.00  0.00    +0.007 C 
ATOM      7  C   UNL     1      -0.367   0.976  -2.307  0.00  0.00    +0.005 C 
ATOM      8  C   UNL     1      -0.374  -0.148  -3.351  0.00  0.00    -0.001 C 
ATOM      9  C   UNL     1      -0.742  -1.471  -2.669  0.00  0.00    -0.004 C 
ATOM     10  C   UNL     1      -0.738  -2.611  -3.691  0.00  0.00    +0.004 C 
ATOM     11  C   UNL     1       0.646  -2.730  -4.325  0.00  0.00    +0.005 C 
ATOM     12  C   UNL     1       1.585  -1.679  -3.727  0.00  0.00    +0.002 C 
ATOM     13  C   UNL     1       1.027  -0.257  -3.964  0.00  0.00    -0.025 C 
ATOM     14  C   UNL     1       1.926   0.805  -3.325  0.00  0.00    +0.015 C 
ATOM     15  C   UNL     1       3.307   0.773  -3.985  0.00  0.00    +0.075 C 
ATOM     16  C   UNL     1       3.850  -0.635  -3.883  0.00  0.00    +0.134 C 
ATOM     17  O   UNL     1       4.951  -0.845  -3.432  0.00  0.00    -0.297 OA
ATOM     18  C   UNL     1       2.958  -1.810  -4.399  0.00  0.00    +0.078 C 
ATOM     19  C   UNL     1       0.943  -0.017  -5.473  0.00  0.00    +0.012 C 
ATOM     20  C   UNL     1      -3.713   0.015  -0.693  0.00  0.00    +0.012 C 
ENDROOT
BRANCH   1  22
ATOM     21  C   UNL     1      -0.011   1.525   0.064  0.00  0.00    +0.019 C 
ATOM     22  C   UNL     1       0.002  -0.004   0.002  0.00  0.00    +0.098 C 
BRANCH  22  23
ATOM     23  C   UNL     1       0.847  -0.545   1.126  0.00  0.00    +0.310 C 
ATOM     24  O   UNL     1       0.356  -1.279   1.952  0.00  0.00    -0.251 OA
BRANCH  23  25
ATOM     25  O   UNL     1       2.145  -0.213   1.210  0.00  0.00    -0.468 OA
ATOM     26  C   UNL     1       2.886  -0.763   2.301  0.00  0.00    +0.280 C 
ENDBRANCH  23  25
ENDBRANCH  22  23
ENDBRANCH   1  22
TORSDOF 3
