REMARK  Name = ZINC63165305
REMARK  8 active torsions:
REMARK  status: ('A' for Active; 'I' for Inactive)
REMARK    1  A    between atoms: C_1  and  C_2
REMARK    2  A    between atoms: C_5  and  N_8
REMARK    3  A    between atoms: C_9  and  C_26
REMARK    4  A    between atoms: C_13  and  S_15
REMARK    5  A    between atoms: S_15  and  C_16
REMARK    6  A    between atoms: C_16  and  C_17
REMARK    7  A    between atoms: C_29  and  O_32
REMARK    8  A    between atoms: O_32  and  C_33
REMARK                            x       y       z     vdW  Elec       q    Type
REMARK                         _______ _______ _______ _____ _____    ______ ____
ROOT
ATOM      1  N   UNL     1       0.137  -4.099   0.074  0.00  0.00    -0.284 N 
ATOM      2  C   UNL     1       0.104  -4.992   1.245  0.00  0.00    +0.188 C 
ATOM      3  N   UNL     1       0.196  -6.376   0.725  0.00  0.00    -0.230 NA
ATOM      4  N   UNL     1      -0.294  -6.279  -0.659  0.00  0.00    -0.226 NA
ATOM      5  C   UNL     1       0.240  -4.971  -1.114  0.00  0.00    +0.217 C 
ATOM      6  H   UNL     1      -0.377  -7.005   1.268  0.00  0.00    +0.143 HD
ATOM      7  H   UNL     1       0.065  -7.034  -1.224  0.00  0.00    +0.143 HD
ENDROOT
BRANCH   1  12
ATOM      8  C   UNL     1      -0.112   1.566   0.117  0.00  0.00    +0.044 C 
ATOM      9  C   UNL     1      -0.046   0.060   0.106  0.00  0.00    -0.050 A 
ATOM     10  C   UNL     1       0.173  -0.612  -1.083  0.00  0.00    +0.005 A 
ATOM     11  C   UNL     1       0.234  -1.991  -1.097  0.00  0.00    +0.023 A 
ATOM     12  C   UNL     1       0.076  -2.704   0.085  0.00  0.00    +0.033 A 
ATOM     13  C   UNL     1      -0.144  -2.026   1.277  0.00  0.00    +0.023 A 
ATOM     14  C   UNL     1      -0.199  -0.646   1.285  0.00  0.00    +0.005 A 
ENDBRANCH   1  12
BRANCH   2  15
ATOM     15  C   UNL     1       1.274  -4.701   2.149  0.00  0.00    -0.011 A 
ATOM     16  C   UNL     1       2.123  -3.648   1.862  0.00  0.00    +0.010 A 
ATOM     17  C   UNL     1       3.196  -3.380   2.689  0.00  0.00    +0.046 A 
ATOM     18  C   UNL     1       3.422  -4.167   3.808  0.00  0.00    +0.120 A 
ATOM     19  C   UNL     1       2.569  -5.223   4.094  0.00  0.00    +0.046 A 
ATOM     20  C   UNL     1       1.494  -5.485   3.267  0.00  0.00    +0.010 A 
BRANCH  18  21
ATOM     21  O   UNL     1       4.478  -3.905   4.623  0.00  0.00    -0.495 OA
ATOM     22  C   UNL     1       4.650  -4.758   5.757  0.00  0.00    +0.277 C 
ENDBRANCH  18  21
ENDBRANCH   2  15
BRANCH   5  23
ATOM     23  S   UNL     1       1.971  -5.141  -1.627  0.00  0.00    -0.118 S 
BRANCH  23  24
ATOM     24  C   UNL     1       2.741  -6.069  -0.272  0.00  0.00    +0.119 C 
BRANCH  24  25
ATOM     25  C   UNL     1       4.188  -6.404  -0.641  0.00  0.00    +0.184 C 
ATOM     26  N   UNL     1       4.226  -7.156  -1.902  0.00  0.00    -0.363 N 
ATOM     27  C   UNL     1       4.915  -6.454  -2.755  0.00  0.00    +0.060 A 
ATOM     28  C   UNL     1       5.293  -6.676  -4.157  0.00  0.00    +0.027 A 
ATOM     29  C   UNL     1       6.031  -5.750  -4.801  0.00  0.00    +0.002 A 
ATOM     30  C   UNL     1       6.463  -4.562  -4.186  0.00  0.00    +0.002 A 
ATOM     31  C   UNL     1       6.172  -4.260  -2.905  0.00  0.00    +0.027 A 
ATOM     32  C   UNL     1       5.372  -5.196  -2.103  0.00  0.00    +0.060 A 
ATOM     33  N   UNL     1       4.948  -5.169  -0.873  0.00  0.00    -0.363 N 
ATOM     34  H   UNL     1       3.813  -8.018  -2.069  0.00  0.00    +0.162 HD
ATOM     35  H   UNL     1       5.104  -4.462  -0.227  0.00  0.00    +0.162 HD
ENDBRANCH  24  25
ENDBRANCH  23  24
ENDBRANCH   5  23
TORSDOF 6
