REMARK  Name = ZINC10876563
REMARK  5 active torsions:
REMARK  status: ('A' for Active; 'I' for Inactive)
REMARK    1  A    between atoms: C_13  and  C_17
REMARK    2  A    between atoms: C_17  and  O_19
REMARK    3  A    between atoms: O_19  and  C_20
REMARK    4  A    between atoms: C_20  and  C_21
REMARK    5  A    between atoms: N_26  and  C_27
REMARK                            x       y       z     vdW  Elec       q    Type
REMARK                         _______ _______ _______ _____ _____    ______ ____
ROOT
ATOM      1  O   UNL     1       3.603   6.236   0.104  0.00  0.00    -0.452 OA
ENDROOT
BRANCH   1   2
ATOM      2  C   UNL     1       2.442   5.559   0.009  0.00  0.00    +0.340 C 
ATOM      3  O   UNL     1       1.391   6.163  -0.070  0.00  0.00    -0.245 OA
BRANCH   2  16
ATOM      4  C   UNL     1      -1.337   1.895   4.846  0.00  0.00    +0.001 A 
ATOM      5  C   UNL     1      -1.350   3.277   4.864  0.00  0.00    +0.001 A 
ATOM      6  C   UNL     1      -0.611   3.998   3.942  0.00  0.00    +0.012 A 
ATOM      7  C   UNL     1       0.137   3.329   2.977  0.00  0.00    +0.033 A 
ATOM      8  C   UNL     1       0.145   1.922   2.955  0.00  0.00    +0.033 A 
ATOM      9  C   UNL     1      -0.594   1.213   3.897  0.00  0.00    +0.012 A 
ATOM     10  C   UNL     1       0.942   1.204   1.938  0.00  0.00    +0.195 C 
ATOM     11  O   UNL     1       0.953  -0.011   1.922  0.00  0.00    -0.287 OA
ATOM     12  C   UNL     1       1.719   1.965   0.937  0.00  0.00    +0.034 A 
ATOM     13  C   UNL     1       2.468   1.292  -0.028  0.00  0.00    +0.012 A 
ATOM     14  C   UNL     1       3.196   2.005  -0.965  0.00  0.00    +0.002 A 
ATOM     15  C   UNL     1       3.190   3.386  -0.956  0.00  0.00    +0.016 A 
ATOM     16  C   UNL     1       2.447   4.081   0.001  0.00  0.00    +0.070 A 
ATOM     17  C   UNL     1       1.706   3.367   0.956  0.00  0.00    +0.047 A 
ATOM     18  C   UNL     1       0.914   4.088   1.976  0.00  0.00    +0.195 C 
ATOM     19  O   UNL     1       0.903   5.303   1.992  0.00  0.00    -0.287 OA
ENDBRANCH   2  16
ENDBRANCH   1   2
BRANCH   1  20
ATOM     20  C   UNL     1       3.522   7.686   0.106  0.00  0.00    +0.328 C 
BRANCH  20  21
ATOM     21  C   UNL     1       4.908   8.266   0.217  0.00  0.00    +0.258 C 
ATOM     22  O   UNL     1       5.869   7.531   0.288  0.00  0.00    -0.272 OA
ATOM     23  N   UNL     1       5.080   9.603   0.238  0.00  0.00    -0.237 N 
ATOM     24  C   UNL     1       6.320  10.122   0.338  0.00  0.00    +0.306 C 
ATOM     25  O   UNL     1       7.283   9.384   0.410  0.00  0.00    -0.252 OA
ATOM     26  N   UNL     1       6.491  11.459   0.359  0.00  0.00    -0.294 N 
ATOM     27  H   UNL     1       4.311  10.192   0.182  0.00  0.00    +0.159 HD
ATOM     28  H   UNL     1       5.722  12.047   0.303  0.00  0.00    +0.151 HD
BRANCH  26  29
ATOM     29  C   UNL     1       7.839  12.023   0.468  0.00  0.00    +0.037 C 
ATOM     30  C   UNL     1       8.488  11.546   1.769  0.00  0.00    +0.029 C 
ATOM     31  C   UNL     1       9.895  12.135   1.883  0.00  0.00    -0.008 C 
ATOM     32  C   UNL     1       9.810  13.663   1.885  0.00  0.00    +0.007 C 
ATOM     33  C   UNL     1       9.161  14.139   0.584  0.00  0.00    -0.008 C 
ATOM     34  C   UNL     1       7.754  13.550   0.470  0.00  0.00    +0.029 C 
ATOM     35  C   UNL     1      10.005  13.677  -0.606  0.00  0.00    +0.007 C 
ATOM     36  C   UNL     1      10.090  12.149  -0.608  0.00  0.00    -0.008 C 
ATOM     37  C   UNL     1      10.739  11.673   0.693  0.00  0.00    +0.007 C 
ATOM     38  C   UNL     1       8.682  11.560  -0.722  0.00  0.00    +0.029 C 
ENDBRANCH  26  29
ENDBRANCH  20  21
ENDBRANCH   1  20
TORSDOF 5
