REMARK  Name = ZINC66643267
REMARK  7 active torsions:
REMARK  status: ('A' for Active; 'I' for Inactive)
REMARK    1  A    between atoms: C_1  and  C_2
REMARK    2  A    between atoms: C_5  and  C_12
REMARK    3  A    between atoms: C_8  and  C_10
REMARK    4  A    between atoms: C_8  and  C_11
REMARK    5  A    between atoms: C_12  and  C_13
REMARK    6  A    between atoms: C_20  and  C_22
REMARK    7  A    between atoms: C_22  and  C_23
REMARK                            x       y       z     vdW  Elec       q    Type
REMARK                         _______ _______ _______ _____ _____    ______ ____
ROOT
ATOM      1  C   UNL     1       0.917  -1.689  -3.846  0.00  0.00    +0.216 C 
ATOM      2  O   UNL     1      -0.129  -1.089  -3.708  0.00  0.00    -0.276 OA
ATOM      3  N   UNL     1       1.243  -2.208  -5.046  0.00  0.00    -0.298 N 
ATOM      4  C   UNL     1       2.560  -2.821  -5.264  0.00  0.00    +0.108 C 
ATOM      5  C   UNL     1       3.214  -2.165  -6.484  0.00  0.00    +0.019 C 
ATOM      6  C   UNL     1       2.267  -2.268  -7.682  0.00  0.00    +0.003 C 
ATOM      7  C   UNL     1       0.967  -1.522  -7.372  0.00  0.00    +0.023 C 
ATOM      8  C   UNL     1       0.285  -2.176  -6.160  0.00  0.00    +0.085 C 
ENDROOT
BRANCH   1   9
ATOM      9  C   UNL     1       1.851  -1.853  -2.675  0.00  0.00    +0.099 C 
BRANCH   9  13
ATOM     10  C   UNL     1       0.468   2.518  -0.687  0.00  0.00    +0.007 C 
ATOM     11  C   UNL     1       0.556   1.009  -0.448  0.00  0.00    -0.013 C 
ATOM     12  C   UNL     1       1.159   0.332  -1.681  0.00  0.00    +0.007 C 
ATOM     13  C   UNL     1       1.248  -1.177  -1.442  0.00  0.00    -0.002 C 
ATOM     14  C   UNL     1       2.135  -1.449  -0.226  0.00  0.00    +0.010 C 
ATOM     15  C   UNL     1       1.532  -0.773   1.007  0.00  0.00    -0.034 C 
ATOM     16  C   UNL     1       1.443   0.736   0.768  0.00  0.00    +0.009 C 
ATOM     17  C   UNL     1       2.418  -1.046   2.224  0.00  0.00    +0.011 C 
ATOM     18  C   UNL     1       0.130  -1.332   1.261  0.00  0.00    +0.011 C 
ENDBRANCH   9  13
ENDBRANCH   1   9
BRANCH   8  19
ATOM     19  C   UNL     1      -0.944  -1.359  -5.758  0.00  0.00    +0.118 C 
BRANCH  19  20
ATOM     20  C   UNL     1      -1.762  -2.139  -4.761  0.00  0.00    +0.212 C 
ATOM     21  O   UNL     1      -1.398  -3.241  -4.408  0.00  0.00    -0.276 OA
ATOM     22  N   UNL     1      -2.898  -1.613  -4.263  0.00  0.00    -0.329 N 
ATOM     23  H   UNL     1      -3.189  -0.732  -4.545  0.00  0.00    +0.145 HD
ATOM     24  H   UNL     1      -3.425  -2.115  -3.622  0.00  0.00    +0.145 HD
ENDBRANCH  19  20
ENDBRANCH   8  19
TORSDOF 4
