REMARK  Name = ZINC20149335
REMARK  5 active torsions:
REMARK  status: ('A' for Active; 'I' for Inactive)
REMARK    1  A    between atoms: C_4  and  C_7
REMARK    2  A    between atoms: C_7  and  N_8
REMARK    3  A    between atoms: C_11  and  N_14
REMARK    4  A    between atoms: N_14  and  C_15
REMARK    5  A    between atoms: N_26  and  C_29
REMARK                            x       y       z     vdW  Elec       q    Type
REMARK                         _______ _______ _______ _____ _____    ______ ____
ROOT
ATOM      1  C   UNL     1       0.263   6.262  -2.116  0.00  0.00    +0.059 C 
ATOM      2  C   UNL     1       0.874   7.663  -2.013  0.00  0.00    +0.024 C 
ATOM      3  C   UNL     1       0.993   8.282  -3.405  0.00  0.00    +0.038 C 
ATOM      4  C   UNL     1      -0.365   8.208  -4.099  0.00  0.00    -0.023 A 
ATOM      5  C   UNL     1      -1.315   7.350  -3.661  0.00  0.00    -0.003 A 
ATOM      6  S   UNL     1      -2.701   7.600  -4.742  0.00  0.00    -0.073 S 
ATOM      7  C   UNL     1      -2.006   8.850  -5.775  0.00  0.00    +0.116 A 
ATOM      8  C   UNL     1      -0.710   9.034  -5.242  0.00  0.00    +0.076 A 
ATOM      9  C   UNL     1       0.125  10.011  -5.882  0.00  0.00    +0.263 A 
ATOM     10  O   UNL     1       1.259  10.245  -5.500  0.00  0.00    -0.267 OA
ATOM     11  N   UNL     1      -0.427  10.655  -6.937  0.00  0.00    -0.296 N 
ATOM     12  C   UNL     1      -1.685  10.410  -7.377  0.00  0.00    +0.203 A 
ATOM     13  N   UNL     1      -2.480   9.524  -6.818  0.00  0.00    -0.230 NA
ATOM     14  C   UNL     1      -1.215   6.396  -2.511  0.00  0.00    +0.061 C 
ENDROOT
BRANCH  11  15
ATOM     15  C   UNL     1       0.372  11.666  -7.634  0.00  0.00    +0.092 C 
ATOM     16  C   UNL     1      -0.367  13.020  -7.629  0.00  0.00    +0.025 C 
ATOM     17  C   UNL     1      -0.049  13.631  -9.017  0.00  0.00    +0.002 C 
ATOM     18  C   UNL     1      -0.083  12.395  -9.950  0.00  0.00    +0.002 C 
ATOM     19  C   UNL     1       0.553  11.269  -9.110  0.00  0.00    +0.025 C 
ENDBRANCH  11  15
BRANCH   1  20
ATOM     20  N   UNL     1       0.367   5.582  -0.819  0.00  0.00    -0.310 NA
ATOM     21  H   UNL     1      -0.489   5.878  -0.195  0.00  0.00    +0.122 HD
BRANCH  20  25
ATOM     22  N   UNL     1       1.278   1.524  -0.118  0.00  0.00    +0.382 N 
ATOM     23  C   UNL     1      -0.110   1.938   0.124  0.00  0.00    -0.077 C 
ATOM     24  C   UNL     1      -0.169   3.459   0.283  0.00  0.00    -0.000 C 
ATOM     25  C   UNL     1       0.367   4.122  -0.989  0.00  0.00    +0.050 C 
ATOM     26  C   UNL     1       1.797   3.637  -1.244  0.00  0.00    -0.000 C 
ATOM     27  C   UNL     1       1.799   2.111  -1.359  0.00  0.00    -0.077 C 
ATOM     28  H   UNL     1       1.890   1.902   0.715  0.00  0.00    -0.081 HD
BRANCH  22  29
ATOM     29  C   UNL     1       1.395   0.060  -0.138  0.00  0.00    -0.043 C 
BRANCH  29  33
ATOM     30  C   UNL     1       0.515  -1.493   3.743  0.00  0.00    +0.000 A 
ATOM     31  C   UNL     1      -0.499  -1.330   2.817  0.00  0.00    +0.000 A 
ATOM     32  C   UNL     1      -0.214  -0.827   1.562  0.00  0.00    +0.002 A 
ATOM     33  C   UNL     1       1.084  -0.488   1.231  0.00  0.00    -0.064 A 
ATOM     34  C   UNL     1       2.099  -0.656   2.155  0.00  0.00    +0.002 A 
ATOM     35  C   UNL     1       1.813  -1.154   3.412  0.00  0.00    +0.000 A 
ENDBRANCH  29  33
ENDBRANCH  22  29
ENDBRANCH  20  25
ENDBRANCH   1  20
TORSDOF 5
