REMARK  Name = ZINC39536384
REMARK  3 active torsions:
REMARK  status: ('A' for Active; 'I' for Inactive)
REMARK    1  A    between atoms: N_9  and  C_10
REMARK    2  A    between atoms: C_10  and  C_11
REMARK    3  A    between atoms: C_21  and  C_23
REMARK                            x       y       z     vdW  Elec       q    Type
REMARK                         _______ _______ _______ _____ _____    ______ ____
ROOT
ATOM      1  C   UNL     1       5.387  -0.491   1.367  0.00  0.00    +0.238 C 
ATOM      2  O   UNL     1       4.623  -0.648   2.296  0.00  0.00    -0.274 OA
ATOM      3  N   UNL     1       6.689  -0.236   1.601  0.00  0.00    -0.288 N 
ATOM      4  C   UNL     1       7.623  -0.038   0.482  0.00  0.00    +0.114 C 
ATOM      5  C   UNL     1       8.651  -1.180   0.503  0.00  0.00    +0.062 C 
ATOM      6  C   UNL     1       9.083  -1.408   1.915  0.00  0.00    -0.003 A 
ATOM      7  C   UNL     1       8.476  -0.982   3.055  0.00  0.00    -0.012 A 
ATOM      8  C   UNL     1       9.082  -1.338   4.259  0.00  0.00    +0.013 A 
ATOM      9  C   UNL     1      10.222  -2.067   4.252  0.00  0.00    +0.046 A 
ATOM     10  S   UNL     1      10.502  -2.295   2.502  0.00  0.00    -0.101 S 
ATOM     11  C   UNL     1       7.195  -0.146   2.977  0.00  0.00    +0.144 C 
ENDROOT
BRANCH  11  12
ATOM     12  C   UNL     1       7.497   1.291   3.317  0.00  0.00    +0.015 A 
ATOM     13  C   UNL     1       7.278   1.959   4.476  0.00  0.00    +0.013 A 
ATOM     14  C   UNL     1       7.641   3.290   4.562  0.00  0.00    +0.008 A 
ATOM     15  C   UNL     1       8.206   3.888   3.484  0.00  0.00    +0.045 A 
ATOM     16  S   UNL     1       8.245   2.554   2.299  0.00  0.00    -0.099 S 
ENDBRANCH  11  12
BRANCH   1  17
ATOM     17  C   UNL     1       4.879  -0.581  -0.050  0.00  0.00    +0.241 C 
BRANCH  17  26
ATOM     18  C   UNL     1      -0.016   1.360   0.009  0.00  0.00    +0.002 A 
ATOM     19  C   UNL     1       1.167   2.086   0.002  0.00  0.00    +0.002 A 
ATOM     20  C   UNL     1       2.375   1.447  -0.013  0.00  0.00    +0.029 A 
ATOM     21  C   UNL     1       2.422   0.057  -0.021  0.00  0.00    +0.090 A 
ATOM     22  C   UNL     1       1.227  -0.684  -0.013  0.00  0.00    +0.113 A 
ATOM     23  C   UNL     1       0.002  -0.004   0.002  0.00  0.00    +0.032 A 
ATOM     24  N   UNL     1       1.557  -1.991  -0.024  0.00  0.00    -0.129 NA
ATOM     25  N   UNL     1       2.836  -2.129  -0.037  0.00  0.00    -0.064 NA
ATOM     26  N   UNL     1       3.442  -0.864  -0.036  0.00  0.00    -0.235 N 
ENDBRANCH  17  26
ENDBRANCH   1  17
TORSDOF 3
