REMARK  Name = ZINC20157691
REMARK  6 active torsions:
REMARK  status: ('A' for Active; 'I' for Inactive)
REMARK    1  A    between atoms: C_1  and  C_2
REMARK    2  A    between atoms: C_10  and  C_14
REMARK    3  A    between atoms: N_17  and  C_18
REMARK    4  A    between atoms: C_18  and  C_19
REMARK    5  A    between atoms: N_21  and  C_22
REMARK    6  A    between atoms: N_21  and  C_23
REMARK                            x       y       z     vdW  Elec       q    Type
REMARK                         _______ _______ _______ _____ _____    ______ ____
ROOT
ATOM      1  C   UNL     1       0.054  -2.940  -4.234  0.00  0.00    +0.086 C 
ATOM      2  C   UNL     1      -0.911  -2.317  -5.208  0.00  0.00    +0.111 A 
ATOM      3  N   UNL     1      -1.572  -3.082  -6.036  0.00  0.00    -0.227 NA
ATOM      4  C   UNL     1      -2.427  -2.562  -6.912  0.00  0.00    +0.116 A 
ATOM      5  C   UNL     1      -2.667  -1.181  -6.990  0.00  0.00    +0.076 A 
ATOM      6  C   UNL     1      -3.634  -0.755  -8.001  0.00  0.00    -0.023 A 
ATOM      7  C   UNL     1      -4.196  -1.723  -8.756  0.00  0.00    -0.004 A 
ATOM      8  S   UNL     1      -3.481  -3.236  -8.171  0.00  0.00    -0.073 S 
ATOM      9  C   UNL     1      -5.206  -1.549  -9.849  0.00  0.00    +0.046 C 
ATOM     10  C   UNL     1      -5.795  -0.136  -9.743  0.00  0.00    -0.009 C 
ATOM     11  C   UNL     1      -4.646   0.865  -9.590  0.00  0.00    +0.008 C 
ATOM     12  C   UNL     1      -4.003   0.711  -8.211  0.00  0.00    +0.037 C 
ATOM     13  C   UNL     1      -6.593   0.184 -11.010  0.00  0.00    +0.008 C 
ATOM     14  C   UNL     1      -1.930  -0.371  -6.065  0.00  0.00    +0.263 A 
ATOM     15  O   UNL     1      -2.070   0.840  -6.054  0.00  0.00    -0.267 OA
ATOM     16  N   UNL     1      -1.083  -0.970  -5.207  0.00  0.00    -0.287 N 
ENDROOT
BRANCH  16  17
ATOM     17  C   UNL     1      -0.325  -0.150  -4.258  0.00  0.00    +0.222 C 
BRANCH  17  18
ATOM     18  C   UNL     1       0.952   0.318  -4.906  0.00  0.00    +0.235 C 
ATOM     19  O   UNL     1       1.205  -0.001  -6.048  0.00  0.00    -0.274 OA
ATOM     20  N   UNL     1       1.813   1.091  -4.215  0.00  0.00    -0.300 N 
ATOM     21  C   UNL     1       1.508   1.477  -2.835  0.00  0.00    +0.132 C 
BRANCH  20  22
ATOM     22  C   UNL     1       3.055   1.547  -4.845  0.00  0.00    +0.076 C 
ATOM     23  C   UNL     1       3.081   3.076  -4.874  0.00  0.00    +0.022 C 
ATOM     24  C   UNL     1       4.378   3.552  -5.532  0.00  0.00    +0.002 C 
ATOM     25  C   UNL     1       5.575   3.036  -4.731  0.00  0.00    +0.000 C 
ATOM     26  C   UNL     1       5.549   1.507  -4.702  0.00  0.00    +0.002 C 
ATOM     27  C   UNL     1       4.252   1.031  -4.044  0.00  0.00    +0.022 C 
ENDBRANCH  20  22
ENDBRANCH  17  18
ENDBRANCH  16  17
TORSDOF 3
