REMARK  Name = ZINC36742786
REMARK  6 active torsions:
REMARK  status: ('A' for Active; 'I' for Inactive)
REMARK    1  A    between atoms: C_3  and  O_21
REMARK    2  A    between atoms: C_4  and  C_8
REMARK    3  A    between atoms: C_6  and  N_7
REMARK    4  A    between atoms: C_8  and  N_9
REMARK    5  A    between atoms: N_9  and  S_10
REMARK    6  A    between atoms: S_10  and  C_13
REMARK                            x       y       z     vdW  Elec       q    Type
REMARK                         _______ _______ _______ _____ _____    ______ ____
ROOT
ATOM      1  N   UNL     1       4.303  -0.627  -1.377  0.00  0.00    -0.185 NA
ATOM      2  H   UNL     1       3.758  -0.347  -2.130  0.00  0.00    +0.148 HD
ENDROOT
BRANCH   1   3
ATOM      3  S   UNL     1       5.897  -1.012  -1.607  0.00  0.00    +0.060 S 
ATOM      4  O   UNL     1       6.155  -0.862  -2.997  0.00  0.00    -0.153 OA
ATOM      5  O   UNL     1       6.632  -0.307  -0.616  0.00  0.00    -0.153 OA
BRANCH   3   6
ATOM      6  C   UNL     1       6.077  -2.726  -1.244  0.00  0.00    +0.124 A 
ATOM      7  C   UNL     1       6.439  -3.610  -2.243  0.00  0.00    +0.031 A 
ATOM      8  C   UNL     1       6.580  -4.955  -1.958  0.00  0.00    +0.017 A 
ATOM      9  C   UNL     1       6.359  -5.418  -0.673  0.00  0.00    +0.019 A 
ATOM     10  C   UNL     1       5.997  -4.534   0.327  0.00  0.00    +0.037 A 
ATOM     11  C   UNL     1       5.861  -3.187   0.043  0.00  0.00    +0.068 A 
ATOM     12 CL   UNL     1       5.413  -2.075   1.299  0.00  0.00    -0.081 Cl
ATOM     13 BR   UNL     1       6.551  -7.258  -0.284  0.00  0.00    -0.050 Br
ENDBRANCH   3   6
ENDBRANCH   1   3
BRANCH   1  14
ATOM     14  C   UNL     1       3.716  -0.708  -0.038  0.00  0.00    +0.144 C 
BRANCH  14  18
ATOM     15  C   UNL     1      -0.017   1.384   0.010  0.00  0.00    +0.026 A 
ATOM     16  C   UNL     1       1.170   2.091   0.002  0.00  0.00    +0.047 A 
ATOM     17  C   UNL     1       2.380   1.414  -0.013  0.00  0.00    +0.121 A 
ATOM     18  C   UNL     1       2.400   0.027  -0.021  0.00  0.00    +0.011 A 
ATOM     19  C   UNL     1       1.214  -0.681  -0.013  0.00  0.00    +0.031 A 
ATOM     20  C   UNL     1       0.002  -0.004   0.002  0.00  0.00    +0.025 A 
BRANCH  20  21
ATOM     21  N   UNL     1      -1.200  -0.721   0.010  0.00  0.00    -0.358 N 
ATOM     22  H   UNL     1      -2.047  -0.247   0.021  0.00  0.00    +0.142 HD
ATOM     23  H   UNL     1      -1.186  -1.690   0.005  0.00  0.00    +0.142 HD
ENDBRANCH  20  21
BRANCH  17  24
ATOM     24  O   UNL     1       3.549   2.110  -0.021  0.00  0.00    -0.506 OA
ATOM     25  H   UNL     1       3.895   2.307   0.860  0.00  0.00    +0.292 HD
ENDBRANCH  17  24
ENDBRANCH  14  18
ENDBRANCH   1  14
TORSDOF 6
