REMARK  Name = ZINC10532819
REMARK  5 active torsions:
REMARK  status: ('A' for Active; 'I' for Inactive)
REMARK    1  A    between atoms: C_1  and  C_2
REMARK    2  A    between atoms: C_14  and  C_15
REMARK    3  A    between atoms: C_15  and  O_17
REMARK    4  A    between atoms: O_17  and  C_18
REMARK    5  A    between atoms: C_18  and  C_19
REMARK                            x       y       z     vdW  Elec       q    Type
REMARK                         _______ _______ _______ _____ _____    ______ ____
ROOT
ATOM      1  C   UNL     1      -1.736  -3.045  -0.008  0.00  0.00    +0.308 C 
ENDROOT
BRANCH   1   2
ATOM      2  C   UNL     1      -1.479  -4.529  -0.013  0.00  0.00    +0.170 A 
ATOM      3  N   UNL     1      -1.285  -5.155   1.135  0.00  0.00    -0.214 NA
ATOM      4  C   UNL     1      -1.054  -6.456   1.198  0.00  0.00    +0.128 A 
ATOM      5  C   UNL     1      -1.013  -7.210  -0.008  0.00  0.00    +0.051 A 
ATOM      6  C   UNL     1      -0.779  -8.649  -0.178  0.00  0.00    -0.025 A 
ATOM      7  C   UNL     1      -0.783  -9.117  -1.442  0.00  0.00    -0.004 A 
ATOM      8  S   UNL     1      -1.108  -7.703  -2.463  0.00  0.00    -0.073 S 
ATOM      9  C   UNL     1      -1.228  -6.475  -1.189  0.00  0.00    +0.114 A 
ATOM     10  N   UNL     1      -1.458  -5.176  -1.162  0.00  0.00    -0.221 NA
ATOM     11  C   UNL     1      -0.557 -10.525  -1.900  0.00  0.00    +0.043 C 
ATOM     12  C   UNL     1      -1.439 -11.473  -1.077  0.00  0.00    +0.005 C 
ATOM     13  C   UNL     1      -0.656 -11.908   0.157  0.00  0.00    +0.001 C 
ATOM     14  C   UNL     1       0.261 -10.777   0.619  0.00  0.00    +0.005 C 
ATOM     15  C   UNL     1      -0.558  -9.558   1.027  0.00  0.00    +0.037 C 
ATOM     16  N   UNL     1      -0.857  -7.075   2.419  0.00  0.00    -0.343 N 
ATOM     17  H   UNL     1      -1.074  -8.014   2.527  0.00  0.00    +0.144 HD
ATOM     18  H   UNL     1      -0.502  -6.570   3.167  0.00  0.00    +0.144 HD
ENDBRANCH   1   2
BRANCH   1  19
ATOM     19  O   UNL     1      -0.474  -2.334  -0.107  0.00  0.00    -0.453 OA
BRANCH  19  20
ATOM     20  C   UNL     1      -0.528  -0.986  -0.116  0.00  0.00    +0.347 C 
ATOM     21  O   UNL     1      -1.603  -0.421  -0.043  0.00  0.00    -0.244 OA
BRANCH  20  35
ATOM     22  C   UNL     1      -0.356   2.047  -0.164  0.00  0.00    +0.046 C 
ATOM     23  C   UNL     1       0.855   1.152  -0.237  0.00  0.00    -0.015 A 
ATOM     24  C   UNL     1       2.132   1.710  -0.335  0.00  0.00    +0.076 A 
ATOM     25  C   UNL     1       3.202   0.788  -0.404  0.00  0.00    +0.116 A 
ATOM     26  N   UNL     1       4.459   1.191  -0.501  0.00  0.00    -0.226 NA
ATOM     27  C   UNL     1       4.787   2.460  -0.537  0.00  0.00    +0.114 A 
ATOM     28  N   UNL     1       3.848   3.437  -0.475  0.00  0.00    -0.296 N 
ATOM     29  C   UNL     1       2.533   3.131  -0.377  0.00  0.00    +0.263 A 
ATOM     30  O   UNL     1       1.694   4.013  -0.325  0.00  0.00    -0.267 OA
ATOM     31  C   UNL     1       4.476   4.770  -0.527  0.00  0.00    +0.127 C 
ATOM     32  C   UNL     1       5.898   4.539  -1.079  0.00  0.00    +0.029 C 
ATOM     33  C   UNL     1       6.168   3.079  -0.652  0.00  0.00    +0.076 C 
ATOM     34  S   UNL     1       2.388  -0.788  -0.330  0.00  0.00    -0.062 S 
ATOM     35  C   UNL     1       0.706  -0.204  -0.213  0.00  0.00    +0.102 A 
ENDBRANCH  20  35
ENDBRANCH  19  20
ENDBRANCH   1  19
TORSDOF 4
