REMARK  Name = ZINC31056594
REMARK  9 active torsions:
REMARK  status: ('A' for Active; 'I' for Inactive)
REMARK    1  A    between atoms: C_3  and  C_6
REMARK    2  A    between atoms: C_8  and  C_11
REMARK    3  A    between atoms: C_11  and  N_12
REMARK    4  A    between atoms: C_16  and  C_19
REMARK    5  A    between atoms: N_21  and  C_22
REMARK    6  A    between atoms: C_22  and  C_23
REMARK    7  A    between atoms: C_23  and  S_24
REMARK    8  A    between atoms: S_24  and  C_25
REMARK    9  A    between atoms: C_25  and  C_26
REMARK                            x       y       z     vdW  Elec       q    Type
REMARK                         _______ _______ _______ _____ _____    ______ ____
ROOT
ATOM      1  N   UNL     1       3.946   8.000  -0.016  0.00  0.00    +0.386 N 
ATOM      2  C   UNL     1       3.284   8.511  -1.223  0.00  0.00    -0.078 C 
ATOM      3  C   UNL     1       1.829   8.040  -1.246  0.00  0.00    -0.018 C 
ATOM      4  C   UNL     1       1.792   6.509  -1.231  0.00  0.00    +0.009 C 
ATOM      5  C   UNL     1       2.530   6.001   0.010  0.00  0.00    +0.058 C 
ATOM      6  C   UNL     1       3.966   6.531  -0.003  0.00  0.00    -0.065 C 
ATOM      7  H   UNL     1       3.363   8.335   0.854  0.00  0.00    -0.081 HD
ENDROOT
BRANCH   5   8
ATOM      8  C   UNL     1       2.551   4.494   0.002  0.00  0.00    +0.214 C 
ATOM      9  O   UNL     1       3.609   3.902  -0.011  0.00  0.00    -0.276 OA
ATOM     10  N   UNL     1       1.393   3.804   0.009  0.00  0.00    -0.314 N 
ATOM     11  H   UNL     1       0.433   4.341   0.021  0.00  0.00    +0.149 HD
BRANCH  10  12
ATOM     12  C   UNL     1       1.413   2.339   0.001  0.00  0.00    +0.115 C 
BRANCH  12  13
ATOM     13  C   UNL     1      -0.022   1.810   0.012  0.00  0.00    +0.088 C 
BRANCH  13  14
ATOM     14  S   UNL     1       0.002  -0.004   0.002  0.00  0.00    -0.155 S 
BRANCH  14  15
ATOM     15  C   UNL     1      -1.752  -0.467   0.016  0.00  0.00    +0.104 C 
BRANCH  15  16
ATOM     16  C   UNL     1      -1.875  -1.969   0.009  0.00  0.00    -0.036 A 
ATOM     17  C   UNL     1      -1.949  -2.651  -1.191  0.00  0.00    +0.006 A 
ATOM     18  C   UNL     1      -2.056  -4.028  -1.199  0.00  0.00    +0.022 A 
ATOM     19  C   UNL     1      -2.102  -4.725  -0.005  0.00  0.00    +0.059 A 
ATOM     20  C   UNL     1      -2.034  -4.042   1.197  0.00  0.00    +0.060 A 
ATOM     21  C   UNL     1      -1.920  -2.663   1.203  0.00  0.00    +0.026 A 
ATOM     22 CL   UNL     1      -2.090  -4.915   2.697  0.00  0.00    -0.082 Cl
ATOM     23 CL   UNL     1      -2.243  -6.455  -0.014  0.00  0.00    -0.082 Cl
ENDBRANCH  15  16
ENDBRANCH  14  15
ENDBRANCH  13  14
ENDBRANCH  12  13
ENDBRANCH  10  12
ENDBRANCH   5   8
BRANCH   1  24
ATOM     24  C   UNL     1       5.304   8.545   0.111  0.00  0.00    +0.022 C 
BRANCH  24  27
ATOM     25  C   UNL     1       5.108  11.961   1.216  0.00  0.00    +0.209 A 
ATOM     26  N   UNL     1       5.152  10.638   1.499  0.00  0.00    -0.192 NA
ATOM     27  C   UNL     1       5.228  10.033   0.340  0.00  0.00    +0.211 A 
ATOM     28  O   UNL     1       5.221  10.981  -0.602  0.00  0.00    -0.340 OA
ATOM     29  N   UNL     1       5.152  12.078  -0.088  0.00  0.00    -0.056 NA
BRANCH  25  32
ATOM     30  C   UNL     1       4.891  15.264   3.050  0.00  0.00    +0.008 A 
ATOM     31  C   UNL     1       4.975  14.415   1.969  0.00  0.00    +0.019 A 
ATOM     32  C   UNL     1       5.022  13.065   2.194  0.00  0.00    +0.060 A 
ATOM     33  S   UNL     1       4.960  12.987   3.977  0.00  0.00    -0.093 S 
ATOM     34  C   UNL     1       4.869  14.740   4.303  0.00  0.00    +0.046 A 
ENDBRANCH  25  32
ENDBRANCH  24  27
ENDBRANCH   1  24
TORSDOF 9
