REMARK  Name = ZINC45913435
REMARK  9 active torsions:
REMARK  status: ('A' for Active; 'I' for Inactive)
REMARK    1  A    between atoms: C_1  and  C_2
REMARK    2  A    between atoms: C_7  and  N_8
REMARK    3  A    between atoms: C_9  and  C_11
REMARK    4  A    between atoms: C_11  and  N_12
REMARK    5  A    between atoms: C_16  and  S_24
REMARK    6  A    between atoms: C_19  and  C_22
REMARK    7  A    between atoms: C_19  and  C_23
REMARK    8  A    between atoms: S_24  and  N_27
REMARK    9  A    between atoms: C_31  and  C_34
REMARK                            x       y       z     vdW  Elec       q    Type
REMARK                         _______ _______ _______ _____ _____    ______ ____
ROOT
ATOM      1  N   UNL     1      -0.240  -0.901   5.989  0.00  0.00    -0.262 N 
ATOM      2  C   UNL     1      -1.434  -1.428   6.484  0.00  0.00    +0.041 A 
ATOM      3  C   UNL     1      -2.755  -1.209   6.098  0.00  0.00    +0.026 A 
ATOM      4  C   UNL     1      -3.783  -1.858   6.750  0.00  0.00    +0.030 A 
ATOM      5  C   UNL     1      -3.513  -2.728   7.790  0.00  0.00    +0.106 A 
ATOM      6  C   UNL     1      -2.203  -2.951   8.179  0.00  0.00    +0.035 A 
ATOM      7  C   UNL     1      -1.175  -2.305   7.530  0.00  0.00    -0.010 A 
ATOM      8  C   UNL     1       0.326  -2.327   7.705  0.00  0.00    +0.069 C 
ATOM      9  C   UNL     1       0.834  -1.376   6.641  0.00  0.00    +0.230 C 
ATOM     10  O   UNL     1       1.993  -1.095   6.421  0.00  0.00    -0.274 OA
ATOM     11  C   UNL     1       0.873  -3.735   7.464  0.00  0.00    +0.025 C 
ATOM     12  C   UNL     1       0.710  -1.832   9.100  0.00  0.00    +0.025 C 
ENDROOT
BRANCH   5  13
ATOM     13  S   UNL     1      -4.832  -3.552   8.618  0.00  0.00    +0.061 S 
ATOM     14  O   UNL     1      -4.350  -3.894   9.911  0.00  0.00    -0.153 OA
ATOM     15  O   UNL     1      -5.993  -2.756   8.425  0.00  0.00    -0.153 OA
BRANCH  13  16
ATOM     16  N   UNL     1      -5.097  -4.978   7.820  0.00  0.00    -0.176 NA
ATOM     17  C   UNL     1      -6.046  -5.044   6.700  0.00  0.00    +0.109 C 
ATOM     18  C   UNL     1      -7.056  -6.163   6.975  0.00  0.00    +0.017 C 
ATOM     19  C   UNL     1      -6.305  -7.469   7.240  0.00  0.00    +0.006 C 
ATOM     20  C   UNL     1      -5.415  -7.307   8.475  0.00  0.00    +0.002 C 
ATOM     21  C   UNL     1      -4.382  -6.200   8.213  0.00  0.00    +0.112 C 
ATOM     22  C   UNL     1      -4.690  -8.624   8.758  0.00  0.00    +0.009 C 
ENDBRANCH  13  16
ENDBRANCH   5  13
BRANCH   1  23
ATOM     23  C   UNL     1      -0.167   0.056   4.883  0.00  0.00    +0.209 C 
BRANCH  23  25
ATOM     24  N   UNL     1       0.026  -0.013   2.417  0.00  0.00    -0.284 N 
ATOM     25  C   UNL     1      -0.056  -0.692   3.579  0.00  0.00    +0.235 C 
ATOM     26  O   UNL     1      -0.040  -1.905   3.575  0.00  0.00    -0.274 OA
ATOM     27  H   UNL     1       0.079   0.956   2.425  0.00  0.00    +0.155 HD
BRANCH  24  34
ATOM     28  C   UNL     1      -1.265   1.183   0.182  0.00  0.00    +0.046 C 
ATOM     29  C   UNL     1      -0.584  -0.158   0.085  0.00  0.00    -0.027 A 
ATOM     30  C   UNL     1      -0.570  -0.840  -1.116  0.00  0.00    +0.043 A 
ATOM     31  C   UNL     1       0.055  -2.072  -1.206  0.00  0.00    +0.124 A 
ATOM     32  C   UNL     1       0.667  -2.623  -0.093  0.00  0.00    +0.040 A 
ATOM     33  C   UNL     1       0.655  -1.944   1.110  0.00  0.00    +0.026 A 
ATOM     34  C   UNL     1       0.034  -0.706   1.200  0.00  0.00    +0.037 A 
ATOM     35  F   UNL     1       0.068  -2.738  -2.382  0.00  0.00    -0.205 F 
ENDBRANCH  24  34
ENDBRANCH  23  25
ENDBRANCH   1  23
TORSDOF 5
