REMARK  Name = ZINC48771131
REMARK  4 active torsions:
REMARK  status: ('A' for Active; 'I' for Inactive)
REMARK    1  A    between atoms: C_1  and  O_2
REMARK    2  A    between atoms: O_2  and  C_3
REMARK    3  A    between atoms: C_7  and  O_9
REMARK    4  A    between atoms: O_9  and  C_10
REMARK                            x       y       z     vdW  Elec       q    Type
REMARK                         _______ _______ _______ _____ _____    ______ ____
ROOT
ATOM      1  C   UNL     1       0.606  -0.607  -1.055  0.00  0.00    +0.126 A 
ATOM      2  C   UNL     1       0.649  -1.982  -1.119  0.00  0.00    +0.074 A 
ATOM      3  C   UNL     1       1.272  -2.609  -2.210  0.00  0.00    +0.080 A 
ATOM      4  C   UNL     1       1.845  -1.810  -3.231  0.00  0.00    +0.061 A 
ATOM      5  C   UNL     1       1.785  -0.405  -3.137  0.00  0.00    +0.134 A 
ATOM      6  C   UNL     1       1.168   0.176  -2.066  0.00  0.00    +0.092 A 
ATOM      7  C   UNL     1       2.463  -2.447  -4.318  0.00  0.00    +0.059 A 
ATOM      8  C   UNL     1       2.492  -3.822  -4.349  0.00  0.00    -0.007 A 
ATOM      9  C   UNL     1       1.918  -4.548  -3.317  0.00  0.00    +0.047 A 
ATOM     10  N   UNL     1       1.334  -3.938  -2.301  0.00  0.00    -0.251 NA
ATOM     11  C   UNL     1       1.935  -6.057  -3.291  0.00  0.00    +0.056 C 
ATOM     12  C   UNL     1       2.227  -6.614  -4.682  0.00  0.00    +0.006 C 
ATOM     13  C   UNL     1       3.490  -5.934  -5.222  0.00  0.00    +0.005 C 
ATOM     14  C   UNL     1       3.156  -4.476  -5.532  0.00  0.00    +0.038 C 
ATOM     15 CL   UNL     1       3.176  -1.518  -5.599  0.00  0.00    -0.082 Cl
ENDROOT
BRANCH   1  17
ATOM     16  C   UNL     1      -0.017   1.425   0.010  0.00  0.00    +0.277 C 
ATOM     17  O   UNL     1       0.002  -0.004   0.002  0.00  0.00    -0.495 OA
ENDBRANCH   1  17
BRANCH   5  18
ATOM     18  O   UNL     1       2.333   0.367  -4.110  0.00  0.00    -0.494 OA
ATOM     19  C   UNL     1       2.233   1.784  -3.947  0.00  0.00    +0.277 C 
ENDBRANCH   5  18
TORSDOF 2
