REMARK  Name = ZINC66643266
REMARK  7 active torsions:
REMARK  status: ('A' for Active; 'I' for Inactive)
REMARK    1  A    between atoms: C_1  and  C_2
REMARK    2  A    between atoms: C_5  and  C_12
REMARK    3  A    between atoms: C_8  and  C_10
REMARK    4  A    between atoms: C_8  and  C_11
REMARK    5  A    between atoms: C_12  and  C_13
REMARK    6  A    between atoms: C_20  and  C_22
REMARK    7  A    between atoms: C_22  and  C_23
REMARK                            x       y       z     vdW  Elec       q    Type
REMARK                         _______ _______ _______ _____ _____    ______ ____
ROOT
ATOM      1  C   UNL     1      -4.255  -0.446  -0.281  0.00  0.00    +0.216 C 
ATOM      2  O   UNL     1      -3.733   0.517  -0.802  0.00  0.00    -0.276 OA
ATOM      3  N   UNL     1      -5.586  -0.630  -0.386  0.00  0.00    -0.298 N 
ATOM      4  C   UNL     1      -6.214  -1.856   0.125  0.00  0.00    +0.108 C 
ATOM      5  C   UNL     1      -7.042  -2.490  -0.997  0.00  0.00    +0.019 C 
ATOM      6  C   UNL     1      -8.031  -1.457  -1.542  0.00  0.00    +0.003 C 
ATOM      7  C   UNL     1      -7.261  -0.269  -2.123  0.00  0.00    +0.023 C 
ATOM      8  C   UNL     1      -6.437   0.393  -1.008  0.00  0.00    +0.085 C 
ENDROOT
BRANCH   1   9
ATOM      9  C   UNL     1      -3.415  -1.436   0.484  0.00  0.00    +0.099 C 
BRANCH   9  13
ATOM     10  C   UNL     1       0.142   0.890  -0.911  0.00  0.00    +0.007 C 
ATOM     11  C   UNL     1       0.019  -0.625  -1.066  0.00  0.00    -0.013 C 
ATOM     12  C   UNL     1      -1.440  -1.055  -0.990  0.00  0.00    +0.007 C 
ATOM     13  C   UNL     1      -1.947  -0.995   0.450  0.00  0.00    -0.002 C 
ATOM     14  C   UNL     1      -1.117  -1.949   1.307  0.00  0.00    +0.010 C 
ATOM     15  C   UNL     1       0.350  -1.534   1.313  0.00  0.00    -0.034 C 
ATOM     16  C   UNL     1       0.910  -1.363  -0.088  0.00  0.00    +0.009 C 
ATOM     17  C   UNL     1       1.151  -2.653   2.014  0.00  0.00    +0.011 C 
ATOM     18  C   UNL     1       0.530  -0.257   2.137  0.00  0.00    +0.011 C 
ENDBRANCH   9  13
ENDBRANCH   1   9
BRANCH   8  19
ATOM     19  C   UNL     1      -5.560   1.497  -1.603  0.00  0.00    +0.118 C 
BRANCH  19  20
ATOM     20  C   UNL     1      -4.967   2.322  -0.491  0.00  0.00    +0.212 C 
ATOM     21  O   UNL     1      -5.222   2.055   0.665  0.00  0.00    -0.276 OA
ATOM     22  N   UNL     1      -4.155   3.358  -0.779  0.00  0.00    -0.329 N 
ATOM     23  H   UNL     1      -3.951   3.573  -1.703  0.00  0.00    +0.145 HD
ATOM     24  H   UNL     1      -3.774   3.890  -0.063  0.00  0.00    +0.145 HD
ENDBRANCH  19  20
ENDBRANCH   8  19
TORSDOF 4
