REMARK  Name = ZINC36298743
REMARK  9 active torsions:
REMARK  status: ('A' for Active; 'I' for Inactive)
REMARK    1  A    between atoms: C_1  and  C_2
REMARK    2  A    between atoms: C_2  and  C_3
REMARK    3  A    between atoms: C_2  and  C_4
REMARK    4  A    between atoms: C_4  and  C_5
REMARK    5  A    between atoms: C_5  and  C_7
REMARK    6  A    between atoms: C_5  and  N_19
REMARK    7  A    between atoms: C_7  and  N_8
REMARK    8  A    between atoms: N_8  and  S_9
REMARK    9  A    between atoms: S_9  and  C_12
REMARK                            x       y       z     vdW  Elec       q    Type
REMARK                         _______ _______ _______ _____ _____    ______ ____
ROOT
ATOM      1  N   UNL     1      -0.397  -0.608   4.892  0.00  0.00    -0.191 NA
ATOM      2  H   UNL     1      -1.038   0.116   4.821  0.00  0.00    +0.148 HD
ENDROOT
BRANCH   1   3
ATOM      3  S   UNL     1      -0.232  -1.431   6.319  0.00  0.00    +0.060 S 
ATOM      4  O   UNL     1      -1.134  -0.833   7.240  0.00  0.00    -0.153 OA
ATOM      5  O   UNL     1      -0.278  -2.815   5.998  0.00  0.00    -0.153 OA
BRANCH   3   6
ATOM      6  C   UNL     1       1.391  -1.108   6.923  0.00  0.00    +0.132 A 
ATOM      7  C   UNL     1       1.576  -0.415   8.106  0.00  0.00    +0.057 A 
ATOM      8  C   UNL     1       2.839  -0.183   8.541  0.00  0.00    +0.081 A 
ATOM      9  S   UNL     1       3.818  -0.956   7.264  0.00  0.00    -0.063 S 
ATOM     10  C   UNL     1       2.479  -1.540   6.238  0.00  0.00    +0.106 A 
ATOM     11 CL   UNL     1       2.551  -2.429   4.748  0.00  0.00    -0.074 Cl
ATOM     12 CL   UNL     1       3.367   0.649   9.970  0.00  0.00    -0.076 Cl
ENDBRANCH   3   6
ENDBRANCH   1   3
BRANCH   1  13
ATOM     13  C   UNL     1       0.426  -0.974   3.736  0.00  0.00    +0.090 C 
BRANCH  13  14
ATOM     14  C   UNL     1      -0.161  -0.344   2.472  0.00  0.00    -0.059 C 
BRANCH  14  15
ATOM     15  N   UNL     1      -0.290   1.107   2.663  0.00  0.00    +0.381 N 
ATOM     16  H   UNL     1       0.616   1.503   2.861  0.00  0.00    -0.090 HD
ATOM     17  H   UNL     1      -0.664   1.525   1.824  0.00  0.00    -0.090 HD
ATOM     18  H   UNL     1      -0.913   1.290   3.435  0.00  0.00    -0.090 HD
ENDBRANCH  14  15
BRANCH  14  19
ATOM     19  C   UNL     1       0.766  -0.621   1.286  0.00  0.00    -0.012 C 
BRANCH  19  21
ATOM     20  C   UNL     1       1.096  -0.262  -1.164  0.00  0.00    +0.007 C 
ATOM     21  C   UNL     1       0.114  -0.112  -0.001  0.00  0.00    -0.019 C 
ATOM     22  C   UNL     1      -1.148  -0.928  -0.290  0.00  0.00    +0.007 C 
ENDBRANCH  19  21
ENDBRANCH  14  19
ENDBRANCH  13  14
ENDBRANCH   1  13
TORSDOF 7
