REMARK  Name = ZINC09779126
REMARK  6 active torsions:
REMARK  status: ('A' for Active; 'I' for Inactive)
REMARK    1  A    between atoms: C_5  and  O_8
REMARK    2  A    between atoms: O_8  and  C_9
REMARK    3  A    between atoms: C_9  and  C_10
REMARK    4  A    between atoms: N_12  and  C_13
REMARK    5  A    between atoms: C_13  and  C_14
REMARK    6  A    between atoms: C_14  and  C_15
REMARK                            x       y       z     vdW  Elec       q    Type
REMARK                         _______ _______ _______ _____ _____    ______ ____
ROOT
ATOM      1  C   UNL     1      -4.239   0.616   1.100  0.00  0.00    +0.251 C 
ATOM      2  O   UNL     1      -4.643   0.385  -0.020  0.00  0.00    -0.272 OA
ATOM      3  N   UNL     1      -4.940   0.190   2.170  0.00  0.00    -0.312 N 
ATOM      4  H   UNL     1      -4.617   0.374   3.066  0.00  0.00    +0.149 HD
ENDROOT
BRANCH   1   5
ATOM      5  C   UNL     1      -2.954   1.377   1.296  0.00  0.00    +0.324 C 
BRANCH   5   6
ATOM      6  O   UNL     1      -2.402   1.716   0.022  0.00  0.00    -0.480 OA
BRANCH   6  11
ATOM      7  C   UNL     1       1.166   2.440   0.004  0.00  0.00    +0.043 A 
ATOM      8  C   UNL     1       1.147   3.823   0.011  0.00  0.00    +0.044 A 
ATOM      9  C   UNL     1      -0.058   4.501   0.026  0.00  0.00    +0.039 A 
ATOM     10  C   UNL     1      -1.248   3.797   0.035  0.00  0.00    +0.062 A 
ATOM     11  C   UNL     1      -1.233   2.410   0.021  0.00  0.00    +0.153 A 
ATOM     12  C   UNL     1      -0.021   1.732   0.012  0.00  0.00    +0.085 A 
ATOM     13 CL   UNL     1       0.002  -0.004   0.002  0.00  0.00    -0.080 Cl
ATOM     14 BR   UNL     1      -2.896   4.724   0.055  0.00  0.00    -0.046 Br
ATOM     15 CL   UNL     1       2.640   4.710   0.001  0.00  0.00    -0.083 Cl
ENDBRANCH   6  11
ENDBRANCH   5   6
ENDBRANCH   1   5
BRANCH   3  16
ATOM     16  C   UNL     1      -6.190  -0.550   1.979  0.00  0.00    +0.108 C 
BRANCH  16  17
ATOM     17  C   UNL     1      -6.781  -0.913   3.343  0.00  0.00    +0.049 C 
BRANCH  17  18
ATOM     18  C   UNL     1      -8.066  -1.675   3.147  0.00  0.00    -0.072 C 
ATOM     19  C   UNL     1      -8.014  -2.968   3.158  0.00  0.00    -0.028 C 
ATOM     20  C   UNL     1      -9.205  -3.860   2.967  0.00  0.00    +0.027 C 
ATOM     21  C   UNL     1     -10.496  -3.068   3.185  0.00  0.00    +0.004 C 
ATOM     22  C   UNL     1     -10.421  -1.779   2.357  0.00  0.00    +0.005 C 
ATOM     23  C   UNL     1      -9.329  -0.886   2.956  0.00  0.00    +0.030 C 
ENDBRANCH  17  18
ENDBRANCH  16  17
ENDBRANCH   3  16
TORSDOF 6
