REMARK  Name = ZINC36026799
REMARK  10 active torsions:
REMARK  status: ('A' for Active; 'I' for Inactive)
REMARK    1  A    between atoms: C_1  and  C_2
REMARK    2  A    between atoms: C_2  and  C_3
REMARK    3  A    between atoms: C_3  and  N_4
REMARK    4  A    between atoms: C_14  and  C_25
REMARK    5  A    between atoms: N_18  and  C_19
REMARK    6  A    between atoms: C_19  and  C_20
REMARK    7  A    between atoms: C_20  and  C_22
REMARK    8  A    between atoms: C_20  and  C_23
REMARK    9  A    between atoms: C_23  and  C_24
REMARK   10  A    between atoms: C_25  and  C_26
REMARK                            x       y       z     vdW  Elec       q    Type
REMARK                         _______ _______ _______ _____ _____    ______ ____
ROOT
ATOM      1  N   UNL     1       0.995  -1.868  -0.826  0.00  0.00    -0.299 N 
ATOM      2  C   UNL     1       1.494  -2.478  -1.919  0.00  0.00    +0.302 C 
ATOM      3  O   UNL     1       1.911  -1.815  -2.848  0.00  0.00    -0.253 OA
ATOM      4  N   UNL     1       1.531  -3.824  -1.981  0.00  0.00    -0.286 N 
ATOM      5  C   UNL     1       0.922  -4.639  -0.921  0.00  0.00    +0.109 C 
ATOM      6  C   UNL     1      -0.063  -5.623  -1.561  0.00  0.00    +0.025 C 
ATOM      7  C   UNL     1       0.652  -6.423  -2.648  0.00  0.00    +0.006 C 
ATOM      8  C   UNL     1       1.184  -5.488  -3.732  0.00  0.00    +0.025 C 
ATOM      9  C   UNL     1       2.175  -4.503  -3.114  0.00  0.00    +0.109 C 
ATOM     10  N   UNL     1      -0.282  -7.400  -3.246  0.00  0.00    +0.401 N 
ATOM     11  C   UNL     1       0.595  -8.552  -3.565  0.00  0.00    +0.023 C 
ATOM     12  C   UNL     1       1.743  -8.446  -2.585  0.00  0.00    +0.201 C 
ATOM     13  O   UNL     1       2.526  -9.332  -2.313  0.00  0.00    -0.277 OA
ATOM     14  N   UNL     1       1.750  -7.201  -2.066  0.00  0.00    -0.313 N 
ATOM     15  H   UNL     1       0.596  -2.395  -0.115  0.00  0.00    +0.150 HD
ATOM     16  H   UNL     1      -0.993  -7.666  -2.581  0.00  0.00    -0.082 HD
ATOM     17  H   UNL     1      -0.700  -7.026  -4.085  0.00  0.00    -0.082 HD
ENDROOT
BRANCH   1  18
ATOM     18  C   UNL     1       1.054  -0.408  -0.710  0.00  0.00    +0.105 C 
BRANCH  18  20
ATOM     19  C   UNL     1       0.486   1.548   0.736  0.00  0.00    +0.005 C 
ATOM     20  C   UNL     1       0.424   0.024   0.615  0.00  0.00    +0.015 C 
ENDBRANCH  18  20
ENDBRANCH   1  18
BRANCH  14  21
ATOM     21  C   UNL     1       2.706  -6.703  -1.075  0.00  0.00    +0.109 C 
BRANCH  21  22
ATOM     22  C   UNL     1       2.183  -6.999   0.332  0.00  0.00    +0.003 C 
ATOM     23  C   UNL     1       2.149  -8.512   0.556  0.00  0.00    +0.009 C 
BRANCH  22  24
ATOM     24  C   UNL     1       3.106  -6.352   1.367  0.00  0.00    +0.001 C 
ATOM     25  C   UNL     1       2.517  -6.541   2.766  0.00  0.00    +0.004 C 
ENDBRANCH  22  24
ENDBRANCH  21  22
ENDBRANCH  14  21
BRANCH  11  26
ATOM     26  C   UNL     1      -0.160  -9.868  -3.364  0.00  0.00    +0.028 C 
BRANCH  26  27
ATOM     27  C   UNL     1      -1.292  -9.954  -4.356  0.00  0.00    -0.048 A 
ATOM     28  C   UNL     1      -2.537  -9.451  -4.030  0.00  0.00    +0.003 A 
ATOM     29  C   UNL     1      -3.575  -9.530  -4.940  0.00  0.00    +0.000 A 
ATOM     30  C   UNL     1      -3.366 -10.112  -6.177  0.00  0.00    +0.000 A 
ATOM     31  C   UNL     1      -2.120 -10.614  -6.503  0.00  0.00    +0.000 A 
ATOM     32  C   UNL     1      -1.082 -10.531  -5.595  0.00  0.00    +0.003 A 
ENDBRANCH  26  27
ENDBRANCH  11  26
TORSDOF 7
