REMARK  Name = ZINC09507853
REMARK  5 active torsions:
REMARK  status: ('A' for Active; 'I' for Inactive)
REMARK    1  A    between atoms: C_3  and  C_24
REMARK    2  A    between atoms: C_4  and  N_8
REMARK    3  A    between atoms: C_9  and  C_11
REMARK    4  A    between atoms: C_11  and  S_12
REMARK    5  A    between atoms: S_12  and  C_13
REMARK                            x       y       z     vdW  Elec       q    Type
REMARK                         _______ _______ _______ _____ _____    ______ ____
ROOT
ATOM      1  N   UNL     1      -0.288   1.272  -2.443  0.00  0.00    -0.284 N 
ATOM      2  C   UNL     1      -0.743   1.582  -1.213  0.00  0.00    +0.228 C 
ATOM      3  O   UNL     1      -1.733   2.271  -1.088  0.00  0.00    -0.275 OA
ATOM      4  H   UNL     1       0.547   0.790  -2.544  0.00  0.00    +0.155 HD
ENDROOT
BRANCH   1   8
ATOM      5  C   UNL     1      -2.474   2.388  -5.818  0.00  0.00    +0.021 A 
ATOM      6  C   UNL     1      -1.115   2.187  -5.928  0.00  0.00    +0.022 A 
ATOM      7  C   UNL     1      -0.372   1.819  -4.804  0.00  0.00    +0.073 A 
ATOM      8  C   UNL     1      -1.019   1.645  -3.571  0.00  0.00    +0.052 A 
ATOM      9  C   UNL     1      -2.387   1.851  -3.477  0.00  0.00    +0.044 A 
ATOM     10  C   UNL     1      -3.110   2.221  -4.597  0.00  0.00    +0.043 A 
ATOM     11 CL   UNL     1      -4.822   2.478  -4.473  0.00  0.00    -0.083 Cl
BRANCH   7  12
ATOM     12  C   UNL     1       1.041   1.615  -4.911  0.00  0.00    +0.101 C 
ATOM     13  N   UNL     1       2.163   1.453  -4.996  0.00  0.00    -0.191 NA
ENDBRANCH   7  12
ENDBRANCH   1   8
BRANCH   2  14
ATOM     14  C   UNL     1      -0.021   1.073   0.008  0.00  0.00    +0.173 C 
BRANCH  14  15
ATOM     15  S   UNL     1      -0.870   1.657   1.501  0.00  0.00    -0.076 S 
BRANCH  15  16
ATOM     16  C   UNL     1       0.082   0.987   2.823  0.00  0.00    +0.196 A 
ATOM     17  N   UNL     1       1.157   0.240   2.708  0.00  0.00    -0.122 NA
ATOM     18  N   UNL     1       1.606  -0.079   3.870  0.00  0.00    -0.127 NA
ATOM     19  C   UNL     1       0.837   0.451   4.804  0.00  0.00    +0.180 A 
ATOM     20  N   UNL     1      -0.156   1.153   4.155  0.00  0.00    -0.275 N 
ATOM     21  C   UNL     1      -1.119   1.812   4.870  0.00  0.00    +0.115 A 
ATOM     22  C   UNL     1      -1.102   1.793   6.218  0.00  0.00    +0.059 A 
ATOM     23  C   UNL     1      -0.097   1.090   6.910  0.00  0.00    +0.045 A 
ATOM     24  C   UNL     1       0.864   0.425   6.214  0.00  0.00    +0.087 A 
ATOM     25 CL   UNL     1       2.110  -0.446   7.052  0.00  0.00    -0.080 Cl
ATOM     26 CL   UNL     1      -2.328   2.641   7.108  0.00  0.00    -0.082 Cl
ENDBRANCH  15  16
ENDBRANCH  14  15
ENDBRANCH   2  14
TORSDOF 5
