REMARK  Name = ZINC43513746
REMARK  8 active torsions:
REMARK  status: ('A' for Active; 'I' for Inactive)
REMARK    1  A    between atoms: C_1  and  C_2
REMARK    2  A    between atoms: C_2  and  C_4
REMARK    3  A    between atoms: C_2  and  O_6
REMARK    4  A    between atoms: O_6  and  C_7
REMARK    5  A    between atoms: C_8  and  O_16
REMARK    6  A    between atoms: C_10  and  C_14
REMARK    7  A    between atoms: C_14  and  N_15
REMARK    8  A    between atoms: O_16  and  C_17
REMARK                            x       y       z     vdW  Elec       q    Type
REMARK                         _______ _______ _______ _____ _____    ______ ____
ROOT
ATOM      1  C   UNL     1      -0.095  -0.675  -2.278  0.00  0.00    +0.178 A 
ATOM      2  C   UNL     1      -0.675  -1.921  -2.498  0.00  0.00    +0.163 A 
ATOM      3  C   UNL     1      -1.454  -2.130  -3.624  0.00  0.00    +0.051 A 
ATOM      4  C   UNL     1      -1.655  -1.102  -4.526  0.00  0.00    -0.060 A 
ATOM      5  C   UNL     1      -1.080   0.135  -4.309  0.00  0.00    +0.021 A 
ATOM      6  C   UNL     1      -0.305   0.353  -3.183  0.00  0.00    +0.063 A 
ATOM      7 BR   UNL     1       0.474   2.050  -2.885  0.00  0.00    -0.046 Br
ENDROOT
BRANCH   2   8
ATOM      8  O   UNL     1      -0.476  -2.931  -1.609  0.00  0.00    -0.491 OA
ATOM      9  C   UNL     1      -1.101  -4.183  -1.899  0.00  0.00    +0.277 C 
ENDBRANCH   2   8
BRANCH   1  10
ATOM     10  O   UNL     1       0.671  -0.465  -1.174  0.00  0.00    -0.470 OA
BRANCH  10  12
ATOM     11  C   UNL     1      -0.019   1.526   0.010  0.00  0.00    +0.068 C 
ATOM     12  C   UNL     1       0.002  -0.004   0.002  0.00  0.00    +0.271 C 
BRANCH  12  13
ATOM     13  C   UNL     1       0.714  -0.492   1.195  0.00  0.00    +0.107 C 
ATOM     14  N   UNL     1       1.263  -0.868   2.115  0.00  0.00    -0.193 NA
ENDBRANCH  12  13
ENDBRANCH  10  12
ENDBRANCH   1  10
BRANCH   4  15
ATOM     15  C   UNL     1      -2.504  -1.332  -5.751  0.00  0.00    -0.050 C 
BRANCH  15  16
ATOM     16  N   UNL     1      -3.903  -1.008  -5.444  0.00  0.00    +0.381 N 
ATOM     17  H   UNL     1      -4.229  -1.599  -4.694  0.00  0.00    -0.090 HD
ATOM     18  H   UNL     1      -3.971  -0.041  -5.165  0.00  0.00    -0.090 HD
ATOM     19  H   UNL     1      -4.471  -1.162  -6.264  0.00  0.00    -0.090 HD
ENDBRANCH  15  16
ENDBRANCH   4  15
TORSDOF 6
