REMARK  Name = ZINC16700534
REMARK  7 active torsions:
REMARK  status: ('A' for Active; 'I' for Inactive)
REMARK    1  A    between atoms: C_1  and  C_2
REMARK    2  A    between atoms: C_7  and  N_8
REMARK    3  A    between atoms: N_8  and  S_9
REMARK    4  A    between atoms: S_9  and  C_12
REMARK    5  A    between atoms: C_15  and  N_18
REMARK    6  A    between atoms: C_21  and  C_26
REMARK    7  A    between atoms: C_21  and  C_27
REMARK                            x       y       z     vdW  Elec       q    Type
REMARK                         _______ _______ _______ _____ _____    ______ ____
ROOT
ATOM      1  C   UNL     1      -2.365  -0.211   2.469  0.00  0.00    +0.109 A 
ATOM      2  C   UNL     1      -1.121  -0.220   3.071  0.00  0.00    +0.030 A 
ATOM      3  C   UNL     1      -1.010  -0.026   4.434  0.00  0.00    +0.027 A 
ATOM      4  C   UNL     1      -2.152   0.167   5.201  0.00  0.00    +0.059 A 
ATOM      5  C   UNL     1      -3.401   0.170   4.594  0.00  0.00    +0.027 A 
ATOM      6  C   UNL     1      -3.504  -0.019   3.229  0.00  0.00    +0.030 A 
ENDROOT
BRANCH   4   7
ATOM      7  N   UNL     1      -2.044   0.359   6.583  0.00  0.00    -0.143 N 
ATOM      8  C   UNL     1      -2.925   1.005   7.362  0.00  0.00    +0.246 C 
ATOM      9  O   UNL     1      -3.945   1.465   6.894  0.00  0.00    -0.273 OA
ATOM     10  C   UNL     1      -2.622   1.141   8.823  0.00  0.00    +0.064 C 
ATOM     11  C   UNL     1      -1.551   0.087   9.210  0.00  0.00    +0.205 C 
ATOM     12  S   UNL     1      -0.788  -0.171   7.556  0.00  0.00    +0.053 S 
ATOM     13  O   UNL     1      -0.643  -1.557   7.275  0.00  0.00    -0.155 OA
ATOM     14  O   UNL     1       0.278   0.743   7.340  0.00  0.00    -0.155 OA
ATOM     15  C   UNL     1      -3.895   0.905   9.640  0.00  0.00    +0.022 C 
ATOM     16  C   UNL     1      -2.086   2.546   9.101  0.00  0.00    +0.022 C 
ENDBRANCH   4   7
BRANCH   1  17
ATOM     17  S   UNL     1      -2.501  -0.453   0.729  0.00  0.00    +0.072 S 
ATOM     18  O   UNL     1      -3.810  -0.951   0.489  0.00  0.00    -0.150 OA
ATOM     19  O   UNL     1      -1.333  -1.154   0.323  0.00  0.00    -0.150 OA
BRANCH  17  20
ATOM     20  N   UNL     1      -2.426   1.042   0.019  0.00  0.00    -0.216 N 
ATOM     21  H   UNL     1      -3.170   1.364  -0.513  0.00  0.00    +0.174 HD
BRANCH  20  28
ATOM     22  C   UNL     1      -2.782   3.856   0.230  0.00  0.00    +0.046 C 
ATOM     23  C   UNL     1      -1.419   3.217   0.295  0.00  0.00    -0.027 A 
ATOM     24  C   UNL     1      -0.294   4.003   0.455  0.00  0.00    +0.020 A 
ATOM     25  C   UNL     1       0.958   3.418   0.514  0.00  0.00    +0.018 A 
ATOM     26  C   UNL     1       1.088   2.044   0.413  0.00  0.00    +0.017 A 
ATOM     27  C   UNL     1      -0.033   1.253   0.253  0.00  0.00    +0.026 A 
ATOM     28  C   UNL     1      -1.291   1.839   0.187  0.00  0.00    +0.051 A 
ATOM     29 BR   UNL     1       2.495   4.497   0.733  0.00  0.00    -0.050 Br
ENDBRANCH  20  28
ENDBRANCH  17  20
ENDBRANCH   1  17
TORSDOF 4
