REMARK  Name = ZINC15677737
REMARK  8 active torsions:
REMARK  status: ('A' for Active; 'I' for Inactive)
REMARK    1  A    between atoms: C_1  and  C_2
REMARK    2  A    between atoms: C_2  and  C_3
REMARK    3  A    between atoms: C_2  and  C_4
REMARK    4  A    between atoms: C_7  and  C_10
REMARK    5  A    between atoms: C_11  and  N_16
REMARK    6  A    between atoms: N_16  and  C_17
REMARK    7  A    between atoms: C_22  and  C_23
REMARK    8  A    between atoms: C_23  and  C_25
REMARK                            x       y       z     vdW  Elec       q    Type
REMARK                         _______ _______ _______ _____ _____    ______ ____
ROOT
ATOM      1  C   UNL     1       3.084  -5.336   2.035  0.00  0.00    +0.058 C 
ATOM      2  C   UNL     1       2.878  -3.989   1.706  0.00  0.00    +0.094 C 
ATOM      3  C   UNL     1       1.555  -4.331   1.151  0.00  0.00    +0.248 C 
ATOM      4  O   UNL     1       0.657  -3.706   0.621  0.00  0.00    -0.282 OA
ATOM      5  C   UNL     1       1.776  -5.756   1.509  0.00  0.00    +0.237 C 
ATOM      6  O   UNL     1       1.158  -6.798   1.408  0.00  0.00    -0.283 OA
ENDROOT
BRANCH   1  10
ATOM      7  C   UNL     1       6.291  -7.428   3.869  0.00  0.00    -0.045 A 
ATOM      8  C   UNL     1       5.158  -8.116   3.470  0.00  0.00    +0.004 A 
ATOM      9  C   UNL     1       4.112  -7.443   2.874  0.00  0.00    +0.009 A 
ATOM     10  C   UNL     1       4.198  -6.063   2.672  0.00  0.00    -0.012 A 
ATOM     11  C   UNL     1       5.348  -5.375   3.072  0.00  0.00    +0.009 A 
ATOM     12  C   UNL     1       6.383  -6.061   3.672  0.00  0.00    +0.004 A 
BRANCH   7  14
ATOM     13  C   UNL     1       8.696  -8.000   3.678  0.00  0.00    +0.012 C 
ATOM     14  C   UNL     1       7.429  -8.170   4.519  0.00  0.00    +0.013 C 
ATOM     15  C   UNL     1       7.670  -7.609   5.922  0.00  0.00    +0.012 C 
ENDBRANCH   7  14
ENDBRANCH   1  10
BRANCH   2  16
ATOM     16  N   UNL     1       3.606  -2.837   1.839  0.00  0.00    -0.310 N 
ATOM     17  H   UNL     1       4.428  -2.839   2.353  0.00  0.00    +0.152 HD
BRANCH  16  18
ATOM     18  C   UNL     1       3.165  -1.663   1.237  0.00  0.00    +0.046 A 
ATOM     19  C   UNL     1       2.612  -1.699  -0.034  0.00  0.00    +0.073 A 
ATOM     20  C   UNL     1       2.172  -0.530  -0.635  0.00  0.00    +0.168 A 
ATOM     21  C   UNL     1       2.283   0.692   0.036  0.00  0.00    +0.167 A 
ATOM     22  C   UNL     1       2.831   0.742   1.299  0.00  0.00    +0.062 A 
ATOM     23  C   UNL     1       3.279  -0.436   1.915  0.00  0.00    +0.042 A 
ATOM     24  O   UNL     1       1.780   1.676  -0.768  0.00  0.00    -0.453 OA
ATOM     25  C   UNL     1       0.991   0.994  -1.760  0.00  0.00    +0.466 C 
ATOM     26  O   UNL     1       1.604  -0.306  -1.854  0.00  0.00    -0.453 OA
BRANCH  23  27
ATOM     27  C   UNL     1       3.861  -0.388   3.258  0.00  0.00    +0.162 C 
ATOM     28  O   UNL     1       4.152  -1.418   3.830  0.00  0.00    -0.292 OA
ATOM     29  C   UNL     1       4.100   0.940   3.929  0.00  0.00    +0.091 C 
ENDBRANCH  23  27
ENDBRANCH  16  18
ENDBRANCH   2  16
TORSDOF 5
