REMARK  Name = ZINC32625328
REMARK  7 active torsions:
REMARK  status: ('A' for Active; 'I' for Inactive)
REMARK    1  A    between atoms: C_4  and  N_7
REMARK    2  A    between atoms: C_9  and  C_21
REMARK    3  A    between atoms: C_10  and  C_12
REMARK    4  A    between atoms: C_16  and  N_18
REMARK    5  A    between atoms: N_22  and  N_23
REMARK    6  A    between atoms: C_24  and  C_26
REMARK    7  A    between atoms: C_35  and  O_36
REMARK                            x       y       z     vdW  Elec       q    Type
REMARK                         _______ _______ _______ _____ _____    ______ ____
ROOT
ATOM      1  N   UNL     1      -0.295   7.353   1.318  0.00  0.00    -0.239 N 
ATOM      2  C   UNL     1      -1.351   7.373   0.478  0.00  0.00    +0.124 A 
ATOM      3  C   UNL     1      -1.358   6.198  -0.221  0.00  0.00    +0.040 A 
ATOM      4  C   UNL     1      -0.213   5.418   0.258  0.00  0.00    +0.102 A 
ATOM      5  N   UNL     1       0.394   6.145   1.171  0.00  0.00    -0.166 NA
ENDROOT
BRANCH   1   9
ATOM      6  C   UNL     1       0.753  10.416   3.942  0.00  0.00    +0.000 A 
ATOM      7  C   UNL     1       1.575   9.312   3.807  0.00  0.00    +0.002 A 
ATOM      8  C   UNL     1       1.230   8.295   2.938  0.00  0.00    +0.028 A 
ATOM      9  C   UNL     1       0.057   8.382   2.200  0.00  0.00    +0.065 A 
ATOM     10  C   UNL     1      -0.763   9.495   2.334  0.00  0.00    +0.028 A 
ATOM     11  C   UNL     1      -0.416  10.506   3.208  0.00  0.00    +0.002 A 
ENDBRANCH   1   9
BRANCH   4  12
ATOM     12  C   UNL     1       0.188   4.068  -0.204  0.00  0.00    +0.005 A 
ATOM     13  C   UNL     1      -0.783   3.118  -0.517  0.00  0.00    +0.010 A 
ATOM     14  C   UNL     1      -0.404   1.864  -0.951  0.00  0.00    +0.003 A 
ATOM     15  C   UNL     1       0.938   1.546  -1.066  0.00  0.00    +0.033 A 
ATOM     16  C   UNL     1       1.906   2.484  -0.757  0.00  0.00    +0.127 A 
ATOM     17  C   UNL     1       1.538   3.743  -0.327  0.00  0.00    +0.042 A 
BRANCH  16  18
ATOM     18  N   UNL     1       3.339   2.138  -0.887  0.00  0.00    +0.056 N 
ATOM     19  O   UNL     1       3.667   1.000  -1.176  0.00  0.00    -0.126 OA
ATOM     20  O   UNL     1       4.190   2.989  -0.707  0.00  0.00    -0.126 OA
ENDBRANCH  16  18
ENDBRANCH   4  12
BRANCH   3  21
ATOM     21  C   UNL     1      -2.330   5.793  -1.252  0.00  0.00    +0.142 C 
ATOM     22  N   UNL     1      -3.171   6.660  -1.728  0.00  0.00    -0.187 NA
BRANCH  22  23
ATOM     23  N   UNL     1      -2.900   8.030  -1.621  0.00  0.00    -0.203 N 
ATOM     24  C   UNL     1      -3.831   8.932  -1.989  0.00  0.00    +0.267 C 
ATOM     25  O   UNL     1      -4.939   8.559  -2.325  0.00  0.00    -0.268 OA
ATOM     26  H   UNL     1      -1.927   8.370  -1.236  0.00  0.00    +0.178 HD
BRANCH  24  27
ATOM     27  C   UNL     1      -3.507  10.371  -1.983  0.00  0.00    +0.080 A 
ATOM     28  C   UNL     1      -2.213  10.784  -1.712  0.00  0.00    +0.025 A 
ATOM     29  C   UNL     1      -1.910  12.153  -1.714  0.00  0.00    -0.017 A 
ATOM     30  C   UNL     1      -0.605  12.608  -1.447  0.00  0.00    +0.008 A 
ATOM     31  C   UNL     1      -0.343  13.943  -1.450  0.00  0.00    +0.001 A 
ATOM     32  C   UNL     1      -1.350  14.871  -1.713  0.00  0.00    +0.001 A 
ATOM     33  C   UNL     1      -2.623  14.469  -1.975  0.00  0.00    +0.008 A 
ATOM     34  C   UNL     1      -2.934  13.098  -1.981  0.00  0.00    -0.014 A 
ATOM     35  C   UNL     1      -4.240  12.654  -2.248  0.00  0.00    +0.054 A 
ATOM     36  C   UNL     1      -4.519  11.319  -2.248  0.00  0.00    +0.130 A 
BRANCH  36  37
ATOM     37  O   UNL     1      -5.783  10.897  -2.507  0.00  0.00    -0.506 OA
ATOM     38  H   UNL     1      -6.576  11.631  -2.714  0.00  0.00    +0.292 HD
ENDBRANCH  36  37
ENDBRANCH  24  27
ENDBRANCH  22  23
ENDBRANCH   3  21
TORSDOF 7
