REMARK  Name = ZINC08922947
REMARK  6 active torsions:
REMARK  status: ('A' for Active; 'I' for Inactive)
REMARK    1  A    between atoms: C_6  and  C_7
REMARK    2  A    between atoms: C_7  and  N_8
REMARK    3  A    between atoms: C_15  and  C_18
REMARK    4  A    between atoms: C_15  and  O_27
REMARK    5  A    between atoms: C_18  and  C_19
REMARK    6  A    between atoms: C_19  and  C_21
REMARK                            x       y       z     vdW  Elec       q    Type
REMARK                         _______ _______ _______ _____ _____    ______ ____
ROOT
ATOM      1  N   UNL     1      -0.098   6.499  -1.345  0.00  0.00    -0.264 N 
ATOM      2  C   UNL     1       1.050   6.783  -2.086  0.00  0.00    +0.043 A 
ATOM      3  C   UNL     1       2.399   6.671  -1.754  0.00  0.00    +0.025 A 
ATOM      4  C   UNL     1       3.369   7.012  -2.673  0.00  0.00    +0.022 A 
ATOM      5  C   UNL     1       3.013   7.462  -3.932  0.00  0.00    +0.041 A 
ATOM      6  C   UNL     1       1.674   7.570  -4.271  0.00  0.00    +0.028 A 
ATOM      7  C   UNL     1       0.705   7.230  -3.355  0.00  0.00    +0.016 A 
ATOM      8  C   UNL     1      -0.806   7.233  -3.408  0.00  0.00    +0.176 C 
ATOM      9  C   UNL     1      -1.224   6.737  -2.040  0.00  0.00    +0.257 C 
ATOM     10  O   UNL     1      -2.360   6.584  -1.646  0.00  0.00    -0.272 OA
ATOM     11 CL   UNL     1       4.240   7.890  -5.084  0.00  0.00    -0.084 Cl
ENDROOT
BRANCH   8  12
ATOM     12  O   UNL     1      -1.298   8.556  -3.633  0.00  0.00    -0.374 OA
ATOM     13  H   UNL     1      -2.263   8.624  -3.618  0.00  0.00    +0.211 HD
ENDBRANCH   8  12
BRANCH   1  14
ATOM     14  C   UNL     1      -0.079   6.003   0.033  0.00  0.00    +0.148 C 
BRANCH  14  20
ATOM     15  C   UNL     1       1.148   3.822   0.011  0.00  0.00    +0.006 A 
ATOM     16  C   UNL     1       1.167   2.440   0.004  0.00  0.00    +0.020 A 
ATOM     17  C   UNL     1      -0.021   1.732   0.012  0.00  0.00    +0.041 A 
ATOM     18  C   UNL     1      -1.229   2.407   0.021  0.00  0.00    +0.020 A 
ATOM     19  C   UNL     1      -1.247   3.789   0.033  0.00  0.00    +0.006 A 
ATOM     20  C   UNL     1      -0.059   4.497   0.025  0.00  0.00    -0.030 A 
ATOM     21 CL   UNL     1       0.002  -0.004   0.002  0.00  0.00    -0.084 Cl
ENDBRANCH  14  20
ENDBRANCH   1  14
BRANCH   8  22
ATOM     22  C   UNL     1      -1.306   6.284  -4.499  0.00  0.00    +0.129 C 
BRANCH  22  23
ATOM     23  C   UNL     1      -2.812   6.233  -4.468  0.00  0.00    +0.173 C 
ATOM     24  O   UNL     1      -3.425   6.892  -3.653  0.00  0.00    -0.291 OA
BRANCH  23  25
ATOM     25  C   UNL     1      -3.509   5.419  -5.386  0.00  0.00    +0.056 A 
ATOM     26  C   UNL     1      -4.881   5.227  -5.522  0.00  0.00    +0.020 A 
ATOM     27  C   UNL     1      -5.295   4.375  -6.512  0.00  0.00    +0.023 A 
ATOM     28  C   UNL     1      -4.363   3.760  -7.293  0.00  0.00    +0.056 A 
ATOM     29  S   UNL     1      -2.862   4.364  -6.671  0.00  0.00    -0.079 S 
ATOM     30 BR   UNL     1      -4.641   2.542  -8.713  0.00  0.00    -0.043 Br
ENDBRANCH  23  25
ENDBRANCH  22  23
ENDBRANCH   8  22
TORSDOF 6
