REMARK  Name = ZINC35367178
REMARK  7 active torsions:
REMARK  status: ('A' for Active; 'I' for Inactive)
REMARK    1  A    between atoms: C_3  and  N_22
REMARK    2  A    between atoms: C_6  and  C_7
REMARK    3  A    between atoms: C_7  and  C_9
REMARK    4  A    between atoms: C_7  and  O_21
REMARK    5  A    between atoms: C_9  and  N_10
REMARK    6  A    between atoms: N_10  and  S_11
REMARK    7  A    between atoms: S_11  and  C_14
REMARK                            x       y       z     vdW  Elec       q    Type
REMARK                         _______ _______ _______ _____ _____    ______ ____
ROOT
ATOM      1  C   UNL     1      -1.654  -1.150   1.449  0.00  0.00    +0.142 C 
ENDROOT
BRANCH   1   2
ATOM      2  N   UNL     1      -2.913  -1.898   1.458  0.00  0.00    -0.187 NA
ATOM      3  H   UNL     1      -3.485  -1.894   0.674  0.00  0.00    +0.148 HD
BRANCH   2   4
ATOM      4  S   UNL     1      -3.361  -2.750   2.805  0.00  0.00    +0.060 S 
ATOM      5  O   UNL     1      -4.623  -3.335   2.515  0.00  0.00    -0.153 OA
ATOM      6  O   UNL     1      -2.233  -3.523   3.191  0.00  0.00    -0.153 OA
BRANCH   4   7
ATOM      7  C   UNL     1      -3.634  -1.580   4.094  0.00  0.00    +0.132 A 
ATOM      8  C   UNL     1      -4.897  -1.410   4.634  0.00  0.00    +0.057 A 
ATOM      9  C   UNL     1      -5.071  -0.501   5.625  0.00  0.00    +0.081 A 
ATOM     10  S   UNL     1      -3.421   0.150   5.824  0.00  0.00    -0.063 S 
ATOM     11  C   UNL     1      -2.608  -0.835   4.577  0.00  0.00    +0.106 A 
ATOM     12 CL   UNL     1      -0.938  -0.839   4.104  0.00  0.00    -0.074 Cl
ATOM     13 CL   UNL     1      -6.523  -0.080   6.479  0.00  0.00    -0.076 Cl
ENDBRANCH   4   7
ENDBRANCH   2   4
ENDBRANCH   1   2
BRANCH   1  14
ATOM     14  C   UNL     1      -1.294  -0.774   0.011  0.00  0.00    +0.160 C 
BRANCH  14  20
ATOM     15  C   UNL     1      -0.017   1.379   0.010  0.00  0.00    +0.008 A 
ATOM     16  C   UNL     1       1.169   2.087   0.002  0.00  0.00    +0.023 A 
ATOM     17  C   UNL     1       2.381   1.409  -0.013  0.00  0.00    +0.025 A 
ATOM     18  C   UNL     1       2.396   0.020  -0.021  0.00  0.00    +0.023 A 
ATOM     19  C   UNL     1       1.207  -0.682  -0.013  0.00  0.00    +0.008 A 
ATOM     20  C   UNL     1       0.002  -0.004   0.002  0.00  0.00    -0.018 A 
BRANCH  17  21
ATOM     21  N   UNL     1       3.582   2.122  -0.021  0.00  0.00    -0.358 N 
ATOM     22  H   UNL     1       3.570   3.092  -0.016  0.00  0.00    +0.142 HD
ATOM     23  H   UNL     1       4.428   1.647  -0.032  0.00  0.00    +0.142 HD
ENDBRANCH  17  21
ENDBRANCH  14  20
BRANCH  14  24
ATOM     24  O   UNL     1      -1.147  -1.962  -0.770  0.00  0.00    -0.386 OA
ATOM     25  H   UNL     1      -0.458  -2.560  -0.450  0.00  0.00    +0.210 HD
ENDBRANCH  14  24
ENDBRANCH   1  14
TORSDOF 7
