REMARK  Name = ZINC24845212
REMARK  9 active torsions:
REMARK  status: ('A' for Active; 'I' for Inactive)
REMARK    1  A    between atoms: C_1  and  C_2
REMARK    2  A    between atoms: C_2  and  O_3
REMARK    3  A    between atoms: O_3  and  C_4
REMARK    4  A    between atoms: C_11  and  C_18
REMARK    5  A    between atoms: C_13  and  O_14
REMARK    6  A    between atoms: C_18  and  S_19
REMARK    7  A    between atoms: S_19  and  C_20
REMARK    8  A    between atoms: N_24  and  C_25
REMARK    9  A    between atoms: C_28  and  C_32
REMARK                            x       y       z     vdW  Elec       q    Type
REMARK                         _______ _______ _______ _____ _____    ______ ____
ROOT
ATOM      1  C   UNL     1      -5.198   3.456 -10.165  0.00  0.00    +0.405 C 
ATOM      2  O   UNL     1      -6.141   2.728  -9.930  0.00  0.00    -0.226 OA
ATOM      3  N   UNL     1      -4.492   3.993  -9.150  0.00  0.00    -0.251 N 
ATOM      4  C   UNL     1      -4.774   3.627  -7.834  0.00  0.00    +0.040 A 
ATOM      5  C   UNL     1      -4.633   4.563  -6.809  0.00  0.00    +0.024 A 
ATOM      6  C   UNL     1      -4.905   4.220  -5.517  0.00  0.00    +0.013 A 
ATOM      7  C   UNL     1      -5.334   2.921  -5.218  0.00  0.00    +0.022 A 
ATOM      8  C   UNL     1      -5.626   2.523  -3.840  0.00  0.00    -0.020 A 
ATOM      9  C   UNL     1      -6.033   1.247  -3.612  0.00  0.00    +0.092 A 
ATOM     10  C   UNL     1      -6.157   0.348  -4.691  0.00  0.00    +0.285 A 
ATOM     11  O   UNL     1      -5.883   0.717  -5.952  0.00  0.00    -0.425 OA
ATOM     12  C   UNL     1      -5.474   1.970  -6.246  0.00  0.00    +0.141 A 
ATOM     13  C   UNL     1      -5.193   2.335  -7.554  0.00  0.00    +0.070 A 
ATOM     14  H   UNL     1      -3.694   4.721  -9.360  0.00  0.00    +0.158 HD
ENDROOT
BRANCH  10  15
ATOM     15  O   UNL     1      -6.524  -0.793  -4.474  0.00  0.00    -0.480 OA
ATOM     16  H   UNL     1      -6.625  -1.506  -5.305  0.00  0.00    +0.295 HD
ENDBRANCH  10  15
BRANCH   1  17
ATOM     17  O   UNL     1      -4.856   3.726 -11.439  0.00  0.00    -0.450 OA
BRANCH  17  19
ATOM     18  C   UNL     1      -5.126   3.533 -13.852  0.00  0.00    +0.048 C 
ATOM     19  C   UNL     1      -5.660   3.113 -12.481  0.00  0.00    +0.230 C 
ENDBRANCH  17  19
ENDBRANCH   1  17
BRANCH   8  20
ATOM     20  C   UNL     1      -5.485   3.504  -2.704  0.00  0.00    +0.113 C 
BRANCH  20  21
ATOM     21  S   UNL     1      -3.805   3.417  -2.037  0.00  0.00    -0.081 S 
BRANCH  21  22
ATOM     22  C   UNL     1      -3.919   4.630  -0.764  0.00  0.00    +0.196 A 
ATOM     23  N   UNL     1      -4.977   5.345  -0.458  0.00  0.00    -0.122 NA
ATOM     24  N   UNL     1      -4.704   6.135   0.518  0.00  0.00    -0.137 NA
ATOM     25  C   UNL     1      -3.468   5.971   0.897  0.00  0.00    +0.230 A 
ATOM     26  N   UNL     1      -2.922   5.003   0.096  0.00  0.00    -0.277 N 
BRANCH  26  27
ATOM     27  C   UNL     1      -1.613   4.503   0.144  0.00  0.00    +0.051 A 
ATOM     28  C   UNL     1      -0.534   5.377   0.157  0.00  0.00    +0.026 A 
ATOM     29  C   UNL     1       0.754   4.883   0.205  0.00  0.00    +0.007 A 
ATOM     30  C   UNL     1       0.971   3.517   0.240  0.00  0.00    -0.032 A 
ATOM     31  C   UNL     1      -0.101   2.643   0.227  0.00  0.00    +0.046 A 
ATOM     32  C   UNL     1      -1.393   3.133   0.174  0.00  0.00    +0.046 A 
ATOM     33 CL   UNL     1       0.176   0.930   0.271  0.00  0.00    -0.083 Cl
ATOM     34  C   UNL     1       2.379   2.981   0.291  0.00  0.00    +0.045 C 
ENDBRANCH  26  27
ENDBRANCH  21  22
ENDBRANCH  20  21
ENDBRANCH   8  20
TORSDOF 7
