REMARK  Name = ZINC10691002
REMARK  9 active torsions:
REMARK  status: ('A' for Active; 'I' for Inactive)
REMARK    1  A    between atoms: C_1  and  N_2
REMARK    2  A    between atoms: N_2  and  C_3
REMARK    3  A    between atoms: N_2  and  S_26
REMARK    4  A    between atoms: C_3  and  C_4
REMARK    5  A    between atoms: N_6  and  C_7
REMARK    6  A    between atoms: C_7  and  C_8
REMARK    7  A    between atoms: C_8  and  C_10
REMARK    8  A    between atoms: C_8  and  C_16
REMARK    9  A    between atoms: S_26  and  C_29
REMARK                            x       y       z     vdW  Elec       q    Type
REMARK                         _______ _______ _______ _____ _____    ______ ____
ROOT
ATOM      1  C   UNL     1       1.081   3.982  -1.237  0.00  0.00    +0.117 C 
ENDROOT
BRANCH   1   4
ATOM      2  C   UNL     1       1.207   6.166  -2.310  0.00  0.00    +0.229 C 
ATOM      3  O   UNL     1       0.462   5.752  -3.174  0.00  0.00    -0.274 OA
ATOM      4  N   UNL     1       1.577   5.360  -1.296  0.00  0.00    -0.313 N 
ATOM      5  H   UNL     1       2.173   5.691  -0.606  0.00  0.00    +0.149 HD
BRANCH   2   6
ATOM      6  C   UNL     1       1.717   7.583  -2.371  0.00  0.00    +0.204 C 
BRANCH   6   8
ATOM      7  C   UNL     1      -0.149   8.874  -3.506  0.00  0.00    +0.132 C 
ATOM      8  N   UNL     1       1.173   8.247  -3.559  0.00  0.00    -0.170 NA
BRANCH   8   9
ATOM      9  S   UNL     1       2.054   8.288  -4.961  0.00  0.00    +0.067 S 
ATOM     10  O   UNL     1       1.586   9.406  -5.702  0.00  0.00    -0.152 OA
ATOM     11  O   UNL     1       3.417   8.138  -4.588  0.00  0.00    -0.152 OA
BRANCH   9  12
ATOM     12  C   UNL     1       1.625   6.853  -5.888  0.00  0.00    +0.144 A 
ATOM     13  C   UNL     1       0.643   6.694  -6.808  0.00  0.00    +0.038 A 
ATOM     14  C   UNL     1       0.488   5.462  -7.418  0.00  0.00    +0.030 A 
ATOM     15  C   UNL     1       1.324   4.450  -7.076  0.00  0.00    +0.080 A 
ATOM     16  S   UNL     1       2.376   5.233  -5.865  0.00  0.00    -0.057 S 
ATOM     17 CL   UNL     1       1.366   2.819  -7.669  0.00  0.00    -0.076 Cl
ENDBRANCH   9  12
ENDBRANCH   8   9
ENDBRANCH   6   8
ENDBRANCH   2   6
ENDBRANCH   1   4
BRANCH   1  18
ATOM     18  C   UNL     1       1.649   3.289   0.004  0.00  0.00    +0.068 C 
BRANCH  18  19
ATOM     19  C   UNL     1       1.239   1.839   0.000  0.00  0.00    -0.013 A 
ATOM     20  C   UNL     1      -0.017   1.364   0.009  0.00  0.00    +0.088 A 
ATOM     21  N   UNL     1       0.002  -0.004   0.002  0.00  0.00    -0.360 N 
ATOM     22  H   UNL     1      -0.784  -0.572   0.006  0.00  0.00    +0.165 HD
ATOM     23  C   UNL     1       1.303  -0.455  -0.013  0.00  0.00    +0.047 A 
ATOM     24  C   UNL     1       2.135   0.680  -0.015  0.00  0.00    +0.003 A 
ATOM     25  C   UNL     1       3.522   0.527  -0.029  0.00  0.00    +0.010 A 
ATOM     26  C   UNL     1       4.066  -0.727  -0.041  0.00  0.00    +0.001 A 
ATOM     27  C   UNL     1       3.250  -1.850  -0.038  0.00  0.00    +0.002 A 
ATOM     28  C   UNL     1       1.878  -1.721  -0.025  0.00  0.00    +0.026 A 
ENDBRANCH  18  19
BRANCH  18  29
ATOM     29  C   UNL     1       1.114   3.959   1.243  0.00  0.00    -0.038 A 
ATOM     30  C   UNL     1      -0.248   4.002   1.472  0.00  0.00    +0.004 A 
ATOM     31  C   UNL     1      -0.739   4.613   2.611  0.00  0.00    +0.000 A 
ATOM     32  C   UNL     1       0.133   5.189   3.516  0.00  0.00    +0.000 A 
ATOM     33  C   UNL     1       1.495   5.152   3.284  0.00  0.00    +0.000 A 
ATOM     34  C   UNL     1       1.986   4.537   2.147  0.00  0.00    +0.004 A 
ENDBRANCH  18  29
ENDBRANCH   1  18
TORSDOF 8
