REMARK  Name = ZINC36648028
REMARK  11 active torsions:
REMARK  status: ('A' for Active; 'I' for Inactive)
REMARK    1  A    between atoms: C_1  and  C_2
REMARK    2  A    between atoms: C_2  and  C_35
REMARK    3  A    between atoms: C_5  and  C_31
REMARK    4  A    between atoms: C_6  and  N_13
REMARK    5  A    between atoms: C_9  and  C_11
REMARK    6  A    between atoms: C_9  and  C_12
REMARK    7  A    between atoms: C_14  and  C_16
REMARK    8  A    between atoms: N_22  and  S_23
REMARK    9  A    between atoms: S_23  and  C_26
REMARK   10  A    between atoms: C_31  and  O_33
REMARK   11  A    between atoms: O_33  and  C_34
REMARK                            x       y       z     vdW  Elec       q    Type
REMARK                         _______ _______ _______ _____ _____    ______ ____
ROOT
ATOM      1  C   UNL     1       0.435   2.149   0.783  0.00  0.00    -0.010 C 
ATOM      2  C   UNL     1       0.425   0.644   0.505  0.00  0.00    -0.069 C 
ATOM      3  C   UNL     1      -1.006   0.194   0.188  0.00  0.00    +0.024 C 
ATOM      4  C   UNL     1      -1.823   0.384   1.456  0.00  0.00    -0.024 A 
ATOM      5  C   UNL     1      -3.231   0.702   1.546  0.00  0.00    +0.091 A 
ATOM      6  C   UNL     1      -3.766   0.834   2.821  0.00  0.00    +0.086 A 
ATOM      7  S   UNL     1      -2.466   0.548   3.845  0.00  0.00    -0.079 S 
ATOM      8  C   UNL     1      -1.200   0.240   2.650  0.00  0.00    -0.016 A 
ATOM      9  C   UNL     1       0.234  -0.111   2.863  0.00  0.00    -0.041 C 
ATOM     10  N   UNL     1       1.000  -0.100   1.617  0.00  0.00    +0.389 N 
ATOM     11  C   UNL     1       0.854   0.861   3.876  0.00  0.00    -0.005 C 
ATOM     12  C   UNL     1       0.299  -1.528   3.467  0.00  0.00    -0.005 C 
ATOM     13  C   UNL     1       1.288   0.390  -0.746  0.00  0.00    -0.010 C 
ATOM     14  H   UNL     1       1.148  -1.066   1.319  0.00  0.00    -0.084 HD
ATOM     15  H   UNL     1       1.931   0.273   1.812  0.00  0.00    -0.084 HD
ENDROOT
BRANCH   6  16
ATOM     16  N   UNL     1      -5.074   1.133   3.168  0.00  0.00    -0.278 N 
ATOM     17  C   UNL     1      -5.424   1.222   4.466  0.00  0.00    +0.236 C 
ATOM     18  O   UNL     1      -4.594   1.042   5.332  0.00  0.00    -0.274 OA
ATOM     19  H   UNL     1      -5.738   1.277   2.475  0.00  0.00    +0.155 HD
BRANCH  17  20
ATOM     20  C   UNL     1      -6.847   1.547   4.843  0.00  0.00    +0.166 C 
ATOM     21  C   UNL     1      -6.888   2.882   5.593  0.00  0.00    +0.030 C 
ATOM     22  C   UNL     1      -8.311   3.138   6.093  0.00  0.00    +0.003 C 
ATOM     23  C   UNL     1      -8.721   2.027   7.062  0.00  0.00    +0.017 C 
ATOM     24  C   UNL     1      -8.701   0.682   6.328  0.00  0.00    +0.110 C 
ATOM     25  N   UNL     1      -7.378   0.493   5.717  0.00  0.00    -0.164 NA
BRANCH  25  26
ATOM     26  S   UNL     1      -6.500  -0.880   6.013  0.00  0.00    +0.068 S 
ATOM     27  O   UNL     1      -7.435  -1.893   6.357  0.00  0.00    -0.152 OA
ATOM     28  O   UNL     1      -5.588  -1.019   4.932  0.00  0.00    -0.152 OA
BRANCH  26  29
ATOM     29  C   UNL     1      -5.531  -0.578   7.453  0.00  0.00    +0.143 A 
ATOM     30  C   UNL     1      -5.840  -0.807   8.753  0.00  0.00    +0.036 A 
ATOM     31  C   UNL     1      -4.914  -0.489   9.728  0.00  0.00    +0.010 A 
ATOM     32  C   UNL     1      -3.723   0.041   9.356  0.00  0.00    +0.047 A 
ATOM     33  S   UNL     1      -3.885   0.100   7.579  0.00  0.00    -0.077 S 
ENDBRANCH  26  29
ENDBRANCH  25  26
ENDBRANCH  17  20
ENDBRANCH   6  16
BRANCH   5  34
ATOM     34  C   UNL     1      -4.064   0.878   0.354  0.00  0.00    +0.342 C 
ATOM     35  O   UNL     1      -4.643  -0.077  -0.129  0.00  0.00    -0.245 OA
BRANCH  34  36
ATOM     36  O   UNL     1      -4.191   2.098  -0.206  0.00  0.00    -0.464 OA
ATOM     37  C   UNL     1      -5.020   2.196  -1.366  0.00  0.00    +0.280 C 
ENDBRANCH  34  36
ENDBRANCH   5  34
TORSDOF 6
