REMARK  Name = ZINC24950008
REMARK  6 active torsions:
REMARK  status: ('A' for Active; 'I' for Inactive)
REMARK    1  A    between atoms: C_4  and  C_7
REMARK    2  A    between atoms: C_7  and  C_9
REMARK    3  A    between atoms: C_7  and  C_28
REMARK    4  A    between atoms: C_9  and  N_10
REMARK    5  A    between atoms: N_10  and  S_11
REMARK    6  A    between atoms: S_11  and  C_14
REMARK                            x       y       z     vdW  Elec       q    Type
REMARK                         _______ _______ _______ _____ _____    ______ ____
ROOT
ATOM      1  N   UNL     1      -4.580  -1.115  -1.271  0.00  0.00    -0.189 NA
ATOM      2  H   UNL     1      -5.122  -0.884  -0.342  0.00  0.00    +0.148 HD
ENDROOT
BRANCH   1   3
ATOM      3  S   UNL     1      -5.434  -1.337  -2.672  0.00  0.00    +0.058 S 
ATOM      4  O   UNL     1      -6.777  -0.965  -2.393  0.00  0.00    -0.153 OA
ATOM      5  O   UNL     1      -4.676  -0.732  -3.711  0.00  0.00    -0.153 OA
BRANCH   3   6
ATOM      6  C   UNL     1      -5.450  -3.068  -3.004  0.00  0.00    +0.107 A 
ATOM      7  C   UNL     1      -6.469  -3.858  -2.499  0.00  0.00    +0.030 A 
ATOM      8  C   UNL     1      -6.489  -5.213  -2.754  0.00  0.00    +0.030 A 
ATOM      9  C   UNL     1      -5.483  -5.792  -3.521  0.00  0.00    +0.066 A 
ATOM     10  C   UNL     1      -4.456  -4.996  -4.030  0.00  0.00    +0.068 A 
ATOM     11  C   UNL     1      -4.450  -3.630  -3.771  0.00  0.00    +0.056 A 
ATOM     12  N   UNL     1      -3.441  -5.556  -4.800  0.00  0.00    -0.316 N 
ATOM     13  H   UNL     1      -2.636  -4.920  -5.197  0.00  0.00    +0.169 HD
ATOM     14  C   UNL     1      -3.442  -6.880  -5.061  0.00  0.00    +0.314 A 
ATOM     15  O   UNL     1      -2.558  -7.373  -5.732  0.00  0.00    -0.262 OA
ATOM     16  C   UNL     1      -4.539  -7.731  -4.516  0.00  0.00    +0.314 A 
ATOM     17  O   UNL     1      -4.558  -8.925  -4.739  0.00  0.00    -0.262 OA
ATOM     18  N   UNL     1      -5.510  -7.161  -3.773  0.00  0.00    -0.316 N 
ATOM     19  H   UNL     1      -6.324  -7.779  -3.367  0.00  0.00    +0.169 HD
ENDBRANCH   3   6
ENDBRANCH   1   3
BRANCH   1  20
ATOM     20  C   UNL     1      -3.152  -1.438  -1.225  0.00  0.00    +0.118 C 
BRANCH  20  21
ATOM     21  C   UNL     1      -2.527  -0.809   0.022  0.00  0.00    +0.066 C 
BRANCH  21  22
ATOM     22  C   UNL     1      -1.037  -1.037   0.006  0.00  0.00    -0.014 A 
ATOM     23  C   UNL     1      -0.411  -2.224  -0.006  0.00  0.00    +0.088 A 
ATOM     24  N   UNL     1       0.945  -2.036  -0.018  0.00  0.00    -0.360 N 
ATOM     25  H   UNL     1       1.620  -2.904  -0.029  0.00  0.00    +0.165 HD
ATOM     26  C   UNL     1       1.231  -0.689  -0.013  0.00  0.00    +0.047 A 
ATOM     27  C   UNL     1       0.002  -0.004   0.002  0.00  0.00    +0.003 A 
ATOM     28  C   UNL     1      -0.017   1.392   0.010  0.00  0.00    +0.010 A 
ATOM     29  C   UNL     1       1.160   2.086   0.002  0.00  0.00    +0.001 A 
ATOM     30  C   UNL     1       2.375   1.415  -0.013  0.00  0.00    +0.002 A 
ATOM     31  C   UNL     1       2.417   0.038  -0.021  0.00  0.00    +0.026 A 
ENDBRANCH  21  22
BRANCH  21  35
ATOM     32  C   UNL     1      -4.205  -2.603   3.516  0.00  0.00    +0.000 A 
ATOM     33  C   UNL     1      -4.337  -1.244   3.306  0.00  0.00    +0.000 A 
ATOM     34  C   UNL     1      -3.794  -0.663   2.175  0.00  0.00    +0.004 A 
ATOM     35  C   UNL     1      -3.119  -1.442   1.255  0.00  0.00    -0.039 A 
ATOM     36  C   UNL     1      -2.991  -2.803   1.462  0.00  0.00    +0.004 A 
ATOM     37  C   UNL     1      -3.531  -3.383   2.595  0.00  0.00    +0.000 A 
ENDBRANCH  21  35
ENDBRANCH  20  21
ENDBRANCH   1  20
TORSDOF 6
