REMARK  Name = ZINC06887673
REMARK  10 active torsions:
REMARK  status: ('A' for Active; 'I' for Inactive)
REMARK    1  A    between atoms: C_1  and  C_2
REMARK    2  A    between atoms: C_4  and  C_27
REMARK    3  A    between atoms: C_5  and  N_9
REMARK    4  A    between atoms: C_6  and  C_8
REMARK    5  A    between atoms: N_9  and  S_10
REMARK    6  A    between atoms: S_10  and  C_13
REMARK    7  A    between atoms: C_15  and  C_21
REMARK    8  A    between atoms: C_18  and  O_19
REMARK    9  A    between atoms: O_19  and  C_20
REMARK   10  A    between atoms: C_23  and  C_26
REMARK                            x       y       z     vdW  Elec       q    Type
REMARK                         _______ _______ _______ _____ _____    ______ ____
ROOT
ATOM      1  S   UNL     1      -0.058  -4.685   1.425  0.00  0.00    +0.076 S 
ATOM      2  O   UNL     1      -0.042  -6.076   1.137  0.00  0.00    -0.150 OA
ATOM      3  O   UNL     1       0.885  -4.076   2.296  0.00  0.00    -0.150 OA
ENDROOT
BRANCH   1   4
ATOM      4  C   UNL     1      -1.654  -4.324   2.079  0.00  0.00    +0.151 A 
ATOM      5  C   UNL     1      -2.573  -5.337   2.248  0.00  0.00    +0.044 A 
ATOM      6  C   UNL     1      -3.837  -5.050   2.767  0.00  0.00    +0.022 A 
ATOM      7  C   UNL     1      -4.165  -3.737   3.111  0.00  0.00    +0.015 A 
ATOM      8  C   UNL     1      -3.241  -2.730   2.938  0.00  0.00    +0.048 A 
ATOM      9  C   UNL     1      -1.982  -3.020   2.427  0.00  0.00    +0.147 A 
BRANCH   6  10
ATOM     10  C   UNL     1      -4.826  -6.133   2.950  0.00  0.00    +0.168 A 
ATOM     11  C   UNL     1      -6.090  -5.993   3.437  0.00  0.00    +0.075 A 
ATOM     12  C   UNL     1      -6.692  -7.259   3.448  0.00  0.00    +0.081 A 
ATOM     13  N   UNL     1      -5.833  -8.125   2.988  0.00  0.00    -0.083 NA
ATOM     14  O   UNL     1      -4.641  -7.434   2.660  0.00  0.00    -0.354 OA
ATOM     15  C   UNL     1      -8.093  -7.566   3.912  0.00  0.00    +0.069 C 
ENDBRANCH   6  10
BRANCH   9  16
ATOM     16  O   UNL     1      -1.072  -2.026   2.263  0.00  0.00    -0.493 OA
ATOM     17  C   UNL     1      -1.436  -0.728   2.739  0.00  0.00    +0.277 C 
ENDBRANCH   9  16
ENDBRANCH   1   4
BRANCH   1  18
ATOM     18  N   UNL     1       0.065  -3.900  -0.028  0.00  0.00    -0.216 N 
ATOM     19  H   UNL     1       0.711  -3.185  -0.140  0.00  0.00    +0.174 HD
BRANCH  18  24
ATOM     20  C   UNL     1      -3.291  -5.390  -4.350  0.00  0.00    +0.044 C 
ATOM     21  C   UNL     1      -2.400  -4.994  -3.201  0.00  0.00    -0.050 A 
ATOM     22  C   UNL     1      -2.560  -3.761  -2.596  0.00  0.00    +0.008 A 
ATOM     23  C   UNL     1      -1.745  -3.395  -1.543  0.00  0.00    -0.028 A 
ATOM     24  C   UNL     1      -0.762  -4.267  -1.092  0.00  0.00    +0.054 A 
ATOM     25  C   UNL     1      -0.603  -5.505  -1.702  0.00  0.00    -0.028 A 
ATOM     26  C   UNL     1      -1.426  -5.867  -2.751  0.00  0.00    +0.008 A 
ATOM     27  C   UNL     1       0.462  -6.454  -1.217  0.00  0.00    +0.046 C 
ATOM     28  C   UNL     1      -1.920  -2.050  -0.885  0.00  0.00    +0.046 C 
ENDBRANCH  18  24
ENDBRANCH   1  18
TORSDOF 5
