REMARK  Name = ZINC12300383
REMARK  8 active torsions:
REMARK  status: ('A' for Active; 'I' for Inactive)
REMARK    1  A    between atoms: C_1  and  C_2
REMARK    2  A    between atoms: C_4  and  C_8
REMARK    3  A    between atoms: C_8  and  N_48
REMARK    4  A    between atoms: C_9  and  C_11
REMARK    5  A    between atoms: C_9  and  C_12
REMARK    6  A    between atoms: C_9  and  N_48
REMARK    7  A    between atoms: N_15  and  C_18
REMARK    8  A    between atoms: C_16  and  C_17
REMARK                            x       y       z     vdW  Elec       q    Type
REMARK                         _______ _______ _______ _____ _____    ______ ____
ROOT
ATOM      1  C   UNL     1       5.735   2.875  -0.097  0.00  0.00    -0.021 A 
ATOM      2  C   UNL     1       5.075   1.648   0.028  0.00  0.00    +0.137 A 
ATOM      3  N   UNL     1       3.788   1.876   0.083  0.00  0.00    -0.174 NA
ATOM      4  N   UNL     1       3.583   3.259  -0.012  0.00  0.00    -0.236 N 
ATOM      5  C   UNL     1       4.799   3.853  -0.119  0.00  0.00    +0.043 A 
ATOM      6  C   UNL     1       5.060   5.332  -0.240  0.00  0.00    +0.066 C 
ENDROOT
BRANCH   4   7
ATOM      7  C   UNL     1       2.346   3.912   0.005  0.00  0.00    +0.073 A 
ATOM      8  C   UNL     1       2.142   4.993   0.834  0.00  0.00    +0.028 A 
ATOM      9  C   UNL     1       0.915   5.650   0.860  0.00  0.00    +0.003 A 
ATOM     10  C   UNL     1      -0.116   5.244   0.068  0.00  0.00    +0.008 A 
ATOM     11  C   UNL     1       0.051   4.146  -0.792  0.00  0.00    -0.016 A 
ATOM     12  C   UNL     1       1.296   3.470  -0.827  0.00  0.00    +0.008 A 
ATOM     13  C   UNL     1       1.461   2.374  -1.688  0.00  0.00    +0.010 A 
ATOM     14  C   UNL     1       0.426   1.975  -2.478  0.00  0.00    +0.001 A 
ATOM     15  C   UNL     1      -0.797   2.642  -2.448  0.00  0.00    +0.001 A 
ATOM     16  C   UNL     1      -0.995   3.705  -1.622  0.00  0.00    +0.008 A 
ENDBRANCH   4   7
BRANCH   1  17
ATOM     17  C   UNL     1       7.226   3.074  -0.189  0.00  0.00    -0.040 C 
ATOM     18  C   UNL     1       7.788   3.370   1.203  0.00  0.00    -0.009 C 
BRANCH  17  19
ATOM     19  N   UNL     1       7.847   1.845  -0.719  0.00  0.00    +0.387 N 
ATOM     20  H   UNL     1       8.011   1.188   0.053  0.00  0.00    -0.085 HD
ATOM     21  H   UNL     1       7.215   1.416  -1.405  0.00  0.00    -0.085 HD
BRANCH  19  22
ATOM     22  C   UNL     1       9.132   2.161  -1.371  0.00  0.00    -0.026 C 
BRANCH  22  26
ATOM     23  C   UNL     1      10.472  -1.658  -4.462  0.00  0.00    +0.067 C 
ATOM     24  C   UNL     1      10.336  -0.787  -3.240  0.00  0.00    +0.060 A 
ATOM     25  C   UNL     1       9.621   0.413  -3.163  0.00  0.00    +0.045 A 
ATOM     26  C   UNL     1       9.741   0.889  -1.902  0.00  0.00    +0.019 A 
ATOM     27  N   UNL     1      10.509   0.024  -1.207  0.00  0.00    -0.283 N 
ATOM     28  H   UNL     1      10.775   0.114  -0.247  0.00  0.00    +0.188 HD
ATOM     29  N   UNL     1      10.866  -1.023  -2.067  0.00  0.00    -0.179 NA
ENDBRANCH  22  26
ENDBRANCH  19  22
ENDBRANCH  17  19
ENDBRANCH   1  17
TORSDOF 5
