REMARK  Name = ZINC05183156
REMARK  5 active torsions:
REMARK  status: ('A' for Active; 'I' for Inactive)
REMARK    1  A    between atoms: C_1  and  C_2
REMARK    2  A    between atoms: C_2  and  C_3
REMARK    3  A    between atoms: C_3  and  N_4
REMARK    4  A    between atoms: N_13  and  C_14
REMARK    5  A    between atoms: C_14  and  C_16
REMARK                            x       y       z     vdW  Elec       q    Type
REMARK                         _______ _______ _______ _____ _____    ______ ____
ROOT
ATOM      1  N   UNL     1      -2.850   1.522   2.483  0.00  0.00    -0.321 N 
ATOM      2  C   UNL     1      -3.538   2.722   2.459  0.00  0.00    +0.058 A 
ATOM      3  C   UNL     1      -3.680   3.606   1.374  0.00  0.00    +0.028 A 
ATOM      4  C   UNL     1      -4.399   4.770   1.502  0.00  0.00    +0.017 A 
ATOM      5  C   UNL     1      -5.007   5.112   2.699  0.00  0.00    +0.019 A 
ATOM      6  C   UNL     1      -4.884   4.261   3.784  0.00  0.00    +0.032 A 
ATOM      7  C   UNL     1      -4.164   3.096   3.656  0.00  0.00    +0.040 A 
ATOM      8  S   UNL     1      -3.769   1.763   4.761  0.00  0.00    -0.052 S 
ATOM      9  C   UNL     1      -2.812   0.774   3.623  0.00  0.00    +0.167 A 
ATOM     10  N   UNL     1      -2.215  -0.392   3.833  0.00  0.00    -0.149 NA
ATOM     11 BR   UNL     1      -5.991   6.720   2.849  0.00  0.00    -0.050 Br
ENDROOT
BRANCH  10  12
ATOM     12  C   UNL     1      -2.292  -0.977   5.037  0.00  0.00    +0.307 C 
ATOM     13  O   UNL     1      -2.913  -0.438   5.939  0.00  0.00    -0.265 OA
BRANCH  12  14
ATOM     14  C   UNL     1      -1.631  -2.268   5.269  0.00  0.00    +0.219 C 
ATOM     15  C   UNL     1      -0.961  -2.848   4.268  0.00  0.00    +0.238 C 
ATOM     16  O   UNL     1      -0.336  -4.035   4.425  0.00  0.00    -0.492 OA
ATOM     17  C   UNL     1      -0.104  -4.470   5.770  0.00  0.00    +0.269 C 
ATOM     18  C   UNL     1      -1.393  -4.241   6.573  0.00  0.00    +0.270 C 
ATOM     19  O   UNL     1      -1.720  -2.849   6.497  0.00  0.00    -0.481 OA
ENDBRANCH  12  14
ENDBRANCH  10  12
BRANCH   1  20
ATOM     20  C   UNL     1      -2.164   1.050   1.278  0.00  0.00    +0.124 C 
BRANCH  20  22
ATOM     21  C   UNL     1      -0.013   1.086   0.008  0.00  0.00    +0.005 C 
ATOM     22  C   UNL     1      -0.729   1.579   1.267  0.00  0.00    +0.018 C 
ENDBRANCH  20  22
ENDBRANCH   1  20
TORSDOF 4
