REMARK  Name = ZINC21129209
REMARK  9 active torsions:
REMARK  status: ('A' for Active; 'I' for Inactive)
REMARK    1  A    between atoms: N_9  and  C_27
REMARK    2  A    between atoms: C_10  and  S_12
REMARK    3  A    between atoms: S_12  and  C_13
REMARK    4  A    between atoms: C_13  and  C_14
REMARK    5  A    between atoms: N_16  and  C_17
REMARK    6  A    between atoms: C_21  and  S_23
REMARK    7  A    between atoms: S_23  and  N_26
REMARK    8  A    between atoms: C_27  and  C_28
REMARK    9  A    between atoms: C_28  and  C_29
REMARK                            x       y       z     vdW  Elec       q    Type
REMARK                         _______ _______ _______ _____ _____    ______ ____
ROOT
ATOM      1  C   UNL     1       3.524  -1.399  -5.268  0.00  0.00    +0.001 A 
ATOM      2  C   UNL     1       3.885  -1.466  -3.929  0.00  0.00    +0.002 A 
ATOM      3  C   UNL     1       3.072  -0.958  -2.955  0.00  0.00    +0.028 A 
ATOM      4  C   UNL     1       1.859  -0.359  -3.310  0.00  0.00    +0.079 A 
ATOM      5  C   UNL     1       1.496  -0.292  -4.674  0.00  0.00    +0.065 A 
ATOM      6  C   UNL     1       2.344  -0.820  -5.646  0.00  0.00    +0.015 A 
ATOM      7  C   UNL     1       0.217   0.342  -5.021  0.00  0.00    +0.262 A 
ATOM      8  O   UNL     1      -0.151   0.430  -6.178  0.00  0.00    -0.267 OA
ATOM      9  N   UNL     1      -0.537   0.825  -4.006  0.00  0.00    -0.287 N 
ATOM     10  C   UNL     1      -0.109   0.717  -2.714  0.00  0.00    +0.173 A 
ATOM     11  N   UNL     1       1.030   0.160  -2.382  0.00  0.00    -0.223 NA
ENDROOT
BRANCH  10  12
ATOM     12  S   UNL     1      -1.132   1.363  -1.433  0.00  0.00    -0.078 S 
BRANCH  12  13
ATOM     13  C   UNL     1      -0.118   0.963   0.011  0.00  0.00    +0.173 C 
BRANCH  13  14
ATOM     14  C   UNL     1      -0.815   1.437   1.261  0.00  0.00    +0.227 C 
ATOM     15  O   UNL     1      -1.891   1.990   1.182  0.00  0.00    -0.275 OA
ATOM     16  N   UNL     1      -0.242   1.246   2.466  0.00  0.00    -0.285 N 
ATOM     17  H   UNL     1       0.691   0.669   2.546  0.00  0.00    +0.155 HD
BRANCH  16  18
ATOM     18  C   UNL     1      -0.833   1.782   3.615  0.00  0.00    +0.035 A 
ATOM     19  C   UNL     1      -1.514   2.991   3.548  0.00  0.00    +0.023 A 
ATOM     20  C   UNL     1      -2.101   3.515   4.683  0.00  0.00    +0.004 A 
ATOM     21  C   UNL     1      -2.003   2.842   5.887  0.00  0.00    +0.028 A 
ATOM     22  C   UNL     1      -1.322   1.641   5.958  0.00  0.00    +0.107 A 
ATOM     23  C   UNL     1      -0.736   1.109   4.826  0.00  0.00    +0.051 A 
BRANCH  22  24
ATOM     24  S   UNL     1      -1.199   0.788   7.495  0.00  0.00    +0.056 S 
ATOM     25  O   UNL     1      -2.296   1.221   8.289  0.00  0.00    -0.153 OA
ATOM     26  O   UNL     1      -0.978  -0.581   7.184  0.00  0.00    -0.153 OA
BRANCH  24  27
ATOM     27  N   UNL     1       0.173   1.330   8.248  0.00  0.00    -0.204 NA
ATOM     28  H   UNL     1       0.286   0.819   9.216  0.00  0.00    +0.144 HD
ATOM     29  H   UNL     1       0.096   2.415   8.413  0.00  0.00    +0.144 HD
ENDBRANCH  24  27
ENDBRANCH  22  24
ENDBRANCH  16  18
ENDBRANCH  13  14
ENDBRANCH  12  13
ENDBRANCH  10  12
BRANCH   9  30
ATOM     30  C   UNL     1      -1.822   1.467  -4.296  0.00  0.00    +0.131 C 
BRANCH  30  31
ATOM     31  C   UNL     1      -1.606   2.966  -4.510  0.00  0.00    +0.052 C 
BRANCH  31  32
ATOM     32  C   UNL     1      -2.927   3.627  -4.808  0.00  0.00    -0.072 C 
ATOM     33  C   UNL     1      -3.573   4.163  -3.822  0.00  0.00    -0.028 C 
ATOM     34  C   UNL     1      -4.902   4.846  -3.961  0.00  0.00    +0.027 C 
ATOM     35  C   UNL     1      -5.167   5.190  -5.428  0.00  0.00    +0.004 C 
ATOM     36  C   UNL     1      -4.908   3.938  -6.275  0.00  0.00    +0.005 C 
ATOM     37  C   UNL     1      -3.409   3.627  -6.229  0.00  0.00    +0.030 C 
ENDBRANCH  31  32
ENDBRANCH  30  31
ENDBRANCH   9  30
TORSDOF 9
