REMARK  Name = ZINC13646387
REMARK  10 active torsions:
REMARK  status: ('A' for Active; 'I' for Inactive)
REMARK    1  A    between atoms: C_1  and  C_2
REMARK    2  A    between atoms: C_2  and  C_4
REMARK    3  A    between atoms: C_2  and  N_14
REMARK    4  A    between atoms: C_7  and  C_10
REMARK    5  A    between atoms: C_10  and  C_11
REMARK    6  A    between atoms: C_10  and  C_12
REMARK    7  A    between atoms: C_10  and  C_13
REMARK    8  A    between atoms: N_14  and  S_15
REMARK    9  A    between atoms: S_15  and  C_18
REMARK   10  A    between atoms: C_18  and  C_19
REMARK                            x       y       z     vdW  Elec       q    Type
REMARK                         _______ _______ _______ _____ _____    ______ ____
ROOT
ATOM      1  N   UNL     1       5.662  -1.803  -1.643  0.00  0.00    -0.187 NA
ATOM      2  H   UNL     1       6.478  -1.387  -1.964  0.00  0.00    +0.148 HD
ENDROOT
BRANCH   1   3
ATOM      3  S   UNL     1       4.221  -0.995  -1.756  0.00  0.00    +0.034 S 
ATOM      4  O   UNL     1       3.337  -1.915  -2.382  0.00  0.00    -0.158 OA
ATOM      5  O   UNL     1       4.545   0.239  -2.382  0.00  0.00    -0.158 OA
BRANCH   3   6
ATOM      6  C   UNL     1       3.711  -0.709  -0.039  0.00  0.00    +0.220 C 
BRANCH   6   7
ATOM      7  C   UNL     1       2.397   0.028  -0.022  0.00  0.00    -0.024 A 
ATOM      8  C   UNL     1       1.208  -0.679  -0.014  0.00  0.00    +0.007 A 
ATOM      9  C   UNL     1       0.002  -0.004   0.002  0.00  0.00    +0.022 A 
ATOM     10  C   UNL     1      -0.017   1.379   0.010  0.00  0.00    +0.059 A 
ATOM     11  C   UNL     1       1.173   2.087   0.002  0.00  0.00    +0.060 A 
ATOM     12  C   UNL     1       2.380   1.410  -0.013  0.00  0.00    +0.026 A 
ATOM     13 CL   UNL     1       1.151   3.823   0.011  0.00  0.00    -0.082 Cl
ATOM     14 CL   UNL     1      -1.531   2.227   0.021  0.00  0.00    -0.082 Cl
ENDBRANCH   6   7
ENDBRANCH   3   6
ENDBRANCH   1   3
BRANCH   1  16
ATOM     15  C   UNL     1       6.064  -3.044   0.426  0.00  0.00    +0.031 C 
ATOM     16  C   UNL     1       5.705  -3.145  -1.058  0.00  0.00    +0.103 C 
BRANCH  16  17
ATOM     17  C   UNL     1       6.745  -3.971  -1.771  0.00  0.00    -0.029 A 
ATOM     18  C   UNL     1       7.947  -3.398  -2.142  0.00  0.00    +0.005 A 
ATOM     19  C   UNL     1       8.903  -4.156  -2.792  0.00  0.00    +0.004 A 
ATOM     20  C   UNL     1       8.653  -5.485  -3.080  0.00  0.00    -0.042 A 
ATOM     21  C   UNL     1       7.449  -6.056  -2.714  0.00  0.00    +0.004 A 
ATOM     22  C   UNL     1       6.495  -5.299  -2.059  0.00  0.00    +0.005 A 
BRANCH  20  23
ATOM     23  C   UNL     1       9.693  -6.310  -3.793  0.00  0.00    -0.013 C 
ATOM     24  C   UNL     1       9.115  -6.830  -5.111  0.00  0.00    +0.015 C 
ATOM     25  C   UNL     1      10.921  -5.444  -4.082  0.00  0.00    +0.015 C 
ATOM     26  C   UNL     1      10.098  -7.493  -2.912  0.00  0.00    +0.015 C 
ENDBRANCH  20  23
ENDBRANCH  16  17
ENDBRANCH   1  16
TORSDOF 6
