REMARK  Name = ZINC17088273
REMARK  6 active torsions:
REMARK  status: ('A' for Active; 'I' for Inactive)
REMARK    1  A    between atoms: C_1  and  O_2
REMARK    2  A    between atoms: O_2  and  C_3
REMARK    3  A    between atoms: C_12  and  C_13
REMARK    4  A    between atoms: N_15  and  C_16
REMARK    5  A    between atoms: C_16  and  N_18
REMARK    6  A    between atoms: C_24  and  O_28
REMARK                            x       y       z     vdW  Elec       q    Type
REMARK                         _______ _______ _______ _____ _____    ______ ____
ROOT
ATOM      1  C   UNL     1       0.017  -2.819  -0.010  0.00  0.00    +0.253 C 
ATOM      2  O   UNL     1       1.089  -2.244  -0.024  0.00  0.00    -0.270 OA
ATOM      3  N   UNL     1      -0.025  -4.166  -0.015  0.00  0.00    -0.262 N 
ATOM      4  H   UNL     1      -0.879  -4.625  -0.003  0.00  0.00    +0.157 HD
ENDROOT
BRANCH   1  14
ATOM      5  C   UNL     1      -1.187  -0.632   0.019  0.00  0.00    +0.133 A 
ATOM      6  C   UNL     1      -2.335   0.104   0.035  0.00  0.00    +0.055 A 
ATOM      7  C   UNL     1      -3.583  -0.540   0.052  0.00  0.00    -0.014 A 
ATOM      8  C   UNL     1      -4.779   0.198   0.068  0.00  0.00    +0.008 A 
ATOM      9  C   UNL     1      -5.974  -0.453   0.084  0.00  0.00    +0.001 A 
ATOM     10  C   UNL     1      -6.033  -1.846   0.085  0.00  0.00    +0.001 A 
ATOM     11  C   UNL     1      -4.898  -2.595   0.070  0.00  0.00    +0.008 A 
ATOM     12  C   UNL     1      -3.643  -1.958   0.052  0.00  0.00    -0.017 A 
ATOM     13  C   UNL     1      -2.455  -2.702   0.036  0.00  0.00    +0.025 A 
ATOM     14  C   UNL     1      -1.236  -2.042   0.013  0.00  0.00    +0.079 A 
BRANCH   5  16
ATOM     15  C   UNL     1      -0.002   1.427   0.008  0.00  0.00    +0.277 C 
ATOM     16  O   UNL     1       0.015  -0.002   0.002  0.00  0.00    -0.494 OA
ENDBRANCH   5  16
ENDBRANCH   1  14
BRANCH   3  17
ATOM     17  C   UNL     1       1.121  -4.876  -0.036  0.00  0.00    +0.163 C 
ATOM     18  S   UNL     1       2.629  -4.067  -0.057  0.00  0.00    -0.016 S 
BRANCH  17  19
ATOM     19  N   UNL     1       1.079  -6.212  -0.041  0.00  0.00    -0.169 NA
ATOM     20  C   UNL     1       1.728  -6.900   0.891  0.00  0.00    +0.163 A 
ATOM     21  N   UNL     1       2.399  -6.436   1.983  0.00  0.00    -0.335 N 
ATOM     22  C   UNL     1       3.019  -7.321   2.850  0.00  0.00    +0.055 A 
ATOM     23  C   UNL     1       3.748  -7.012   4.011  0.00  0.00    +0.030 A 
ATOM     24  C   UNL     1       4.311  -8.003   4.777  0.00  0.00    +0.047 A 
ATOM     25  C   UNL     1       4.181  -9.342   4.431  0.00  0.00    +0.118 A 
ATOM     26  C   UNL     1       3.467  -9.675   3.288  0.00  0.00    +0.062 A 
ATOM     27  C   UNL     1       2.905  -8.680   2.525  0.00  0.00    +0.042 A 
ATOM     28  S   UNL     1       1.935  -8.667   1.036  0.00  0.00    -0.052 S 
ATOM     29  H   UNL     1       2.443  -5.482   2.154  0.00  0.00    +0.168 HD
BRANCH  25  30
ATOM     30  O   UNL     1       4.746 -10.311   5.199  0.00  0.00    -0.507 OA
ATOM     31  H   UNL     1       4.168 -10.644   5.900  0.00  0.00    +0.292 HD
ENDBRANCH  25  30
ENDBRANCH  17  19
ENDBRANCH   3  17
TORSDOF 5
