REMARK  Name = ZINC04335321
REMARK  7 active torsions:
REMARK  status: ('A' for Active; 'I' for Inactive)
REMARK    1  A    between atoms: C_1  and  C_2
REMARK    2  A    between atoms: C_2  and  C_3
REMARK    3  A    between atoms: C_6  and  N_9
REMARK    4  A    between atoms: C_12  and  N_17
REMARK    5  A    between atoms: N_17  and  C_18
REMARK    6  A    between atoms: C_21  and  S_24
REMARK    7  A    between atoms: S_24  and  N_27
REMARK                            x       y       z     vdW  Elec       q    Type
REMARK                         _______ _______ _______ _____ _____    ______ ____
ROOT
ATOM      1  N   UNL     1       7.017  -0.997  -0.163  0.00  0.00    -0.199 N 
ATOM      2  C   UNL     1       5.800  -1.203   0.313  0.00  0.00    +0.258 C 
ATOM      3  O   UNL     1       5.590  -1.928   1.262  0.00  0.00    -0.272 OA
ATOM      4  C   UNL     1       4.683  -0.467  -0.412  0.00  0.00    +0.226 C 
ATOM      5  S   UNL     1       5.663   0.413  -1.692  0.00  0.00    -0.035 S 
ATOM      6  C   UNL     1       7.274  -0.196  -1.214  0.00  0.00    +0.287 C 
ATOM      7  O   UNL     1       8.350   0.054  -1.721  0.00  0.00    -0.262 OA
ENDROOT
BRANCH   1  11
ATOM      8  C   UNL     1      10.219  -2.922   1.686  0.00  0.00    -0.048 A 
ATOM      9  C   UNL     1       9.559  -3.534   0.636  0.00  0.00    +0.005 A 
ATOM     10  C   UNL     1       8.497  -2.898   0.021  0.00  0.00    +0.024 A 
ATOM     11  C   UNL     1       8.093  -1.644   0.459  0.00  0.00    +0.045 A 
ATOM     12  C   UNL     1       8.761  -1.030   1.510  0.00  0.00    +0.024 A 
ATOM     13  C   UNL     1       9.819  -1.673   2.124  0.00  0.00    +0.005 A 
BRANCH   8  15
ATOM     14  C   UNL     1      12.678  -3.236   1.648  0.00  0.00    +0.009 C 
ATOM     15  C   UNL     1      11.376  -3.619   2.354  0.00  0.00    +0.032 C 
ENDBRANCH   8  15
ENDBRANCH   1  11
BRANCH   4  16
ATOM     16  N   UNL     1       3.733  -1.404  -1.018  0.00  0.00    -0.325 N 
ATOM     17  H   UNL     1       4.058  -2.191  -1.482  0.00  0.00    +0.148 HD
BRANCH  16  18
ATOM     18  C   UNL     1       2.361  -1.163  -0.929  0.00  0.00    +0.028 A 
ATOM     19  C   UNL     1       1.897   0.043  -0.417  0.00  0.00    +0.025 A 
ATOM     20  C   UNL     1       0.539   0.278  -0.330  0.00  0.00    +0.030 A 
ATOM     21  C   UNL     1      -0.359  -0.685  -0.753  0.00  0.00    +0.105 A 
ATOM     22  C   UNL     1       0.099  -1.885  -1.264  0.00  0.00    +0.030 A 
ATOM     23  C   UNL     1       1.455  -2.127  -1.353  0.00  0.00    +0.025 A 
BRANCH  21  24
ATOM     24  S   UNL     1      -2.091  -0.383  -0.635  0.00  0.00    +0.056 S 
ATOM     25  O   UNL     1      -2.723  -1.655  -0.590  0.00  0.00    -0.153 OA
ATOM     26  O   UNL     1      -2.265   0.590   0.386  0.00  0.00    -0.153 OA
BRANCH  24  27
ATOM     27  N   UNL     1      -2.562   0.329  -2.053  0.00  0.00    -0.204 NA
ATOM     28  H   UNL     1      -1.910   0.499  -2.751  0.00  0.00    +0.144 HD
ATOM     29  H   UNL     1      -3.491   0.577  -2.187  0.00  0.00    +0.144 HD
ENDBRANCH  24  27
ENDBRANCH  21  24
ENDBRANCH  16  18
ENDBRANCH   4  16
TORSDOF 6
