REMARK  Name = ZINC37581321
REMARK  8 active torsions:
REMARK  status: ('A' for Active; 'I' for Inactive)
REMARK    1  A    between atoms: C_1  and  C_2
REMARK    2  A    between atoms: C_2  and  C_4
REMARK    3  A    between atoms: C_2  and  N_9
REMARK    4  A    between atoms: N_9  and  S_10
REMARK    5  A    between atoms: S_10  and  C_13
REMARK    6  A    between atoms: C_17  and  C_19
REMARK    7  A    between atoms: C_20  and  C_21
REMARK    8  A    between atoms: C_21  and  N_22
REMARK                            x       y       z     vdW  Elec       q    Type
REMARK                         _______ _______ _______ _____ _____    ______ ____
ROOT
ATOM      1  C   UNL     1      -1.137  -2.294   2.137  0.00  0.00    +0.106 A 
ATOM      2  C   UNL     1      -2.414  -2.105   1.639  0.00  0.00    +0.028 A 
ATOM      3  C   UNL     1      -3.205  -3.192   1.313  0.00  0.00    +0.003 A 
ATOM      4  C   UNL     1      -2.723  -4.474   1.483  0.00  0.00    +0.017 A 
ATOM      5  C   UNL     1      -1.437  -4.672   1.984  0.00  0.00    +0.027 A 
ATOM      6  C   UNL     1      -0.642  -3.571   2.307  0.00  0.00    +0.045 A 
ENDROOT
BRANCH   1   7
ATOM      7  S   UNL     1      -0.139  -0.902   2.549  0.00  0.00    +0.059 S 
ATOM      8  O   UNL     1       0.814  -1.354   3.502  0.00  0.00    -0.153 OA
ATOM      9  O   UNL     1      -1.030   0.173   2.814  0.00  0.00    -0.153 OA
BRANCH   7  10
ATOM     10  N   UNL     1       0.711  -0.489   1.189  0.00  0.00    -0.182 NA
ATOM     11  H   UNL     1       1.677  -0.569   1.178  0.00  0.00    +0.149 HD
BRANCH  10  13
ATOM     12  C   UNL     1      -0.019   1.526   0.010  0.00  0.00    +0.031 C 
ATOM     13  C   UNL     1       0.002  -0.004   0.002  0.00  0.00    +0.110 C 
BRANCH  13  14
ATOM     14  C   UNL     1       0.707  -0.490  -1.238  0.00  0.00    +0.008 A 
ATOM     15  C   UNL     1       0.176  -0.943  -2.400  0.00  0.00    +0.013 A 
ATOM     16  C   UNL     1       1.026  -1.340  -3.415  0.00  0.00    +0.008 A 
ATOM     17  C   UNL     1       2.365  -1.266  -3.219  0.00  0.00    +0.045 A 
ATOM     18  S   UNL     1       2.459  -0.612  -1.560  0.00  0.00    -0.100 S 
ENDBRANCH  13  14
ENDBRANCH  10  13
ENDBRANCH   7  10
ENDBRANCH   1   7
BRANCH   5  19
ATOM     19  C   UNL     1      -0.931  -6.000   2.163  0.00  0.00    -0.068 C 
ATOM     20  C   UNL     1      -0.517  -7.089   2.310  0.00  0.00    -0.117 C 
BRANCH  20  21
ATOM     21  C   UNL     1       0.003  -8.454   2.494  0.00  0.00    +0.005 C 
BRANCH  21  22
ATOM     22  N   UNL     1       1.369  -8.389   3.030  0.00  0.00    +0.385 N 
ATOM     23  H   UNL     1       1.961  -7.888   2.384  0.00  0.00    -0.089 HD
ATOM     24  H   UNL     1       1.360  -7.910   3.918  0.00  0.00    -0.089 HD
ATOM     25  H   UNL     1       1.725  -9.325   3.156  0.00  0.00    -0.089 HD
ENDBRANCH  21  22
ENDBRANCH  20  21
ENDBRANCH   5  19
TORSDOF 7
