REMARK  Name = ZINC63646900
REMARK  8 active torsions:
REMARK  status: ('A' for Active; 'I' for Inactive)
REMARK    1  A    between atoms: C_1  and  C_2
REMARK    2  A    between atoms: C_2  and  C_3
REMARK    3  A    between atoms: C_3  and  C_4
REMARK    4  A    between atoms: C_3  and  C_6
REMARK    5  A    between atoms: C_4  and  C_5
REMARK    6  A    between atoms: C_13  and  C_17
REMARK    7  A    between atoms: C_17  and  S_18
REMARK    8  A    between atoms: S_18  and  C_19
REMARK                            x       y       z     vdW  Elec       q    Type
REMARK                         _______ _______ _______ _____ _____    ______ ____
ROOT
ATOM      1  C   UNL     1      -1.409  -2.152   0.225  0.00  0.00    +0.156 C 
ATOM      2  N   UNL     1      -2.753  -2.745  -0.004  0.00  0.00    -0.266 N 
ATOM      3  N   UNL     1      -2.987  -3.172  -1.281  0.00  0.00    -0.206 N 
ATOM      4  C   UNL     1      -4.225  -3.328  -1.842  0.00  0.00    +0.272 A 
ATOM      5  O   UNL     1      -5.224  -3.025  -1.210  0.00  0.00    -0.266 OA
ATOM      6  C   UNL     1      -4.347  -3.833  -3.141  0.00  0.00    +0.096 A 
ATOM      7  C   UNL     1      -3.226  -4.157  -3.849  0.00  0.00    +0.060 A 
ATOM      8  N   UNL     1      -2.032  -3.966  -3.289  0.00  0.00    -0.226 NA
ATOM      9  C   UNL     1      -1.917  -3.482  -2.079  0.00  0.00    +0.191 A 
ATOM     10  S   UNL     1      -0.489  -3.057  -1.094  0.00  0.00    -0.062 S 
ATOM     11  H   UNL     1      -2.943  -3.478   0.663  0.00  0.00    +0.168 HD
ENDROOT
BRANCH   1  12
ATOM     12  C   UNL     1      -1.410  -0.642  -0.022  0.00  0.00    +0.021 C 
BRANCH  12  14
ATOM     13  C   UNL     1       0.623  -0.288   1.386  0.00  0.00    +0.004 C 
ATOM     14  C   UNL     1       0.029  -0.124  -0.014  0.00  0.00    +0.003 C 
ENDBRANCH  12  14
BRANCH  12  15
ATOM     15  C   UNL     1      -2.050  -0.348  -1.381  0.00  0.00    +0.003 C 
ATOM     16  C   UNL     1      -2.179   1.165  -1.567  0.00  0.00    +0.004 C 
ENDBRANCH  12  15
ENDBRANCH   1  12
BRANCH   7  17
ATOM     17  C   UNL     1      -3.337  -4.721  -5.242  0.00  0.00    +0.133 C 
BRANCH  17  18
ATOM     18  S   UNL     1      -2.893  -3.443  -6.450  0.00  0.00    -0.078 S 
BRANCH  18  19
ATOM     19  C   UNL     1      -3.071  -4.248  -8.007  0.00  0.00    +0.210 A 
ATOM     20  H   UNL     1      -3.686  -6.554 -10.017  0.00  0.00    +0.192 HD
ATOM     21  N   UNL     1      -2.847  -3.689  -9.202  0.00  0.00    -0.188 NA
ATOM     22  C   UNL     1      -3.074  -4.570 -10.153  0.00  0.00    +0.209 A 
ATOM     23  N   UNL     1      -3.453  -5.726  -9.568  0.00  0.00    -0.246 N 
ATOM     24  N   UNL     1      -3.438  -5.495  -8.183  0.00  0.00    -0.144 NA
ATOM     25  N   UNL     1      -2.947  -4.350 -11.512  0.00  0.00    -0.328 N 
ATOM     26  H   UNL     1      -2.667  -3.480 -11.839  0.00  0.00    +0.145 HD
ATOM     27  H   UNL     1      -3.138  -5.065 -12.139  0.00  0.00    +0.145 HD
ENDBRANCH  18  19
ENDBRANCH  17  18
ENDBRANCH   7  17
TORSDOF 6
