REMARK  Name = ZINC00160435
REMARK  5 active torsions:
REMARK  status: ('A' for Active; 'I' for Inactive)
REMARK    1  A    between atoms: C_1  and  C_2
REMARK    2  A    between atoms: C_4  and  C_25
REMARK    3  A    between atoms: N_13  and  N_17
REMARK    4  A    between atoms: C_14  and  C_16
REMARK    5  A    between atoms: C_18  and  C_19
REMARK                            x       y       z     vdW  Elec       q    Type
REMARK                         _______ _______ _______ _____ _____    ______ ____
ROOT
ATOM      1  C   UNL     1       3.455   4.169  -0.276  0.00  0.00    +0.044 C 
ATOM      2  C   UNL     1       2.014   4.577  -0.105  0.00  0.00    -0.037 A 
ATOM      3  C   UNL     1       1.665   5.908  -0.062  0.00  0.00    +0.027 A 
ATOM      4  C   UNL     1       0.339   6.278   0.095  0.00  0.00    +0.040 A 
ATOM      5  N   UNL     1      -0.602   5.361   0.207  0.00  0.00    -0.245 NA
ATOM      6  C   UNL     1      -0.315   4.077   0.172  0.00  0.00    +0.112 A 
ATOM      7  C   UNL     1       1.000   3.599   0.015  0.00  0.00    +0.037 A 
ATOM      8  C   UNL     1       1.155   2.134  -0.004  0.00  0.00    +0.095 A 
ATOM      9  C   UNL     1      -0.016   1.393   0.135  0.00  0.00    +0.106 A 
ATOM     10  S   UNL     1      -1.300   2.604   0.295  0.00  0.00    -0.062 S 
ATOM     11  C   UNL     1       0.006  -0.007   0.131  0.00  0.00    +0.289 A 
ATOM     12  O   UNL     1      -1.023  -0.652   0.254  0.00  0.00    -0.265 OA
ATOM     13  N   UNL     1       1.202  -0.625  -0.011  0.00  0.00    -0.182 N 
ATOM     14  C   UNL     1       2.327   0.128  -0.144  0.00  0.00    +0.132 A 
ATOM     15  N   UNL     1       2.312   1.424  -0.142  0.00  0.00    -0.231 NA
ATOM     16  C   UNL     1       3.650  -0.576  -0.301  0.00  0.00    +0.088 C 
ATOM     17  C   UNL     1      -0.030   7.739   0.140  0.00  0.00    +0.065 C 
ENDROOT
BRANCH  13  18
ATOM     18  N   UNL     1       1.281  -2.024  -0.021  0.00  0.00    -0.170 NA
ATOM     19  C   UNL     1       0.745  -2.698  -0.993  0.00  0.00    +0.141 C 
BRANCH  19  20
ATOM     20  C   UNL     1       0.727  -4.171  -0.946  0.00  0.00    -0.005 A 
ATOM     21  C   UNL     1       1.291  -4.846   0.139  0.00  0.00    +0.009 A 
ATOM     22  C   UNL     1       1.265  -6.225   0.179  0.00  0.00    +0.001 A 
ATOM     23  C   UNL     1       0.693  -6.939  -0.859  0.00  0.00    +0.000 A 
ATOM     24  C   UNL     1       0.138  -6.278  -1.940  0.00  0.00    +0.001 A 
ATOM     25  C   UNL     1       0.151  -4.899  -1.990  0.00  0.00    +0.009 A 
ENDBRANCH  19  20
ENDBRANCH  13  18
TORSDOF 2
