REMARK  Name = ZINC09076595
REMARK  9 active torsions:
REMARK  status: ('A' for Active; 'I' for Inactive)
REMARK    1  A    between atoms: C_1  and  C_2
REMARK    2  A    between atoms: C_2  and  C_3
REMARK    3  A    between atoms: C_3  and  C_5
REMARK    4  A    between atoms: C_3  and  C_6
REMARK    5  A    between atoms: C_9  and  N_12
REMARK    6  A    between atoms: C_16  and  C_17
REMARK    7  A    between atoms: C_19  and  C_29
REMARK    8  A    between atoms: N_20  and  C_23
REMARK    9  A    between atoms: C_21  and  C_22
REMARK                            x       y       z     vdW  Elec       q    Type
REMARK                         _______ _______ _______ _____ _____    ______ ____
ROOT
ATOM      1  N   UNL     1      -0.809  -6.479  -0.685  0.00  0.00    -0.190 N 
ATOM      2  C   UNL     1       0.098  -7.148   0.056  0.00  0.00    +0.263 C 
ATOM      3  O   UNL     1       0.505  -6.691   1.108  0.00  0.00    -0.269 OA
ATOM      4  C   UNL     1       0.584  -8.447  -0.443  0.00  0.00    +0.100 C 
ATOM      5  C   UNL     1       1.515  -9.191   0.263  0.00  0.00    +0.028 C 
ATOM      6  C   UNL     1       0.034  -8.920  -1.728  0.00  0.00    +0.257 C 
ATOM      7  O   UNL     1       0.386  -9.983  -2.204  0.00  0.00    -0.270 OA
ATOM      8  N   UNL     1      -0.869  -8.143  -2.360  0.00  0.00    -0.235 N 
ATOM      9  C   UNL     1      -1.269  -6.973  -1.843  0.00  0.00    +0.320 C 
ATOM     10  O   UNL     1      -2.090  -6.322  -2.460  0.00  0.00    -0.251 OA
ATOM     11  H   UNL     1      -1.240  -8.439  -3.205  0.00  0.00    +0.159 HD
ENDROOT
BRANCH   5  12
ATOM     12  C   UNL     1       2.161  -8.630   1.390  0.00  0.00    -0.003 A 
ATOM     13  C   UNL     1       2.732  -7.280   1.504  0.00  0.00    +0.031 A 
ATOM     14  C   UNL     1       3.238  -7.185   2.744  0.00  0.00    +0.022 A 
ATOM     15  N   UNL     1       3.029  -8.363   3.408  0.00  0.00    -0.317 N 
ATOM     16  C   UNL     1       2.380  -9.239   2.617  0.00  0.00    +0.028 A 
ATOM     17  C   UNL     1       1.967 -10.637   2.998  0.00  0.00    +0.064 C 
ATOM     18  C   UNL     1       3.928  -5.973   3.315  0.00  0.00    +0.064 C 
BRANCH  15  19
ATOM     19  C   UNL     1       3.427  -8.619   4.726  0.00  0.00    +0.047 A 
ATOM     20  C   UNL     1       4.382  -9.593   4.988  0.00  0.00    +0.026 A 
ATOM     21  C   UNL     1       4.777  -9.839   6.288  0.00  0.00    +0.002 A 
ATOM     22  C   UNL     1       4.214  -9.125   7.330  0.00  0.00    +0.000 A 
ATOM     23  C   UNL     1       3.259  -8.159   7.074  0.00  0.00    +0.002 A 
ATOM     24  C   UNL     1       2.864  -7.904   5.775  0.00  0.00    +0.026 A 
ENDBRANCH  15  19
ENDBRANCH   5  12
BRANCH   1  28
ATOM     25  C   UNL     1      -2.226  -2.799   0.665  0.00  0.00    -0.044 A 
ATOM     26  C   UNL     1      -2.511  -3.951   1.375  0.00  0.00    +0.006 A 
ATOM     27  C   UNL     1      -2.048  -5.172   0.927  0.00  0.00    +0.024 A 
ATOM     28  C   UNL     1      -1.285  -5.242  -0.231  0.00  0.00    +0.046 A 
ATOM     29  C   UNL     1      -0.996  -4.083  -0.939  0.00  0.00    +0.024 A 
ATOM     30  C   UNL     1      -1.467  -2.865  -0.489  0.00  0.00    +0.006 A 
BRANCH  25  31
ATOM     31  C   UNL     1      -2.739  -1.468   1.153  0.00  0.00    +0.016 C 
ATOM     32  C   UNL     1      -2.188  -1.192   2.554  0.00  0.00    +0.012 C 
BRANCH  31  34
ATOM     33  C   UNL     1      -4.793  -0.111   1.578  0.00  0.00    +0.004 C 
ATOM     34  C   UNL     1      -4.268  -1.498   1.203  0.00  0.00    +0.004 C 
ENDBRANCH  31  34
ENDBRANCH  25  31
ENDBRANCH   1  28
TORSDOF 5
