REMARK  Name = ZINC38705161
REMARK  11 active torsions:
REMARK  status: ('A' for Active; 'I' for Inactive)
REMARK    1  A    between atoms: C_1  and  C_2
REMARK    2  A    between atoms: C_2  and  C_3
REMARK    3  A    between atoms: C_3  and  O_4
REMARK    4  A    between atoms: O_4  and  C_5
REMARK    5  A    between atoms: C_8  and  C_11
REMARK    6  A    between atoms: C_14  and  C_30
REMARK    7  A    between atoms: N_21  and  C_22
REMARK    8  A    between atoms: C_22  and  C_23
REMARK    9  A    between atoms: C_31  and  C_38
REMARK   10  A    between atoms: C_33  and  C_37
REMARK   11  A    between atoms: C_35  and  O_36
REMARK                            x       y       z     vdW  Elec       q    Type
REMARK                         _______ _______ _______ _____ _____    ______ ____
ROOT
ATOM      1  C   UNL     1      -5.999  -4.578  -0.060  0.00  0.00    +0.142 C 
ATOM      2  C   UNL     1      -6.593  -4.947  -1.392  0.00  0.00    +0.035 A 
ATOM      3  C   UNL     1      -7.060  -4.511  -2.636  0.00  0.00    +0.102 A 
ATOM      4  N   UNL     1      -7.457  -5.576  -3.304  0.00  0.00    -0.173 NA
ATOM      5  N   UNL     1      -7.287  -6.641  -2.605  0.00  0.00    -0.272 N 
ATOM      6  H   UNL     1      -7.509  -7.540  -2.895  0.00  0.00    +0.189 HD
ATOM      7  C   UNL     1      -6.748  -6.320  -1.391  0.00  0.00    +0.126 A 
ATOM      8  C   UNL     1      -6.274  -6.843  -0.105  0.00  0.00    +0.266 C 
ATOM      9  O   UNL     1      -6.275  -8.017   0.210  0.00  0.00    -0.268 OA
ATOM     10  N   UNL     1      -5.837  -5.838   0.677  0.00  0.00    -0.281 N 
ENDROOT
BRANCH   3  11
ATOM     11  C   UNL     1      -7.101  -3.107  -3.117  0.00  0.00    +0.047 A 
ATOM     12  C   UNL     1      -6.614  -2.786  -4.381  0.00  0.00    -0.037 A 
ATOM     13  C   UNL     1      -6.654  -1.479  -4.823  0.00  0.00    +0.007 A 
ATOM     14  C   UNL     1      -7.178  -0.486  -4.014  0.00  0.00    -0.047 A 
ATOM     15  C   UNL     1      -7.664  -0.794  -2.758  0.00  0.00    +0.049 A 
ATOM     16  C   UNL     1      -7.635  -2.103  -2.304  0.00  0.00    +0.127 A 
ATOM     17  C   UNL     1      -7.218   0.938  -4.506  0.00  0.00    +0.044 C 
ATOM     18  C   UNL     1      -6.042  -3.864  -5.265  0.00  0.00    +0.044 C 
BRANCH  16  19
ATOM     19  O   UNL     1      -8.118  -2.408  -1.072  0.00  0.00    -0.506 OA
ATOM     20  H   UNL     1      -7.475  -2.297  -0.358  0.00  0.00    +0.292 HD
ENDBRANCH  16  19
ENDBRANCH   3  11
BRANCH   1  24
ATOM     21  C   UNL     1      -2.203  -2.696  -0.612  0.00  0.00    +0.121 A 
ATOM     22  C   UNL     1      -3.294  -1.950  -0.193  0.00  0.00    +0.046 A 
ATOM     23  C   UNL     1      -4.520  -2.560  -0.015  0.00  0.00    +0.009 A 
ATOM     24  C   UNL     1      -4.660  -3.914  -0.255  0.00  0.00    -0.022 A 
ATOM     25  C   UNL     1      -3.574  -4.661  -0.673  0.00  0.00    +0.009 A 
ATOM     26  C   UNL     1      -2.347  -4.054  -0.858  0.00  0.00    +0.046 A 
BRANCH  21  27
ATOM     27  O   UNL     1      -0.995  -2.098  -0.788  0.00  0.00    -0.492 OA
BRANCH  27  28
ATOM     28  C   UNL     1      -0.920  -0.697  -0.517  0.00  0.00    +0.229 C 
BRANCH  28  30
ATOM     29  C   UNL     1       0.588   1.295  -0.478  0.00  0.00    +0.007 C 
ATOM     30  C   UNL     1       0.507  -0.205  -0.769  0.00  0.00    +0.038 C 
ENDBRANCH  28  30
ENDBRANCH  27  28
ENDBRANCH  21  27
ENDBRANCH   1  24
BRANCH  10  31
ATOM     31  C   UNL     1      -5.292  -5.976   2.030  0.00  0.00    +0.145 C 
BRANCH  31  32
ATOM     32  C   UNL     1      -6.411  -5.876   3.035  0.00  0.00    -0.012 A 
ATOM     33  C   UNL     1      -6.635  -4.686   3.703  0.00  0.00    +0.006 A 
ATOM     34  C   UNL     1      -7.661  -4.594   4.625  0.00  0.00    +0.000 A 
ATOM     35  C   UNL     1      -8.464  -5.691   4.879  0.00  0.00    +0.001 A 
ATOM     36  C   UNL     1      -8.240  -6.881   4.212  0.00  0.00    +0.020 A 
ATOM     37  C   UNL     1      -7.217  -6.972   3.285  0.00  0.00    +0.046 A 
ATOM     38 CL   UNL     1      -6.939  -8.464   2.441  0.00  0.00    -0.083 Cl
ENDBRANCH  31  32
ENDBRANCH  10  31
TORSDOF 8
