REMARK  Name = ZINC54189988
REMARK  3 active torsions:
REMARK  status: ('A' for Active; 'I' for Inactive)
REMARK    1  A    between atoms: C_3  and  C_9
REMARK    2  A    between atoms: C_9  and  C_11
REMARK    3  A    between atoms: C_9  and  N_22
REMARK                            x       y       z     vdW  Elec       q    Type
REMARK                         _______ _______ _______ _____ _____    ______ ____
ROOT
ATOM      1  C   UNL     1       3.671   2.190  -0.023  0.00  0.00    -0.009 C 
ENDROOT
BRANCH   1   2
ATOM      2  C   UNL     1       4.214   2.243  -1.427  0.00  0.00    -0.040 A 
ATOM      3  C   UNL     1       4.123   3.413  -2.158  0.00  0.00    +0.052 A 
ATOM      4  C   UNL     1       4.624   3.465  -3.450  0.00  0.00    +0.162 A 
ATOM      5  C   UNL     1       5.218   2.340  -4.008  0.00  0.00    +0.163 A 
ATOM      6  C   UNL     1       5.305   1.169  -3.271  0.00  0.00    +0.065 A 
ATOM      7  C   UNL     1       4.808   1.124  -1.981  0.00  0.00    +0.023 A 
ATOM      8 BR   UNL     1       4.936  -0.472  -0.975  0.00  0.00    -0.050 Br
ATOM      9  O   UNL     1       5.723   2.372  -5.272  0.00  0.00    -0.485 OA
ATOM     10  C   UNL     1       5.285   3.446  -6.112  0.00  0.00    +0.270 C 
ATOM     11  C   UNL     1       5.369   4.750  -5.307  0.00  0.00    +0.270 C 
ATOM     12  O   UNL     1       4.524   4.623  -4.159  0.00  0.00    -0.485 OA
ENDBRANCH   1   2
BRANCH   1  15
ATOM     13  C   UNL     1       0.257   1.155  -1.262  0.00  0.00    +0.003 A 
ATOM     14  C   UNL     1       1.551   1.643  -1.236  0.00  0.00    +0.005 A 
ATOM     15  C   UNL     1       2.261   1.659  -0.050  0.00  0.00    -0.020 A 
ATOM     16  C   UNL     1       1.677   1.187   1.113  0.00  0.00    +0.160 A 
ATOM     17  C   UNL     1       0.379   0.699   1.086  0.00  0.00    +0.159 A 
ATOM     18  C   UNL     1      -0.329   0.683  -0.103  0.00  0.00    +0.041 A 
ATOM     19  F   UNL     1      -0.193   0.237   2.220  0.00  0.00    -0.202 F 
ATOM     20  F   UNL     1       2.370   1.202   2.272  0.00  0.00    -0.202 F 
ENDBRANCH   1  15
BRANCH   1  21
ATOM     21  N   UNL     1       3.675   3.540   0.556  0.00  0.00    +0.385 N 
ATOM     22  H   UNL     1       3.097   4.148  -0.005  0.00  0.00    -0.089 HD
ATOM     23  H   UNL     1       3.311   3.504   1.496  0.00  0.00    -0.089 HD
ATOM     24  H   UNL     1       4.619   3.895   0.574  0.00  0.00    -0.089 HD
ENDBRANCH   1  21
TORSDOF 3
