REMARK  Name = ZINC19905738
REMARK  9 active torsions:
REMARK  status: ('A' for Active; 'I' for Inactive)
REMARK    1  A    between atoms: C_1  and  C_2
REMARK    2  A    between atoms: C_2  and  C_3
REMARK    3  A    between atoms: C_2  and  C_4
REMARK    4  A    between atoms: C_2  and  C_18
REMARK    5  A    between atoms: C_4  and  N_5
REMARK    6  A    between atoms: N_5  and  C_6
REMARK    7  A    between atoms: C_18  and  N_19
REMARK    8  A    between atoms: N_19  and  C_20
REMARK    9  A    between atoms: N_19  and  C_21
REMARK                            x       y       z     vdW  Elec       q    Type
REMARK                         _______ _______ _______ _____ _____    ______ ____
ROOT
ATOM      1  C   UNL     1      -3.736   0.796   0.575  0.00  0.00    +0.173 C 
ATOM      2  C   UNL     1      -4.298   1.422   1.830  0.00  0.00    +0.001 A 
ATOM      3  C   UNL     1      -4.039   1.230   3.169  0.00  0.00    +0.022 A 
ATOM      4  C   UNL     1      -4.727   1.967   4.118  0.00  0.00    +0.018 A 
ATOM      5  C   UNL     1      -5.673   2.894   3.716  0.00  0.00    +0.017 A 
ATOM      6  C   UNL     1      -5.934   3.087   2.376  0.00  0.00    +0.025 A 
ATOM      7  C   UNL     1      -5.245   2.350   1.415  0.00  0.00    +0.039 A 
ATOM      8  N   UNL     1      -5.328   2.363   0.022  0.00  0.00    -0.284 N 
ATOM      9  C   UNL     1      -4.482   1.484  -0.549  0.00  0.00    +0.239 C 
ATOM     10  O   UNL     1      -4.342   1.281  -1.736  0.00  0.00    -0.273 OA
ATOM     11 BR   UNL     1      -4.376   1.707   5.958  0.00  0.00    -0.050 Br
ATOM     12  H   UNL     1      -5.928   2.938  -0.479  0.00  0.00    +0.155 HD
ENDROOT
BRANCH   1  13
ATOM     13  N   UNL     1      -2.294   1.056   0.470  0.00  0.00    -0.302 NA
ATOM     14  H   UNL     1      -1.866   1.091   1.383  0.00  0.00    +0.123 HD
BRANCH  13  15
ATOM     15  C   UNL     1      -1.639   0.054  -0.381  0.00  0.00    +0.086 C 
BRANCH  15  17
ATOM     16  C   UNL     1       0.063   1.750  -1.066  0.00  0.00    +0.010 C 
ATOM     17  C   UNL     1      -0.141   0.358  -0.466  0.00  0.00    -0.037 C 
ATOM     18  C   UNL     1       0.468   0.313   0.937  0.00  0.00    +0.010 C 
BRANCH  17  19
ATOM     19  C   UNL     1       0.541  -0.685  -1.352  0.00  0.00    -0.072 C 
BRANCH  19  20
ATOM     20  N   UNL     1       1.972  -0.371  -1.466  0.00  0.00    +0.376 N 
ATOM     21  C   UNL     1       2.695  -0.963  -0.333  0.00  0.00    -0.097 C 
ATOM     22  C   UNL     1       2.496  -0.921  -2.723  0.00  0.00    -0.097 C 
ATOM     23  H   UNL     1       2.097   0.631  -1.459  0.00  0.00    -0.083 HD
ENDBRANCH  19  20
ENDBRANCH  17  19
ENDBRANCH  15  17
ENDBRANCH  13  15
ENDBRANCH   1  13
TORSDOF 5
