REMARK  Name = ZINC16000115
REMARK  11 active torsions:
REMARK  status: ('A' for Active; 'I' for Inactive)
REMARK    1  A    between atoms: C_1  and  C_2
REMARK    2  A    between atoms: C_2  and  C_3
REMARK    3  A    between atoms: C_3  and  C_4
REMARK    4  A    between atoms: C_7  and  C_10
REMARK    5  A    between atoms: C_10  and  C_12
REMARK    6  A    between atoms: C_14  and  C_38
REMARK    7  A    between atoms: C_20  and  C_37
REMARK    8  A    between atoms: C_38  and  C_40
REMARK    9  A    between atoms: C_40  and  C_41
REMARK   10  A    between atoms: C_40  and  C_42
REMARK   11  A    between atoms: C_40  and  C_43
REMARK                            x       y       z     vdW  Elec       q    Type
REMARK                         _______ _______ _______ _____ _____    ______ ____
ROOT
ATOM      1  C   UNL     1      -3.121   4.163   6.264  0.00  0.00    +0.109 C 
ATOM      2  C   UNL     1      -1.838   3.515   5.670  0.00  0.00    +0.153 C 
ATOM      3  N   UNL     1      -2.364   2.535   4.712  0.00  0.00    -0.311 N 
ATOM      4  C   UNL     1      -1.513   2.021   3.763  0.00  0.00    +0.038 A 
ATOM      5  C   UNL     1      -0.136   2.087   3.853  0.00  0.00    +0.024 A 
ATOM      6  C   UNL     1       0.647   1.558   2.844  0.00  0.00    +0.005 A 
ATOM      7  C   UNL     1       0.062   0.960   1.740  0.00  0.00    -0.050 A 
ATOM      8  C   UNL     1      -1.313   0.886   1.632  0.00  0.00    +0.013 A 
ATOM      9  C   UNL     1      -2.112   1.406   2.641  0.00  0.00    -0.004 A 
ATOM     10  C   UNL     1      -3.591   1.339   2.574  0.00  0.00    +0.007 C 
ATOM     11  C   UNL     1      -4.287   2.259   3.267  0.00  0.00    -0.003 C 
ATOM     12  C   UNL     1      -3.478   3.256   4.038  0.00  0.00    +0.117 C 
ATOM     13  C   UNL     1      -4.202   3.943   5.186  0.00  0.00    +0.108 C 
ATOM     14  C   UNL     1      -4.845   5.225   4.781  0.00  0.00    -0.008 A 
ATOM     15  C   UNL     1      -4.332   6.377   4.223  0.00  0.00    +0.006 A 
ATOM     16  C   UNL     1      -5.229   7.407   3.964  0.00  0.00    +0.000 A 
ATOM     17  C   UNL     1      -6.573   7.281   4.254  0.00  0.00    +0.002 A 
ATOM     18  C   UNL     1      -7.096   6.127   4.816  0.00  0.00    +0.023 A 
ATOM     19  C   UNL     1      -6.207   5.084   5.080  0.00  0.00    +0.038 A 
ATOM     20  N   UNL     1      -6.453   3.837   5.629  0.00  0.00    -0.284 N 
ATOM     21  C   UNL     1      -5.327   3.097   5.727  0.00  0.00    +0.231 C 
ATOM     22  O   UNL     1      -5.238   1.969   6.166  0.00  0.00    -0.274 OA
ATOM     23  C   UNL     1       0.931   0.390   0.649  0.00  0.00    +0.044 C 
ATOM     24  H   UNL     1      -7.330   3.531   5.910  0.00  0.00    +0.155 HD
ENDROOT
BRANCH   1  25
ATOM     25  C   UNL     1      -2.905   5.636   6.498  0.00  0.00    +0.170 C 
ATOM     26  O   UNL     1      -2.340   6.307   5.661  0.00  0.00    -0.292 OA
BRANCH  25  30
ATOM     27  C   UNL     1      -4.275   7.434  10.088  0.00  0.00    -0.047 A 
ATOM     28  C   UNL     1      -3.730   8.221   9.088  0.00  0.00    +0.004 A 
ATOM     29  C   UNL     1      -3.282   7.644   7.918  0.00  0.00    +0.011 A 
ATOM     30  C   UNL     1      -3.380   6.260   7.744  0.00  0.00    +0.018 A 
ATOM     31  C   UNL     1      -3.937   5.472   8.757  0.00  0.00    +0.011 A 
ATOM     32  C   UNL     1      -4.375   6.064   9.923  0.00  0.00    +0.004 A 
BRANCH  27  33
ATOM     33  C   UNL     1      -4.761   8.073  11.363  0.00  0.00    +0.035 C 
BRANCH  33  35
ATOM     34  C   UNL     1      -6.729   9.104  12.507  0.00  0.00    +0.004 C 
ATOM     35  C   UNL     1      -6.235   8.456  11.212  0.00  0.00    +0.001 C 
ENDBRANCH  33  35
ENDBRANCH  27  33
ENDBRANCH  25  30
ENDBRANCH   1  25
BRANCH   2  36
ATOM     36  C   UNL     1      -0.995   4.550   4.971  0.00  0.00    +0.160 C 
ATOM     37  O   UNL     1      -1.277   4.902   3.850  0.00  0.00    -0.295 OA
BRANCH  36  38
ATOM     38  C   UNL     1       0.201   5.145   5.669  0.00  0.00    +0.022 C 
ATOM     39  C   UNL     1       0.743   6.315   4.844  0.00  0.00    +0.018 C 
ATOM     40  C   UNL     1      -0.215   5.646   7.053  0.00  0.00    +0.018 C 
ATOM     41  C   UNL     1       1.288   4.079   5.817  0.00  0.00    +0.018 C 
ENDBRANCH  36  38
ENDBRANCH   2  36
TORSDOF 6
