REMARK  Name = ZINC13211955
REMARK  15 active torsions:
REMARK  status: ('A' for Active; 'I' for Inactive)
REMARK    1  A    between atoms: C_1  and  C_2
REMARK    2  A    between atoms: C_2  and  N_58
REMARK    3  A    between atoms: C_3  and  C_4
REMARK    4  A    between atoms: C_3  and  N_58
REMARK    5  A    between atoms: C_5  and  C_7
REMARK    6  A    between atoms: C_5  and  C_26
REMARK    7  A    between atoms: C_5  and  N_58
REMARK    8  A    between atoms: C_7  and  N_8
REMARK    9  A    between atoms: N_8  and  C_9
REMARK   10  A    between atoms: C_12  and  S_18
REMARK   11  A    between atoms: C_14  and  N_15
REMARK   12  A    between atoms: S_18  and  N_21
REMARK   13  A    between atoms: N_21  and  C_22
REMARK   14  A    between atoms: C_22  and  C_23
REMARK   15  A    between atoms: C_23  and  C_24
REMARK                            x       y       z     vdW  Elec       q    Type
REMARK                         _______ _______ _______ _____ _____    ______ ____
ROOT
ATOM      1  C   UNL     1      -5.556   0.611  -2.169  0.00  0.00    +0.058 A 
ATOM      2  C   UNL     1      -4.886   0.257  -3.333  0.00  0.00    +0.027 A 
ATOM      3  C   UNL     1      -5.595   0.037  -4.497  0.00  0.00    +0.030 A 
ATOM      4  C   UNL     1      -6.972   0.167  -4.504  0.00  0.00    +0.108 A 
ATOM      5  C   UNL     1      -7.643   0.519  -3.348  0.00  0.00    +0.063 A 
ATOM      6  C   UNL     1      -6.940   0.736  -2.179  0.00  0.00    +0.149 A 
ENDROOT
BRANCH   6   7
ATOM      7  N   UNL     1      -7.659   1.106  -0.939  0.00  0.00    +0.058 N 
ATOM      8  O   UNL     1      -8.877   1.109  -0.919  0.00  0.00    -0.126 OA
ATOM      9  O   UNL     1      -7.033   1.409   0.061  0.00  0.00    -0.126 OA
ENDBRANCH   6   7
BRANCH   4  10
ATOM     10  S   UNL     1      -7.873  -0.115  -5.992  0.00  0.00    +0.058 S 
ATOM     11  O   UNL     1      -9.094   0.603  -5.870  0.00  0.00    -0.153 OA
ATOM     12  O   UNL     1      -6.966   0.102  -7.064  0.00  0.00    -0.153 OA
BRANCH  10  13
ATOM     13  N   UNL     1      -8.271  -1.722  -6.026  0.00  0.00    -0.189 NA
ATOM     14  H   UNL     1      -7.901  -2.298  -6.713  0.00  0.00    +0.148 HD
BRANCH  13  15
ATOM     15  C   UNL     1      -9.182  -2.273  -5.020  0.00  0.00    +0.117 C 
BRANCH  15  16
ATOM     16  C   UNL     1      -9.676  -3.647  -5.476  0.00  0.00    +0.142 C 
BRANCH  16  17
ATOM     17  C   UNL     1     -10.613  -4.213  -4.441  0.00  0.00    +0.357 C 
ATOM     18  O   UNL     1     -10.860  -3.583  -3.440  0.00  0.00    -0.246 OA
ATOM     19  O   UNL     1     -11.173  -5.418  -4.630  0.00  0.00    -0.246 OA
ENDBRANCH  16  17
ENDBRANCH  15  16
ENDBRANCH  13  15
ENDBRANCH  10  13
ENDBRANCH   4  10
BRANCH   1  20
ATOM     20  N   UNL     1      -4.842   0.835  -0.990  0.00  0.00    -0.343 N 
ATOM     21  H   UNL     1      -5.316   0.988  -0.157  0.00  0.00    +0.146 HD
BRANCH  20  22
ATOM     22  C   UNL     1      -3.377   0.839  -1.010  0.00  0.00    +0.091 C 
BRANCH  22  23
ATOM     23  C   UNL     1      -2.849   1.252   0.365  0.00  0.00    -0.019 C 
BRANCH  23  24
ATOM     24  C   UNL     1      -1.342   1.224   0.353  0.00  0.00    -0.041 A 
ATOM     25  C   UNL     1      -0.629   2.408   0.300  0.00  0.00    +0.003 A 
ATOM     26  C   UNL     1       0.753   2.382   0.284  0.00  0.00    +0.000 A 
ATOM     27  C   UNL     1       1.423   1.174   0.326  0.00  0.00    +0.001 A 
ATOM     28  C   UNL     1       0.712  -0.010   0.383  0.00  0.00    +0.020 A 
ATOM     29  C   UNL     1      -0.672   0.015   0.400  0.00  0.00    +0.043 A 
ATOM     30 CL   UNL     1      -1.566  -1.471   0.471  0.00  0.00    -0.083 Cl
ENDBRANCH  23  24
BRANCH  23  31
ATOM     31  N   UNL     1      -3.289   2.625   0.692  0.00  0.00    +0.385 N 
ATOM     32  H   UNL     1      -2.520   3.120   1.158  0.00  0.00    -0.081 HD
BRANCH  31  34
ATOM     33  C   UNL     1      -2.359   3.821  -1.225  0.00  0.00    -0.017 C 
ATOM     34  C   UNL     1      -3.646   3.349  -0.546  0.00  0.00    -0.081 C 
ENDBRANCH  31  34
BRANCH  31  35
ATOM     35  C   UNL     1      -4.452   2.578   1.603  0.00  0.00    -0.081 C 
ATOM     36  C   UNL     1      -3.958   2.245   3.012  0.00  0.00    -0.017 C 
ENDBRANCH  31  35
ENDBRANCH  23  31
ENDBRANCH  22  23
ENDBRANCH  20  22
ENDBRANCH   1  20
TORSDOF 13
