REMARK  Name = ZINC37195869
REMARK  10 active torsions:
REMARK  status: ('A' for Active; 'I' for Inactive)
REMARK    1  A    between atoms: C_1  and  C_2
REMARK    2  A    between atoms: C_2  and  N_3
REMARK    3  A    between atoms: N_3  and  C_4
REMARK    4  A    between atoms: N_3  and  C_16
REMARK    5  A    between atoms: C_4  and  C_5
REMARK    6  A    between atoms: N_7  and  C_8
REMARK    7  A    between atoms: C_16  and  C_17
REMARK    8  A    between atoms: N_22  and  C_23
REMARK    9  A    between atoms: C_28  and  C_33
REMARK   10  A    between atoms: C_30  and  C_32
REMARK                            x       y       z     vdW  Elec       q    Type
REMARK                         _______ _______ _______ _____ _____    ______ ____
ROOT
ATOM      1  N   UNL     1       0.875  -1.242  -1.061  0.00  0.00    +0.391 N 
ATOM      2  H   UNL     1       0.258  -0.937  -1.798  0.00  0.00    -0.080 HD
ENDROOT
BRANCH   1   4
ATOM      3  C   UNL     1      -0.068   0.566   0.296  0.00  0.00    -0.017 C 
ATOM      4  C   UNL     1       0.275  -0.924   0.242  0.00  0.00    -0.081 C 
ENDBRANCH   1   4
BRANCH   1   5
ATOM      5  C   UNL     1       2.166  -0.552  -1.186  0.00  0.00    +0.020 C 
BRANCH   5   6
ATOM      6  C   UNL     1       2.701  -0.738  -2.583  0.00  0.00    +0.201 C 
ATOM      7  O   UNL     1       2.102  -1.435  -3.374  0.00  0.00    -0.278 OA
ATOM      8  N   UNL     1       3.846  -0.130  -2.952  0.00  0.00    -0.283 N 
ATOM      9  H   UNL     1       4.339   0.406  -2.312  0.00  0.00    +0.155 HD
BRANCH   8  10
ATOM     10  C   UNL     1       4.324  -0.274  -4.262  0.00  0.00    +0.105 A 
ATOM     11  C   UNL     1       5.690  -0.376  -4.498  0.00  0.00    +0.147 A 
ATOM     12  C   UNL     1       6.158  -0.517  -5.792  0.00  0.00    +0.040 A 
ATOM     13  C   UNL     1       5.269  -0.556  -6.850  0.00  0.00    +0.006 A 
ATOM     14  C   UNL     1       3.909  -0.455  -6.620  0.00  0.00    +0.040 A 
ATOM     15  C   UNL     1       3.433  -0.319  -5.328  0.00  0.00    +0.147 A 
ATOM     16  F   UNL     1       2.104  -0.226  -5.103  0.00  0.00    -0.203 F 
ATOM     17  F   UNL     1       6.559  -0.337  -3.465  0.00  0.00    -0.203 F 
ENDBRANCH   8  10
ENDBRANCH   5   6
ENDBRANCH   1   5
BRANCH   1  18
ATOM     18  C   UNL     1       1.082  -2.692  -1.163  0.00  0.00    +0.020 C 
BRANCH  18  19
ATOM     19  C   UNL     1      -0.252  -3.392  -1.158  0.00  0.00    +0.204 C 
ATOM     20  O   UNL     1      -1.275  -2.747  -1.076  0.00  0.00    -0.277 OA
ATOM     21  N   UNL     1      -0.309  -4.736  -1.243  0.00  0.00    -0.242 N 
ATOM     22  C   UNL     1      -1.502  -5.362  -1.238  0.00  0.00    +0.306 C 
ATOM     23  O   UNL     1      -2.528  -4.715  -1.157  0.00  0.00    -0.252 OA
ATOM     24  N   UNL     1      -1.559  -6.706  -1.324  0.00  0.00    -0.296 N 
ATOM     25  H   UNL     1       0.510  -5.253  -1.308  0.00  0.00    +0.159 HD
ATOM     26  H   UNL     1      -0.740  -7.223  -1.389  0.00  0.00    +0.151 HD
BRANCH  24  27
ATOM     27  C   UNL     1      -2.856  -7.386  -1.319  0.00  0.00    +0.078 C 
ATOM     28  C   UNL     1      -3.311  -7.606   0.126  0.00  0.00    +0.022 C 
ATOM     29  C   UNL     1      -4.666  -8.316   0.131  0.00  0.00    +0.002 C 
ATOM     30  C   UNL     1      -4.536  -9.668  -0.574  0.00  0.00    +0.003 C 
ATOM     31  C   UNL     1      -4.081  -9.449  -2.018  0.00  0.00    -0.009 C 
ATOM     32  C   UNL     1      -2.726  -8.738  -2.023  0.00  0.00    +0.009 C 
ATOM     33  C   UNL     1      -1.696  -9.599  -1.289  0.00  0.00    +0.009 C 
ATOM     34  C   UNL     1      -3.951 -10.801  -2.722  0.00  0.00    +0.008 C 
ENDBRANCH  24  27
ENDBRANCH  18  19
ENDBRANCH   1  18
TORSDOF 7
