REMARK  Name = ZINC22627079
REMARK  6 active torsions:
REMARK  status: ('A' for Active; 'I' for Inactive)
REMARK    1  A    between atoms: C_1  and  C_2
REMARK    2  A    between atoms: C_7  and  O_32
REMARK    3  A    between atoms: C_8  and  C_10
REMARK    4  A    between atoms: C_10  and  C_12
REMARK    5  A    between atoms: C_10  and  N_19
REMARK    6  A    between atoms: N_22  and  C_25
REMARK                            x       y       z     vdW  Elec       q    Type
REMARK                         _______ _______ _______ _____ _____    ______ ____
ROOT
ATOM      1  C   UNL     1      -6.203  -0.532  -1.033  0.00  0.00    +0.129 C 
ENDROOT
BRANCH   1   9
ATOM      2  C   UNL     1      -7.253  -5.232   4.662  0.00  0.00    +0.090 C 
ATOM      3  C   UNL     1      -6.888  -4.338   3.506  0.00  0.00    +0.150 A 
ATOM      4  N   UNL     1      -5.691  -4.279   2.925  0.00  0.00    -0.205 NA
ATOM      5  C   UNL     1      -5.723  -3.401   1.959  0.00  0.00    +0.199 A 
ATOM      6  N   UNL     1      -6.967  -2.852   1.883  0.00  0.00    -0.173 N 
ATOM      7  N   UNL     1      -7.694  -3.497   2.917  0.00  0.00    -0.147 NA
ATOM      8  C   UNL     1      -7.175  -1.897   0.916  0.00  0.00    +0.228 A 
ATOM      9  C   UNL     1      -6.188  -1.542   0.086  0.00  0.00    +0.076 A 
ATOM     10  S   UNL     1      -4.845  -2.573   0.656  0.00  0.00    -0.047 S 
BRANCH   8  11
ATOM     11  O   UNL     1      -8.397  -1.311   0.800  0.00  0.00    -0.492 OA
ATOM     12  H   UNL     1      -8.569  -0.547   0.028  0.00  0.00    +0.294 HD
ENDBRANCH   8  11
ENDBRANCH   1   9
BRANCH   1  13
ATOM     13  C   UNL     1      -6.255  -1.250  -2.357  0.00  0.00    -0.024 A 
ATOM     14  C   UNL     1      -5.125  -1.878  -2.848  0.00  0.00    +0.005 A 
ATOM     15  C   UNL     1      -5.174  -2.542  -4.060  0.00  0.00    +0.001 A 
ATOM     16  C   UNL     1      -6.349  -2.568  -4.787  0.00  0.00    +0.015 A 
ATOM     17  C   UNL     1      -7.478  -1.935  -4.299  0.00  0.00    +0.018 A 
ATOM     18  C   UNL     1      -7.430  -1.276  -3.083  0.00  0.00    +0.020 A 
ATOM     19 BR   UNL     1      -9.086  -1.970  -5.293  0.00  0.00    -0.050 Br
ENDBRANCH   1  13
BRANCH   1  20
ATOM     20  N   UNL     1      -4.986   0.288  -0.969  0.00  0.00    -0.288 NA
ATOM     21  C   UNL     1      -4.963   1.282  -2.051  0.00  0.00    +0.104 C 
ATOM     22  C   UNL     1      -3.647   2.061  -1.997  0.00  0.00    +0.120 C 
ATOM     23  N   UNL     1      -3.519   2.712  -0.685  0.00  0.00    -0.327 N 
ATOM     24  C   UNL     1      -3.542   1.718   0.397  0.00  0.00    +0.120 C 
ATOM     25  C   UNL     1      -4.858   0.939   0.343  0.00  0.00    +0.104 C 
BRANCH  23  26
ATOM     26  C   UNL     1      -2.362   3.492  -0.624  0.00  0.00    +0.031 A 
ATOM     27  C   UNL     1      -2.056   4.193   0.536  0.00  0.00    +0.023 A 
ATOM     28  C   UNL     1      -0.908   4.958   0.596  0.00  0.00    +0.003 A 
ATOM     29  C   UNL     1      -0.066   5.033  -0.498  0.00  0.00    +0.020 A 
ATOM     30  C   UNL     1      -0.370   4.340  -1.657  0.00  0.00    +0.043 A 
ATOM     31  C   UNL     1      -1.518   3.572  -1.724  0.00  0.00    +0.043 A 
ATOM     32 CL   UNL     1       0.690   4.436  -3.028  0.00  0.00    -0.083 Cl
ENDBRANCH  23  26
ENDBRANCH   1  20
TORSDOF 5
