REMARK  Name = ZINC15968077
REMARK  7 active torsions:
REMARK  status: ('A' for Active; 'I' for Inactive)
REMARK    1  A    between atoms: C_1  and  C_2
REMARK    2  A    between atoms: C_2  and  C_3
REMARK    3  A    between atoms: C_14  and  C_17
REMARK    4  A    between atoms: C_17  and  C_18
REMARK    5  A    between atoms: N_23  and  C_26
REMARK    6  A    between atoms: C_26  and  C_27
REMARK    7  A    between atoms: C_27  and  C_28
REMARK                            x       y       z     vdW  Elec       q    Type
REMARK                         _______ _______ _______ _____ _____    ______ ____
ROOT
ATOM      1  C   UNL     1      -0.321  -2.853  -0.497  0.00  0.00    -0.047 A 
ATOM      2  C   UNL     1      -0.711  -3.632   0.577  0.00  0.00    +0.005 A 
ATOM      3  C   UNL     1      -2.019  -4.054   0.693  0.00  0.00    +0.024 A 
ATOM      4  C   UNL     1      -2.958  -3.700  -0.273  0.00  0.00    +0.039 A 
ATOM      5  C   UNL     1      -2.554  -2.917  -1.351  0.00  0.00    +0.004 A 
ATOM      6  C   UNL     1      -1.249  -2.491  -1.458  0.00  0.00    +0.011 A 
ATOM      7  C   UNL     1      -3.779  -2.719  -2.197  0.00  0.00    +0.136 C 
ATOM      8  C   UNL     1      -4.121  -1.233  -2.360  0.00  0.00    +0.122 C 
ATOM      9  C   UNL     1      -4.680  -1.118  -3.806  0.00  0.00    +0.107 C 
ATOM     10  C   UNL     1      -4.642  -2.557  -4.362  0.00  0.00    +0.076 C 
ATOM     11  N   UNL     1      -3.583  -3.241  -3.562  0.00  0.00    -0.295 NA
ATOM     12  C   UNL     1      -3.651  -0.266  -4.511  0.00  0.00    +0.227 C 
ATOM     13  O   UNL     1      -3.695   0.065  -5.677  0.00  0.00    -0.275 OA
ATOM     14  N   UNL     1      -2.682   0.066  -3.650  0.00  0.00    -0.241 N 
ATOM     15  C   UNL     1      -2.847  -0.420  -2.398  0.00  0.00    +0.228 C 
ATOM     16  O   UNL     1      -2.103  -0.240  -1.458  0.00  0.00    -0.275 OA
ATOM     17  C   UNL     1      -4.874  -3.459  -1.479  0.00  0.00    +0.243 C 
ATOM     18  O   UNL     1      -6.033  -3.554  -1.825  0.00  0.00    -0.273 OA
ATOM     19  N   UNL     1      -4.319  -3.998  -0.376  0.00  0.00    -0.283 N 
ATOM     20  H   UNL     1      -2.660  -3.022  -3.905  0.00  0.00    +0.124 HD
ATOM     21  H   UNL     1      -4.806  -4.531   0.271  0.00  0.00    +0.155 HD
ENDROOT
BRANCH   1  23
ATOM     22  C   UNL     1       1.275  -1.051   0.097  0.00  0.00    +0.009 C 
ATOM     23  C   UNL     1       1.109  -2.394  -0.617  0.00  0.00    +0.032 C 
ENDBRANCH   1  23
BRANCH  10  24
ATOM     24  C   UNL     1      -6.002  -3.234  -4.181  0.00  0.00    +0.115 C 
BRANCH  24  25
ATOM     25  C   UNL     1      -6.844  -3.008  -5.411  0.00  0.00    +0.212 C 
ATOM     26  O   UNL     1      -6.399  -2.369  -6.340  0.00  0.00    -0.276 OA
ATOM     27  N   UNL     1      -8.090  -3.517  -5.477  0.00  0.00    -0.329 N 
ATOM     28  H   UNL     1      -8.446  -4.028  -4.733  0.00  0.00    +0.145 HD
ATOM     29  H   UNL     1      -8.632  -3.371  -6.269  0.00  0.00    +0.145 HD
ENDBRANCH  24  25
ENDBRANCH  10  24
BRANCH  14  30
ATOM     30  C   UNL     1      -1.535   0.895  -4.028  0.00  0.00    +0.121 C 
BRANCH  30  31
ATOM     31  C   UNL     1      -1.871   2.369  -3.789  0.00  0.00    +0.054 C 
BRANCH  31  32
ATOM     32  C   UNL     1      -0.691   3.222  -4.178  0.00  0.00    -0.046 A 
ATOM     33  C   UNL     1       0.280   3.526  -3.243  0.00  0.00    +0.004 A 
ATOM     34  C   UNL     1       1.363   4.309  -3.600  0.00  0.00    +0.000 A 
ATOM     35  C   UNL     1       1.473   4.787  -4.892  0.00  0.00    +0.000 A 
ATOM     36  C   UNL     1       0.502   4.483  -5.828  0.00  0.00    +0.000 A 
ATOM     37  C   UNL     1      -0.578   3.697  -5.472  0.00  0.00    +0.004 A 
ENDBRANCH  31  32
ENDBRANCH  30  31
ENDBRANCH  14  30
TORSDOF 6
