REMARK  Name = ZINC63515104
REMARK  9 active torsions:
REMARK  status: ('A' for Active; 'I' for Inactive)
REMARK    1  A    between atoms: C_1  and  C_2
REMARK    2  A    between atoms: C_2  and  C_4
REMARK    3  A    between atoms: C_6  and  N_18
REMARK    4  A    between atoms: N_9  and  C_11
REMARK    5  A    between atoms: N_18  and  C_19
REMARK    6  A    between atoms: C_19  and  C_20
REMARK    7  A    between atoms: C_20  and  C_21
REMARK    8  A    between atoms: C_24  and  O_30
REMARK    9  A    between atoms: O_30  and  C_31
REMARK                            x       y       z     vdW  Elec       q    Type
REMARK                         _______ _______ _______ _____ _____    ______ ____
ROOT
ATOM      1  C   UNL     1      -0.000  -0.750  -1.307  0.00  0.00    +0.172 C 
ATOM      2  C   UNL     1      -1.418  -0.767  -1.925  0.00  0.00    +0.166 C 
ATOM      3  N   UNL     1      -1.743  -2.216  -1.975  0.00  0.00    -0.207 NA
ATOM      4  N   UNL     1      -0.521  -2.854  -1.992  0.00  0.00    -0.199 N 
ATOM      5  N   UNL     1       0.291  -2.191  -1.091  0.00  0.00    -0.213 NA
ATOM      6  H   UNL     1      -2.284  -2.493  -1.170  0.00  0.00    +0.148 HD
ATOM      7  H   UNL     1       0.077  -2.465  -0.144  0.00  0.00    +0.147 HD
ENDROOT
BRANCH   4   8
ATOM      8  C   UNL     1      -0.168  -3.960  -2.772  0.00  0.00    +0.062 A 
ATOM      9  C   UNL     1      -1.093  -4.520  -3.644  0.00  0.00    +0.029 A 
ATOM     10  C   UNL     1      -0.742  -5.612  -4.413  0.00  0.00    +0.040 A 
ATOM     11  C   UNL     1       0.531  -6.148  -4.316  0.00  0.00    +0.124 A 
ATOM     12  C   UNL     1       1.455  -5.592  -3.447  0.00  0.00    +0.040 A 
ATOM     13  C   UNL     1       1.110  -4.497  -2.680  0.00  0.00    +0.029 A 
ATOM     14  F   UNL     1       0.872  -7.217  -5.069  0.00  0.00    -0.205 F 
ENDBRANCH   4   8
BRANCH   1  16
ATOM     15  C   UNL     1      -0.018   1.503   0.010  0.00  0.00    +0.088 C 
ATOM     16  C   UNL     1       0.002  -0.004   0.002  0.00  0.00    +0.152 C 
ATOM     17  O   UNL     1       0.020  -0.613   1.044  0.00  0.00    -0.296 OA
ENDBRANCH   1  16
BRANCH   2  18
ATOM     18  N   UNL     1      -2.368  -0.047  -1.066  0.00  0.00    -0.298 NA
ATOM     19  H   UNL     1      -2.922  -0.691  -0.521  0.00  0.00    +0.123 HD
BRANCH  18  20
ATOM     20  C   UNL     1      -3.225   0.843  -1.860  0.00  0.00    +0.087 C 
BRANCH  20  21
ATOM     21  C   UNL     1      -4.199   1.574  -0.933  0.00  0.00    +0.048 C 
BRANCH  21  22
ATOM     22  C   UNL     1      -5.078   2.487  -1.747  0.00  0.00    -0.040 C 
ATOM     23  C   UNL     1      -6.313   2.213  -2.225  0.00  0.00    +0.002 A 
ATOM     24  C   UNL     1      -7.175   1.030  -2.136  0.00  0.00    +0.055 A 
ATOM     25  C   UNL     1      -8.392   1.044  -2.730  0.00  0.00    +0.121 A 
ATOM     26  C   UNL     1      -8.868   2.162  -3.438  0.00  0.00    +0.047 A 
ATOM     27  C   UNL     1      -8.149   3.296  -3.575  0.00  0.00    +0.029 A 
ATOM     28  C   UNL     1      -6.816   3.390  -2.971  0.00  0.00    +0.043 A 
ATOM     29  N   UNL     1      -5.928   4.353  -2.954  0.00  0.00    -0.380 N 
ATOM     30  C   UNL     1      -4.761   3.898  -2.189  0.00  0.00    +0.144 C 
ATOM     31  H   UNL     1      -6.027   5.222  -3.373  0.00  0.00    +0.160 HD
BRANCH  25  32
ATOM     32  O   UNL     1      -9.180  -0.059  -2.640  0.00  0.00    -0.495 OA
ATOM     33  C   UNL     1     -10.456  -0.000  -3.281  0.00  0.00    +0.277 C 
ENDBRANCH  25  32
ENDBRANCH  21  22
ENDBRANCH  20  21
ENDBRANCH  18  20
ENDBRANCH   2  18
TORSDOF 7
