REMARK  Name = ZINC20705514
REMARK  7 active torsions:
REMARK  status: ('A' for Active; 'I' for Inactive)
REMARK    1  A    between atoms: C_1  and  C_2
REMARK    2  A    between atoms: C_2  and  C_3
REMARK    3  A    between atoms: C_3  and  C_5
REMARK    4  A    between atoms: C_3  and  N_6
REMARK    5  A    between atoms: C_7  and  C_9
REMARK    6  A    between atoms: C_16  and  C_25
REMARK    7  A    between atoms: C_29  and  N_31
REMARK                            x       y       z     vdW  Elec       q    Type
REMARK                         _______ _______ _______ _____ _____    ______ ____
ROOT
ATOM      1  C   UNL     1       0.974   3.646   0.026  0.00  0.00    +0.058 A 
ATOM      2  C   UNL     1      -0.291   4.234   0.042  0.00  0.00    +0.015 A 
ATOM      3  C   UNL     1      -1.414   3.435   0.044  0.00  0.00    +0.001 A 
ATOM      4  C   UNL     1      -1.288   2.058   0.035  0.00  0.00    +0.006 A 
ATOM      5  C   UNL     1      -0.039   1.455   0.013  0.00  0.00    -0.019 A 
ATOM      6  C   UNL     1       1.097   2.243   0.012  0.00  0.00    +0.044 A 
ATOM      7  N   UNL     1       2.375   1.700  -0.040  0.00  0.00    -0.336 N 
ATOM      8  C   UNL     1       2.397   0.379  -0.671  0.00  0.00    +0.105 C 
ATOM      9  C   UNL     1       1.461  -0.565   0.067  0.00  0.00    +0.029 C 
ATOM     10  C   UNL     1       0.008  -0.051  -0.004  0.00  0.00    +0.049 C 
ATOM     11  C   UNL     1      -0.602  -0.554   1.294  0.00  0.00    -0.023 C 
ATOM     12  C   UNL     1       0.333  -0.807   2.174  0.00  0.00    -0.030 C 
ATOM     13  C   UNL     1       1.703  -0.508   1.595  0.00  0.00    +0.033 C 
ATOM     14  H   UNL     1       3.309   2.148   0.330  0.00  0.00    +0.147 HD
ENDROOT
BRANCH   8  15
ATOM     15  C   UNL     1       1.952   0.504  -2.106  0.00  0.00    -0.025 A 
ATOM     16  C   UNL     1       1.299  -0.548  -2.721  0.00  0.00    +0.005 A 
ATOM     17  C   UNL     1       0.887  -0.432  -4.035  0.00  0.00    +0.003 A 
ATOM     18  C   UNL     1       1.137   0.732  -4.738  0.00  0.00    +0.033 A 
ATOM     19  C   UNL     1       1.794   1.782  -4.125  0.00  0.00    +0.127 A 
ATOM     20  C   UNL     1       2.202   1.667  -2.808  0.00  0.00    +0.038 A 
BRANCH  19  21
ATOM     21  N   UNL     1       2.062   3.028  -4.877  0.00  0.00    +0.056 N 
ATOM     22  O   UNL     1       2.642   3.953  -4.336  0.00  0.00    -0.126 OA
ATOM     23  O   UNL     1       1.703   3.129  -6.036  0.00  0.00    -0.126 OA
ENDBRANCH  19  21
ENDBRANCH   8  15
BRANCH   1  25
ATOM     24  N   UNL     1       2.063   5.835   0.037  0.00  0.00    -0.309 N 
ATOM     25  C   UNL     1       2.181   4.492   0.024  0.00  0.00    +0.246 C 
ATOM     26  O   UNL     1       3.283   3.979   0.010  0.00  0.00    -0.270 OA
ATOM     27  H   UNL     1       1.065   6.299   0.049  0.00  0.00    +0.149 HD
BRANCH  24  28
ATOM     28  C   UNL     1       3.262   6.676   0.035  0.00  0.00    +0.070 C 
ATOM     29  C   UNL     1       3.740   6.879  -1.405  0.00  0.00    +0.028 C 
BRANCH  28  31
ATOM     30  C   UNL     1       2.576   7.843   2.135  0.00  0.00    +0.005 C 
ATOM     31  C   UNL     1       2.934   8.034   0.659  0.00  0.00    +0.018 C 
ENDBRANCH  28  31
ENDBRANCH  24  28
ENDBRANCH   1  25
TORSDOF 5
