REMARK  Name = ZINC38889400
REMARK  4 active torsions:
REMARK  status: ('A' for Active; 'I' for Inactive)
REMARK    1  A    between atoms: C_4  and  C_23
REMARK    2  A    between atoms: C_5  and  C_7
REMARK    3  A    between atoms: N_8  and  N_9
REMARK    4  A    between atoms: C_10  and  C_16
REMARK                            x       y       z     vdW  Elec       q    Type
REMARK                         _______ _______ _______ _____ _____    ______ ____
ROOT
ATOM      1  N   UNL     1       2.706  -4.215  -0.008  0.00  0.00    -0.172 N 
ATOM      2  C   UNL     1       3.937  -5.028  -0.024  0.00  0.00    +0.264 C 
ATOM      3  N   UNL     1       3.445  -6.409  -0.147  0.00  0.00    -0.189 NA
ATOM      4  N   UNL     1       2.212  -6.375  -0.190  0.00  0.00    -0.219 N 
ATOM      5  C   UNL     1       1.704  -5.116  -0.108  0.00  0.00    +0.174 C 
ATOM      6  S   UNL     1       0.036  -4.729  -0.131  0.00  0.00    -0.015 S 
ATOM      7  H   UNL     1       1.660  -7.168  -0.271  0.00  0.00    +0.176 HD
ENDROOT
BRANCH   2   8
ATOM      8  C   UNL     1       4.705  -4.850   1.260  0.00  0.00    -0.002 A 
ATOM      9  C   UNL     1       4.550  -3.695   2.004  0.00  0.00    +0.009 A 
ATOM     10  C   UNL     1       5.254  -3.531   3.181  0.00  0.00    +0.020 A 
ATOM     11  C   UNL     1       6.116  -4.522   3.616  0.00  0.00    +0.041 A 
ATOM     12  C   UNL     1       6.271  -5.678   2.871  0.00  0.00    +0.020 A 
ATOM     13  C   UNL     1       5.562  -5.843   1.696  0.00  0.00    +0.009 A 
ATOM     14 CL   UNL     1       7.002  -4.316   5.094  0.00  0.00    -0.084 Cl
ENDBRANCH   2   8
BRANCH   1  16
ATOM     15  C   UNL     1       1.439  -2.249  -0.018  0.00  0.00    +0.139 C 
ATOM     16  N   UNL     1       2.600  -2.822   0.095  0.00  0.00    -0.183 NA
BRANCH  15  21
ATOM     17  C   UNL     1       2.400   1.377  -0.028  0.00  0.00    +0.001 A 
ATOM     18  C   UNL     1       1.158   1.994  -0.034  0.00  0.00    +0.001 A 
ATOM     19  C   UNL     1       0.003   1.242  -0.034  0.00  0.00    +0.016 A 
ATOM     20  C   UNL     1       0.077  -0.153  -0.029  0.00  0.00    +0.072 A 
ATOM     21  C   UNL     1       1.341  -0.781  -0.024  0.00  0.00    +0.009 A 
ATOM     22  C   UNL     1       2.498   0.001  -0.023  0.00  0.00    +0.010 A 
BRANCH  20  23
ATOM     23  C   UNL     1      -1.153  -0.961  -0.029  0.00  0.00    +0.387 C 
ATOM     24  O   UNL     1      -2.243  -0.415   0.071  0.00  0.00    -0.241 OA
ATOM     25  O   UNL     1      -1.085  -2.178  -0.128  0.00  0.00    -0.241 OA
ENDBRANCH  20  23
ENDBRANCH  15  21
ENDBRANCH   1  16
TORSDOF 4
