REMARK  Name = ZINC65819359
REMARK  5 active torsions:
REMARK  status: ('A' for Active; 'I' for Inactive)
REMARK    1  A    between atoms: C_1  and  C_2
REMARK    2  A    between atoms: C_2  and  C_3
REMARK    3  A    between atoms: C_2  and  N_4
REMARK    4  A    between atoms: C_5  and  N_9
REMARK    5  A    between atoms: C_15  and  C_18
REMARK                            x       y       z     vdW  Elec       q    Type
REMARK                         _______ _______ _______ _____ _____    ______ ____
ROOT
ATOM      1  N   UNL     1      -1.318  -1.773  -2.088  0.00  0.00    -0.254 N 
ATOM      2  C   UNL     1      -2.002  -2.554  -2.946  0.00  0.00    +0.308 C 
ATOM      3  O   UNL     1      -3.128  -2.921  -2.670  0.00  0.00    -0.252 OA
ATOM      4  N   UNL     1      -1.438  -2.930  -4.111  0.00  0.00    -0.285 N 
ATOM      5  C   UNL     1      -0.039  -2.593  -4.409  0.00  0.00    +0.110 C 
ATOM      6  C   UNL     1       0.018  -1.874  -5.760  0.00  0.00    +0.027 C 
ATOM      7  C   UNL     1      -0.660  -2.741  -6.824  0.00  0.00    +0.024 C 
ATOM      8  C   UNL     1      -2.129  -2.953  -6.452  0.00  0.00    +0.027 C 
ATOM      9  C   UNL     1      -2.209  -3.689  -5.106  0.00  0.00    +0.110 C 
ATOM     10  H   UNL     1      -0.394  -1.542  -2.272  0.00  0.00    +0.158 HD
ENDROOT
BRANCH   7  11
ATOM     11  C   UNL     1      -0.575  -2.052  -8.162  0.00  0.00    -0.018 A 
ATOM     12  C   UNL     1      -1.074  -0.845  -8.473  0.00  0.00    +0.089 A 
ATOM     13  N   UNL     1      -0.802  -0.551  -9.782  0.00  0.00    -0.346 N 
ATOM     14  H   UNL     1      -1.063   0.266 -10.234  0.00  0.00    +0.167 HD
ATOM     15  C   UNL     1      -0.106  -1.585 -10.362  0.00  0.00    +0.138 A 
ATOM     16  C   UNL     1       0.072  -2.568  -9.369  0.00  0.00    +0.022 A 
ATOM     17  C   UNL     1       0.761  -3.742  -9.681  0.00  0.00    +0.013 A 
ATOM     18  C   UNL     1       1.247  -3.888 -10.967  0.00  0.00    +0.020 A 
ATOM     19  C   UNL     1       1.038  -2.878 -11.893  0.00  0.00    +0.113 A 
ATOM     20  N   UNL     1       0.379  -1.782 -11.580  0.00  0.00    -0.237 NA
ENDBRANCH   7  11
BRANCH   1  22
ATOM     21  N   UNL     1      -1.375  -0.506   0.009  0.00  0.00    -0.248 N 
ATOM     22  C   UNL     1      -1.939  -1.294  -0.933  0.00  0.00    +0.125 A 
ATOM     23  C   UNL     1      -3.223  -1.537  -0.552  0.00  0.00    +0.065 A 
ATOM     24  C   UNL     1      -3.441  -0.874   0.659  0.00  0.00    +0.136 A 
ATOM     25  N   UNL     1      -2.336  -0.261   0.998  0.00  0.00    -0.178 NA
BRANCH  21  27
ATOM     26  C   UNL     1      -0.017   1.529   0.005  0.00  0.00    +0.032 C 
ATOM     27  C   UNL     1       0.001  -0.001   0.000  0.00  0.00    +0.103 C 
ATOM     28  C   UNL     1       0.737  -0.506   1.242  0.00  0.00    +0.032 C 
ENDBRANCH  21  27
ENDBRANCH   1  22
TORSDOF 3
