REMARK  Name = ZINC04047169
REMARK  7 active torsions:
REMARK  status: ('A' for Active; 'I' for Inactive)
REMARK    1  A    between atoms: C_1  and  O_2
REMARK    2  A    between atoms: O_2  and  C_3
REMARK    3  A    between atoms: C_6  and  C_9
REMARK    4  A    between atoms: C_14  and  C_24
REMARK    5  A    between atoms: C_29  and  O_30
REMARK    6  A    between atoms: O_30  and  C_31
REMARK    7  A    between atoms: C_31  and  C_32
REMARK                            x       y       z     vdW  Elec       q    Type
REMARK                         _______ _______ _______ _____ _____    ______ ____
ROOT
ATOM      1  C   UNL     1      -5.309  -0.184  -1.444  0.00  0.00    +0.032 C 
ATOM      2  C   UNL     1      -3.837  -0.260  -1.041  0.00  0.00    +0.059 C 
ATOM      3  C   UNL     1      -3.309   1.134  -0.743  0.00  0.00    +0.017 C 
ATOM      4  C   UNL     1      -3.785   2.200  -1.408  0.00  0.00    +0.037 C 
ATOM      5  C   UNL     1      -3.336   3.630  -1.229  0.00  0.00    +0.139 C 
ATOM      6  N   UNL     1      -2.499   3.855  -0.069  0.00  0.00    -0.331 N 
ATOM      7  C   UNL     1      -1.238   3.271   0.034  0.00  0.00    +0.049 A 
ATOM      8  C   UNL     1      -0.082   4.035   0.033  0.00  0.00    +0.025 A 
ATOM      9  C   UNL     1       1.150   3.406   0.079  0.00  0.00    +0.002 A 
ATOM     10  C   UNL     1       1.230   2.026   0.115  0.00  0.00    +0.002 A 
ATOM     11  C   UNL     1       0.077   1.260   0.125  0.00  0.00    +0.025 A 
ATOM     12  C   UNL     1      -1.156   1.888   0.099  0.00  0.00    +0.052 A 
ATOM     13  N   UNL     1      -2.349   1.184   0.214  0.00  0.00    -0.316 N 
ATOM     14  C   UNL     1      -4.804   2.038  -2.377  0.00  0.00    +0.163 C 
ATOM     15  O   UNL     1      -5.204   3.017  -2.975  0.00  0.00    -0.292 OA
ATOM     16  C   UNL     1      -5.406   0.701  -2.692  0.00  0.00    +0.088 C 
ATOM     17  H   UNL     1      -2.822   4.422   0.649  0.00  0.00    +0.147 HD
ATOM     18  H   UNL     1      -2.506   0.693   1.036  0.00  0.00    +0.152 HD
ENDROOT
BRANCH   1  22
ATOM     19  C   UNL     1      -6.772  -4.101  -2.325  0.00  0.00    +0.120 A 
ATOM     20  C   UNL     1      -7.353  -3.354  -1.311  0.00  0.00    +0.046 A 
ATOM     21  C   UNL     1      -6.878  -2.088  -1.028  0.00  0.00    +0.007 A 
ATOM     22  C   UNL     1      -5.825  -1.565  -1.754  0.00  0.00    -0.043 A 
ATOM     23  C   UNL     1      -5.247  -2.306  -2.769  0.00  0.00    +0.007 A 
ATOM     24  C   UNL     1      -5.715  -3.575  -3.053  0.00  0.00    +0.046 A 
BRANCH  19  26
ATOM     25  C   UNL     1      -6.590  -6.059  -3.662  0.00  0.00    +0.277 C 
ATOM     26  O   UNL     1      -7.237  -5.347  -2.605  0.00  0.00    -0.495 OA
ENDBRANCH  19  26
ENDBRANCH   1  22
BRANCH   5  27
ATOM     27  C   UNL     1      -2.569   4.044  -2.458  0.00  0.00    +0.019 A 
ATOM     28  C   UNL     1      -2.002   3.084  -3.275  0.00  0.00    +0.009 A 
ATOM     29  C   UNL     1      -1.299   3.463  -4.404  0.00  0.00    +0.001 A 
ATOM     30  C   UNL     1      -1.161   4.803  -4.718  0.00  0.00    +0.004 A 
ATOM     31  C   UNL     1      -1.726   5.766  -3.905  0.00  0.00    +0.046 A 
ATOM     32  C   UNL     1      -2.437   5.388  -2.774  0.00  0.00    +0.126 A 
BRANCH  32  33
ATOM     33  O   UNL     1      -2.998   6.333  -1.976  0.00  0.00    -0.487 OA
BRANCH  33  34
ATOM     34  C   UNL     1      -2.822   7.698  -2.362  0.00  0.00    +0.264 C 
BRANCH  34  35
ATOM     35  C   UNL     1      -3.508   8.595  -1.365  0.00  0.00    -0.010 A 
ATOM     36  C   UNL     1      -4.828   8.959  -1.557  0.00  0.00    +0.007 A 
ATOM     37  C   UNL     1      -5.459   9.778  -0.639  0.00  0.00    +0.000 A 
ATOM     38  C   UNL     1      -4.768  10.242   0.464  0.00  0.00    +0.000 A 
ATOM     39  C   UNL     1      -3.446   9.883   0.652  0.00  0.00    +0.000 A 
ATOM     40  C   UNL     1      -2.816   9.060  -0.262  0.00  0.00    +0.007 A 
ENDBRANCH  34  35
ENDBRANCH  33  34
ENDBRANCH  32  33
ENDBRANCH   5  27
TORSDOF 6
