REMARK  Name = ZINC07900065
REMARK  5 active torsions:
REMARK  status: ('A' for Active; 'I' for Inactive)
REMARK    1  A    between atoms: C_1  and  C_2
REMARK    2  A    between atoms: C_4  and  C_14
REMARK    3  A    between atoms: C_5  and  C_13
REMARK    4  A    between atoms: C_9  and  C_12
REMARK    5  A    between atoms: N_15  and  N_16
REMARK                            x       y       z     vdW  Elec       q    Type
REMARK                         _______ _______ _______ _____ _____    ______ ____
ROOT
ATOM      1  C   UNL     1      -0.008  -3.383  -1.467  0.00  0.00    +0.140 C 
ATOM      2  N   UNL     1       0.122  -4.552  -0.918  0.00  0.00    -0.188 NA
ENDROOT
BRANCH   1   6
ATOM      3  C   UNL     1      -0.141   1.498   0.023  0.00  0.00    +0.064 C 
ATOM      4  C   UNL     1      -0.052  -0.006   0.008  0.00  0.00    +0.023 A 
ATOM      5  C   UNL     1      -0.123  -0.783  -1.088  0.00  0.00    +0.032 A 
ATOM      6  C   UNL     1       0.010  -2.169  -0.630  0.00  0.00    +0.016 A 
ATOM      7  C   UNL     1       0.152  -2.112   0.726  0.00  0.00    +0.031 A 
ATOM      8  N   UNL     1       0.120  -0.803   1.104  0.00  0.00    -0.299 N 
ATOM      9  C   UNL     1       0.241  -0.344   2.419  0.00  0.00    +0.181 A 
ATOM     10  C   UNL     1       1.221  -0.748   3.353  0.00  0.00    +0.094 A 
ATOM     11  C   UNL     1       1.002  -0.081   4.501  0.00  0.00    +0.136 A 
ATOM     12  O   UNL     1      -0.063   0.716   4.326  0.00  0.00    -0.358 OA
ATOM     13  N   UNL     1      -0.529   0.539   3.000  0.00  0.00    -0.060 NA
ATOM     14  C   UNL     1       1.813  -0.208   5.765  0.00  0.00    +0.089 C 
ATOM     15  C   UNL     1       0.323  -3.293   1.647  0.00  0.00    +0.064 C 
ENDBRANCH   1   6
BRANCH   2  16
ATOM     16  N   UNL     1       0.105  -5.705  -1.713  0.00  0.00    -0.207 N 
ATOM     17  C   UNL     1       0.242  -6.947  -1.130  0.00  0.00    +0.214 A 
ATOM     18  N   UNL     1       0.246  -8.135  -1.804  0.00  0.00    -0.325 N 
ATOM     19  H   UNL     1       0.155  -8.253  -2.763  0.00  0.00    +0.169 HD
ATOM     20  C   UNL     1       0.406  -9.140  -0.864  0.00  0.00    +0.067 A 
ATOM     21  C   UNL     1       0.483 -10.522  -0.938  0.00  0.00    +0.028 A 
ATOM     22  C   UNL     1       0.648 -11.264   0.213  0.00  0.00    +0.002 A 
ATOM     23  C   UNL     1       0.736 -10.636   1.447  0.00  0.00    +0.002 A 
ATOM     24  C   UNL     1       0.661  -9.264   1.540  0.00  0.00    +0.030 A 
ATOM     25  C   UNL     1       0.495  -8.498   0.383  0.00  0.00    +0.091 A 
ATOM     26  N   UNL     1       0.394  -7.163   0.154  0.00  0.00    -0.213 NA
ATOM     27  H   UNL     1      -0.003  -5.630  -2.674  0.00  0.00    +0.177 HD
ENDBRANCH   2  16
TORSDOF 2
