REMARK  Name = ZINC14543628
REMARK  9 active torsions:
REMARK  status: ('A' for Active; 'I' for Inactive)
REMARK    1  A    between atoms: C_1  and  C_2
REMARK    2  A    between atoms: C_2  and  C_3
REMARK    3  A    between atoms: C_3  and  C_4
REMARK    4  A    between atoms: C_4  and  N_5
REMARK    5  A    between atoms: C_6  and  C_8
REMARK    6  A    between atoms: C_15  and  C_24
REMARK    7  A    between atoms: C_27  and  O_30
REMARK    8  A    between atoms: O_30  and  C_31
REMARK    9  A    between atoms: C_31  and  C_32
REMARK                            x       y       z     vdW  Elec       q    Type
REMARK                         _______ _______ _______ _____ _____    ______ ____
ROOT
ATOM      1  C   UNL     1      -0.912   1.708   3.644  0.00  0.00    +0.058 A 
ATOM      2  C   UNL     1      -2.053   2.499   3.526  0.00  0.00    +0.015 A 
ATOM      3  C   UNL     1      -2.707   2.941   4.655  0.00  0.00    +0.001 A 
ATOM      4  C   UNL     1      -2.216   2.614   5.909  0.00  0.00    +0.006 A 
ATOM      5  C   UNL     1      -1.080   1.846   6.044  0.00  0.00    -0.019 A 
ATOM      6  C   UNL     1      -0.409   1.364   4.916  0.00  0.00    +0.044 A 
ATOM      7  N   UNL     1       0.709   0.550   4.965  0.00  0.00    -0.336 N 
ATOM      8  C   UNL     1       1.284   0.286   6.294  0.00  0.00    +0.105 C 
ATOM      9  C   UNL     1       0.125   0.102   7.252  0.00  0.00    +0.029 C 
ATOM     10  C   UNL     1      -0.516   1.519   7.372  0.00  0.00    +0.049 C 
ATOM     11  C   UNL     1      -1.351   1.389   8.591  0.00  0.00    -0.023 C 
ATOM     12  C   UNL     1      -0.791   0.487   9.391  0.00  0.00    -0.030 C 
ATOM     13  C   UNL     1       0.466  -0.087   8.731  0.00  0.00    +0.033 C 
ATOM     14  H   UNL     1       0.552  -0.310   4.461  0.00  0.00    +0.147 HD
ENDROOT
BRANCH   8  15
ATOM     15  C   UNL     1       2.121  -0.966   6.254  0.00  0.00    -0.027 A 
ATOM     16  C   UNL     1       1.711  -2.047   5.495  0.00  0.00    +0.009 A 
ATOM     17  C   UNL     1       2.480  -3.194   5.452  0.00  0.00    +0.046 A 
ATOM     18  C   UNL     1       3.659  -3.265   6.181  0.00  0.00    +0.121 A 
ATOM     19  C   UNL     1       4.065  -2.181   6.945  0.00  0.00    +0.046 A 
ATOM     20  C   UNL     1       3.296  -1.034   6.980  0.00  0.00    +0.009 A 
BRANCH  18  21
ATOM     21  O   UNL     1       4.414  -4.394   6.145  0.00  0.00    -0.492 OA
BRANCH  21  22
ATOM     22  C   UNL     1       3.934  -5.470   5.337  0.00  0.00    +0.225 C 
ATOM     23  C   UNL     1       4.909  -6.646   5.422  0.00  0.00    +0.048 C 
ENDBRANCH  21  22
ENDBRANCH  18  21
ENDBRANCH   8  15
BRANCH   1  25
ATOM     24  N   UNL     1      -0.698   1.558   1.213  0.00  0.00    -0.311 N 
ATOM     25  C   UNL     1      -0.222   1.232   2.431  0.00  0.00    +0.246 C 
ATOM     26  O   UNL     1       0.777   0.546   2.530  0.00  0.00    -0.270 OA
ATOM     27  H   UNL     1      -1.495   2.106   1.135  0.00  0.00    +0.149 HD
BRANCH  24  28
ATOM     28  C   UNL     1      -0.013   1.086   0.008  0.00  0.00    +0.104 C 
BRANCH  28  29
ATOM     29  C   UNL     1      -0.753   1.593  -1.232  0.00  0.00    +0.018 C 
BRANCH  29  31
ATOM     30  C   UNL     1      -0.777   1.606  -3.730  0.00  0.00    +0.004 C 
ATOM     31  C   UNL     1      -0.037   1.099  -2.490  0.00  0.00    -0.002 C 
ENDBRANCH  29  31
ENDBRANCH  28  29
ENDBRANCH  24  28
ENDBRANCH   1  25
TORSDOF 7
