REMARK  Name = ZINC39893289
REMARK  6 active torsions:
REMARK  status: ('A' for Active; 'I' for Inactive)
REMARK    1  A    between atoms: C_1  and  C_2
REMARK    2  A    between atoms: C_2  and  C_3
REMARK    3  A    between atoms: C_9  and  C_12
REMARK    4  A    between atoms: C_12  and  C_13
REMARK    5  A    between atoms: N_15  and  N_16
REMARK    6  A    between atoms: C_17  and  C_19
REMARK                            x       y       z     vdW  Elec       q    Type
REMARK                         _______ _______ _______ _____ _____    ______ ____
ROOT
ATOM      1  C   UNL     1      -1.811  -2.804   5.103  0.00  0.00    +0.234 C 
ATOM      2  O   UNL     1      -1.251  -3.669   4.463  0.00  0.00    -0.274 OA
ATOM      3  N   UNL     1      -3.081  -2.987   5.514  0.00  0.00    -0.234 N 
ATOM      4  H   UNL     1      -3.530  -2.296   6.026  0.00  0.00    +0.173 HD
ENDROOT
BRANCH   3   5
ATOM      5  N   UNL     1      -3.755  -4.176   5.203  0.00  0.00    -0.230 N 
ATOM      6  C   UNL     1      -5.025  -4.359   5.614  0.00  0.00    +0.262 C 
ATOM      7  O   UNL     1      -5.587  -3.492   6.256  0.00  0.00    -0.269 OA
ATOM      8  H   UNL     1      -3.306  -4.867   4.691  0.00  0.00    +0.173 HD
BRANCH   6   9
ATOM      9  C   UNL     1      -5.735  -5.612   5.285  0.00  0.00    +0.057 A 
ATOM     10  C   UNL     1      -5.090  -6.611   4.553  0.00  0.00    +0.016 A 
ATOM     11  C   UNL     1      -5.757  -7.779   4.250  0.00  0.00    +0.021 A 
ATOM     12  C   UNL     1      -7.065  -7.962   4.669  0.00  0.00    +0.042 A 
ATOM     13  C   UNL     1      -7.711  -6.976   5.394  0.00  0.00    +0.040 A 
ATOM     14  C   UNL     1      -7.052  -5.804   5.710  0.00  0.00    +0.054 A 
ATOM     15 CL   UNL     1      -7.859  -4.571   6.627  0.00  0.00    -0.083 Cl
ATOM     16 CL   UNL     1      -7.898  -9.435   4.282  0.00  0.00    -0.083 Cl
ENDBRANCH   6   9
ENDBRANCH   3   5
BRANCH   1  17
ATOM     17  C   UNL     1      -1.087  -1.526   5.438  0.00  0.00    +0.136 C 
BRANCH  17  24
ATOM     18  C   UNL     1       0.731  -0.503   1.223  0.00  0.00    -0.047 A 
ATOM     19  C   UNL     1       2.102  -0.709   1.171  0.00  0.00    +0.007 A 
ATOM     20  C   UNL     1       2.787  -1.165   2.277  0.00  0.00    +0.047 A 
ATOM     21  C   UNL     1       2.101  -1.423   3.457  0.00  0.00    +0.135 A 
ATOM     22  C   UNL     1       0.713  -1.213   3.503  0.00  0.00    +0.024 A 
ATOM     23  C   UNL     1       0.038  -0.746   2.376  0.00  0.00    +0.015 A 
ATOM     24  C   UNL     1       0.307  -1.573   4.867  0.00  0.00    +0.007 A 
ATOM     25  C   UNL     1       1.424  -1.952   5.501  0.00  0.00    +0.200 A 
ATOM     26  O   UNL     1       2.480  -1.865   4.673  0.00  0.00    -0.463 OA
BRANCH  18  28
ATOM     27  C   UNL     1      -0.019   1.526   0.010  0.00  0.00    +0.009 C 
ATOM     28  C   UNL     1       0.002  -0.004   0.002  0.00  0.00    +0.032 C 
ENDBRANCH  18  28
ENDBRANCH  17  24
ENDBRANCH   1  17
TORSDOF 5
