REMARK  Name = ZINC37442152
REMARK  3 active torsions:
REMARK  status: ('A' for Active; 'I' for Inactive)
REMARK    1  A    between atoms: C_3  and  O_21
REMARK    2  A    between atoms: C_6  and  C_7
REMARK    3  A    between atoms: N_15  and  C_16
REMARK                            x       y       z     vdW  Elec       q    Type
REMARK                         _______ _______ _______ _____ _____    ______ ____
ROOT
ATOM      1  C   UNL     1      -1.273  -0.753  -0.018  0.00  0.00    +0.142 A 
ATOM      2  N   UNL     1      -2.432  -0.279   0.367  0.00  0.00    -0.227 NA
ATOM      3  C   UNL     1      -3.373  -1.251   0.284  0.00  0.00    +0.091 A 
ATOM      4  C   UNL     1      -4.743  -1.288   0.566  0.00  0.00    +0.045 A 
ATOM      5  C   UNL     1      -5.447  -2.455   0.376  0.00  0.00    +0.020 A 
ATOM      6  C   UNL     1      -4.809  -3.596  -0.092  0.00  0.00    +0.017 A 
ATOM      7  C   UNL     1      -3.460  -3.577  -0.373  0.00  0.00    +0.029 A 
ATOM      8  C   UNL     1      -2.732  -2.409  -0.189  0.00  0.00    +0.069 A 
ATOM      9  N   UNL     1      -1.407  -2.067  -0.378  0.00  0.00    -0.320 N 
ATOM     10 BR   UNL     1      -7.299  -2.505   0.757  0.00  0.00    -0.050 Br
ENDROOT
BRANCH   1  16
ATOM     11  C   UNL     1      -0.043   1.412  -0.055  0.00  0.00    +0.015 A 
ATOM     12  C   UNL     1       1.135   2.126  -0.097  0.00  0.00    +0.047 A 
ATOM     13  C   UNL     1       2.352   1.460  -0.149  0.00  0.00    +0.135 A 
ATOM     14  C   UNL     1       2.388   0.070  -0.158  0.00  0.00    +0.083 A 
ATOM     15  C   UNL     1       1.214  -0.651  -0.116  0.00  0.00    +0.035 A 
ATOM     16  C   UNL     1      -0.012   0.016  -0.064  0.00  0.00    +0.019 A 
ATOM     17 CL   UNL     1       3.913  -0.757  -0.223  0.00  0.00    -0.080 Cl
BRANCH  13  18
ATOM     18  O   UNL     1       3.511   2.168  -0.191  0.00  0.00    -0.505 OA
ATOM     19  H   UNL     1       3.881   2.368   0.679  0.00  0.00    +0.292 HD
ENDBRANCH  13  18
ENDBRANCH   1  16
BRANCH   9  20
ATOM     20  C   UNL     1      -0.343  -2.947  -0.868  0.00  0.00    +0.089 C 
ATOM     21  C   UNL     1       0.139  -2.741  -2.306  0.00  0.00    +0.027 C 
ATOM     22  C   UNL     1      -0.710  -3.964  -1.951  0.00  0.00    +0.027 C 
ENDBRANCH   9  20
TORSDOF 3
