REMARK  Name = ZINC24075479
REMARK  10 active torsions:
REMARK  status: ('A' for Active; 'I' for Inactive)
REMARK    1  A    between atoms: C_1  and  O_2
REMARK    2  A    between atoms: O_2  and  C_3
REMARK    3  A    between atoms: C_6  and  N_11
REMARK    4  A    between atoms: C_8  and  O_9
REMARK    5  A    between atoms: O_9  and  C_10
REMARK    6  A    between atoms: C_21  and  N_22
REMARK    7  A    between atoms: N_22  and  C_23
REMARK    8  A    between atoms: C_23  and  C_24
REMARK    9  A    between atoms: C_24  and  C_26
REMARK   10  A    between atoms: C_24  and  N_31
REMARK                            x       y       z     vdW  Elec       q    Type
REMARK                         _______ _______ _______ _____ _____    ______ ____
ROOT
ATOM      1  N   UNL     1       2.286  -2.480   4.409  0.00  0.00    -0.202 N 
ATOM      2  C   UNL     1       2.196  -3.816   4.519  0.00  0.00    +0.258 C 
ATOM      3  O   UNL     1       1.544  -4.440   3.703  0.00  0.00    -0.269 OA
ATOM      4  C   UNL     1       2.872  -4.535   5.606  0.00  0.00    +0.046 A 
ATOM      5  C   UNL     1       2.783  -5.923   5.725  0.00  0.00    +0.014 A 
ATOM      6  C   UNL     1       3.432  -6.561   6.759  0.00  0.00    +0.001 A 
ATOM      7  C   UNL     1       4.173  -5.840   7.684  0.00  0.00    +0.001 A 
ATOM      8  C   UNL     1       4.273  -4.467   7.585  0.00  0.00    +0.009 A 
ATOM      9  C   UNL     1       3.626  -3.805   6.548  0.00  0.00    +0.000 A 
ATOM     10  C   UNL     1       3.701  -2.338   6.395  0.00  0.00    +0.059 C 
ATOM     11  C   UNL     1       4.422  -1.568   7.282  0.00  0.00    +0.081 C 
ATOM     12  C   UNL     1       2.991  -1.725   5.267  0.00  0.00    +0.259 C 
ATOM     13  O   UNL     1       3.038  -0.518   5.109  0.00  0.00    -0.269 OA
ENDROOT
BRANCH   1  17
ATOM     14  C   UNL     1       0.305  -0.602   1.252  0.00  0.00    +0.162 A 
ATOM     15  C   UNL     1       1.359  -1.463   0.995  0.00  0.00    +0.051 A 
ATOM     16  C   UNL     1       2.015  -2.085   2.041  0.00  0.00    +0.028 A 
ATOM     17  C   UNL     1       1.620  -1.848   3.350  0.00  0.00    +0.048 A 
ATOM     18  C   UNL     1       0.564  -0.985   3.611  0.00  0.00    +0.073 A 
ATOM     19  C   UNL     1      -0.091  -0.358   2.564  0.00  0.00    +0.163 A 
BRANCH  14  21
ATOM     20  C   UNL     1       0.119  -0.287  -1.098  0.00  0.00    +0.277 C 
ATOM     21  O   UNL     1      -0.340   0.010   0.222  0.00  0.00    -0.491 OA
ENDBRANCH  14  21
BRANCH  19  22
ATOM     22  O   UNL     1      -1.122   0.491   2.817  0.00  0.00    -0.491 OA
ATOM     23  C   UNL     1      -1.474   0.695   4.187  0.00  0.00    +0.277 C 
ENDBRANCH  19  22
ENDBRANCH   1  17
BRANCH  11  24
ATOM     24  N   UNL     1       4.359  -0.213   7.212  0.00  0.00    -0.350 N 
ATOM     25  H   UNL     1       3.745   0.213   6.593  0.00  0.00    +0.145 HD
BRANCH  24  26
ATOM     26  C   UNL     1       5.219   0.605   8.071  0.00  0.00    +0.093 C 
BRANCH  26  27
ATOM     27  C   UNL     1       5.043   2.082   7.710  0.00  0.00    +0.016 C 
BRANCH  27  28
ATOM     28  N   UNL     1       6.000   2.890   8.477  0.00  0.00    +0.387 N 
ATOM     29  C   UNL     1       7.386   2.615   8.020  0.00  0.00    -0.078 C 
ATOM     30  C   UNL     1       8.166   3.875   8.471  0.00  0.00    -0.020 C 
ATOM     31  C   UNL     1       7.149   5.015   8.230  0.00  0.00    -0.020 C 
ATOM     32  C   UNL     1       5.770   4.329   8.223  0.00  0.00    -0.078 C 
ATOM     33  H   UNL     1       5.912   2.693   9.463  0.00  0.00    -0.081 HD
ENDBRANCH  27  28
BRANCH  27  34
ATOM     34  C   UNL     1       3.639   2.516   8.043  0.00  0.00    +0.093 A 
ATOM     35  C   UNL     1       2.623   2.633   7.168  0.00  0.00    +0.043 A 
ATOM     36  C   UNL     1       1.496   3.064   7.904  0.00  0.00    +0.041 A 
ATOM     37  C   UNL     1       1.890   3.185   9.185  0.00  0.00    +0.195 A 
ATOM     38  O   UNL     1       3.187   2.846   9.264  0.00  0.00    -0.469 OA
ENDBRANCH  27  34
ENDBRANCH  26  27
ENDBRANCH  24  26
ENDBRANCH  11  24
TORSDOF 8
