REMARK  Name = ZINC09693387
REMARK  3 active torsions:
REMARK  status: ('A' for Active; 'I' for Inactive)
REMARK    1  A    between atoms: C_3  and  C_6
REMARK    2  A    between atoms: N_13  and  C_20
REMARK    3  A    between atoms: C_17  and  C_18
REMARK                            x       y       z     vdW  Elec       q    Type
REMARK                         _______ _______ _______ _____ _____    ______ ____
ROOT
ATOM      1  C   UNL     1      -1.189   3.215   0.852  0.00  0.00    +0.077 C 
ATOM      2  C   UNL     1      -1.333   1.934   0.019  0.00  0.00    +0.110 C 
ATOM      3  C   UNL     1      -0.014   1.208   0.009  0.00  0.00    +0.222 C 
ATOM      4  O   UNL     1       0.002  -0.004   0.002  0.00  0.00    -0.275 OA
ATOM      5  N   UNL     1       1.153   1.893   0.001  0.00  0.00    -0.248 N 
ATOM      6  C   UNL     1       2.389   1.115   0.067  0.00  0.00    +0.222 C 
ATOM      7  N   UNL     1       3.455   1.689  -0.749  0.00  0.00    -0.304 N 
ATOM      8  C   UNL     1       3.854   3.010  -0.235  0.00  0.00    +0.182 C 
ATOM      9  S   UNL     1       2.529   4.184  -0.619  0.00  0.00    -0.090 S 
ATOM     10  C   UNL     1       1.141   3.269  -0.026  0.00  0.00    +0.087 C 
ATOM     11  C   UNL     1       0.035   3.958   0.384  0.00  0.00    +0.066 C 
ENDROOT
BRANCH   7  12
ATOM     12  C   UNL     1       4.552   0.826  -0.818  0.00  0.00    +0.032 A 
ATOM     13  C   UNL     1       4.521  -0.394  -0.155  0.00  0.00    +0.024 A 
ATOM     14  C   UNL     1       5.605  -1.246  -0.230  0.00  0.00    +0.017 A 
ATOM     15  C   UNL     1       6.725  -0.882  -0.955  0.00  0.00    +0.018 A 
ATOM     16  C   UNL     1       6.761   0.335  -1.612  0.00  0.00    +0.017 A 
ATOM     17  C   UNL     1       5.678   1.190  -1.546  0.00  0.00    +0.024 A 
ATOM     18 BR   UNL     1       8.210  -2.049  -1.049  0.00  0.00    -0.050 Br
ENDBRANCH   7  12
BRANCH   1  21
ATOM     19  C   UNL     1      -1.485   2.775   4.625  0.00  0.00    +0.008 A 
ATOM     20  C   UNL     1      -1.815   3.225   3.360  0.00  0.00    +0.012 A 
ATOM     21  C   UNL     1      -1.039   2.862   2.310  0.00  0.00    -0.002 A 
ATOM     22  S   UNL     1       0.210   1.863   3.102  0.00  0.00    -0.101 S 
ATOM     23  C   UNL     1      -0.390   1.991   4.778  0.00  0.00    +0.045 A 
ENDBRANCH   1  21
BRANCH  11  24
ATOM     24  C   UNL     1       0.040   5.390   0.368  0.00  0.00    +0.098 C 
ATOM     25  N   UNL     1       0.043   6.526   0.355  0.00  0.00    -0.191 NA
ENDBRANCH  11  24
TORSDOF 3
