REMARK  Name = ZINC23361557
REMARK  9 active torsions:
REMARK  status: ('A' for Active; 'I' for Inactive)
REMARK    1  A    between atoms: C_1  and  C_2
REMARK    2  A    between atoms: C_2  and  C_3
REMARK    3  A    between atoms: C_3  and  C_4
REMARK    4  A    between atoms: C_4  and  N_5
REMARK    5  A    between atoms: C_16  and  N_20
REMARK    6  A    between atoms: N_20  and  C_21
REMARK    7  A    between atoms: C_21  and  C_22
REMARK    8  A    between atoms: C_22  and  N_28
REMARK    9  A    between atoms: N_31  and  C_34
REMARK                            x       y       z     vdW  Elec       q    Type
REMARK                         _______ _______ _______ _____ _____    ______ ____
ROOT
ATOM      1  N   UNL     1      -0.814  -2.901   2.196  0.00  0.00    -0.299 N 
ATOM      2  C   UNL     1       0.493  -3.002   1.842  0.00  0.00    +0.203 A 
ATOM      3  N   UNL     1       1.409  -3.317   2.719  0.00  0.00    -0.230 NA
ATOM      4  C   UNL     1       1.088  -3.549   3.989  0.00  0.00    +0.116 A 
ATOM      5  C   UNL     1      -0.235  -3.468   4.449  0.00  0.00    +0.076 A 
ATOM      6  C   UNL     1      -1.215  -3.116   3.463  0.00  0.00    +0.262 A 
ATOM      7  O   UNL     1      -2.391  -3.017   3.766  0.00  0.00    -0.267 OA
ATOM      8  C   UNL     1      -0.437  -3.748   5.870  0.00  0.00    -0.023 A 
ATOM      9  C   UNL     1       0.659  -4.054   6.595  0.00  0.00    -0.006 A 
ATOM     10  S   UNL     1       2.005  -3.989   5.443  0.00  0.00    -0.073 S 
ATOM     11  C   UNL     1       0.719  -4.379   8.057  0.00  0.00    +0.027 C 
ATOM     12  C   UNL     1      -0.706  -4.676   8.546  0.00  0.00    -0.067 C 
ATOM     13  C   UNL     1      -1.640  -3.574   8.037  0.00  0.00    -0.011 C 
ATOM     14  C   UNL     1      -1.816  -3.700   6.523  0.00  0.00    +0.035 C 
ENDROOT
BRANCH  12  15
ATOM     15  N   UNL     1      -0.727  -4.705  10.014  0.00  0.00    +0.382 N 
ATOM     16  H   UNL     1      -0.352  -3.840  10.373  0.00  0.00    -0.085 HD
ATOM     17  H   UNL     1      -1.677  -4.819  10.335  0.00  0.00    -0.085 HD
BRANCH  15  18
ATOM     18  C   UNL     1       0.089  -5.829  10.494  0.00  0.00    -0.060 C 
BRANCH  18  19
ATOM     19  C   UNL     1      -0.009  -5.917  12.018  0.00  0.00    +0.007 C 
ATOM     20  C   UNL     1       0.934  -7.008  12.528  0.00  0.00    +0.020 C 
ATOM     21  C   UNL     1       0.540  -8.352  11.913  0.00  0.00    +0.002 C 
ATOM     22  C   UNL     1      -0.897  -8.693  12.312  0.00  0.00    +0.000 C 
ATOM     23  C   UNL     1      -1.841  -7.602  11.802  0.00  0.00    +0.002 C 
ATOM     24  C   UNL     1      -1.446  -6.258  12.417  0.00  0.00    +0.020 C 
BRANCH  19  25
ATOM     25  N   UNL     1       0.369  -4.626  12.608  0.00  0.00    -0.302 NA
ATOM     26  C   UNL     1       1.732  -4.245  12.212  0.00  0.00    +0.066 C 
ATOM     27  C   UNL     1       2.066  -2.871  12.798  0.00  0.00    -0.064 C 
ATOM     28  N   UNL     1       1.959  -2.924  14.262  0.00  0.00    +0.379 N 
ATOM     29  C   UNL     1       0.587  -3.281  14.643  0.00  0.00    -0.064 C 
ATOM     30  C   UNL     1       0.241  -4.659  14.072  0.00  0.00    +0.066 C 
ATOM     31  C   UNL     1       2.297  -1.610  14.825  0.00  0.00    -0.096 C 
ATOM     32  H   UNL     1       2.599  -3.617  14.621  0.00  0.00    -0.082 HD
ENDBRANCH  19  25
ENDBRANCH  18  19
ENDBRANCH  15  18
ENDBRANCH  12  15
BRANCH   1  33
ATOM     33  C   UNL     1      -1.807  -2.546   1.180  0.00  0.00    +0.126 C 
BRANCH  33  34
ATOM     34  C   UNL     1      -1.958  -1.024   1.125  0.00  0.00    +0.021 C 
BRANCH  34  36
ATOM     35  C   UNL     1      -3.147   0.869   0.009  0.00  0.00    +0.004 C 
ATOM     36  C   UNL     1      -2.996  -0.652   0.064  0.00  0.00    -0.002 C 
ENDBRANCH  34  36
ENDBRANCH  33  34
ENDBRANCH   1  33
TORSDOF 7
