REMARK  Name = ZINC67192157
REMARK  6 active torsions:
REMARK  status: ('A' for Active; 'I' for Inactive)
REMARK    1  A    between atoms: C_6  and  N_7
REMARK    2  A    between atoms: C_11  and  C_14
REMARK    3  A    between atoms: N_16  and  C_17
REMARK    4  A    between atoms: C_17  and  C_18
REMARK    5  A    between atoms: C_18  and  C_19
REMARK    6  A    between atoms: C_19  and  C_20
REMARK                            x       y       z     vdW  Elec       q    Type
REMARK                         _______ _______ _______ _____ _____    ______ ____
ROOT
ATOM      1  C   UNL     1       5.984   0.790  -0.052  0.00  0.00    +0.260 C 
ATOM      2  O   UNL     1       6.618  -0.248  -0.064  0.00  0.00    -0.269 OA
ATOM      3  N   UNL     1       6.629   1.973  -0.052  0.00  0.00    -0.310 N 
ATOM      4  H   UNL     1       6.123   2.801  -0.043  0.00  0.00    +0.149 HD
ENDROOT
BRANCH   1  12
ATOM      5  C   UNL     1      -0.017   1.385   0.010  0.00  0.00    +0.035 A 
ATOM      6  C   UNL     1       1.158   2.103   0.002  0.00  0.00    +0.028 A 
ATOM      7  C   UNL     1       2.378   1.433  -0.013  0.00  0.00    +0.047 A 
ATOM      8  C   UNL     1       2.395   0.024  -0.021  0.00  0.00    +0.003 A 
ATOM      9  C   UNL     1       1.186  -0.683  -0.013  0.00  0.00    +0.042 A 
ATOM     10  C   UNL     1       0.002  -0.004   0.002  0.00  0.00    +0.127 A 
ATOM     11  C   UNL     1       3.754  -0.373  -0.036  0.00  0.00    +0.041 A 
ATOM     12  C   UNL     1       4.514   0.753  -0.038  0.00  0.00    +0.103 A 
ATOM     13  N   UNL     1       3.686   1.859  -0.024  0.00  0.00    -0.351 N 
ATOM     14  H   UNL     1       3.978   2.784  -0.022  0.00  0.00    +0.166 HD
BRANCH  10  15
ATOM     15  N   UNL     1      -1.274  -0.755   0.011  0.00  0.00    +0.056 N 
ATOM     16  O   UNL     1      -2.325  -0.159   0.024  0.00  0.00    -0.126 OA
ATOM     17  O   UNL     1      -1.264  -1.964   0.004  0.00  0.00    -0.126 OA
ENDBRANCH  10  15
ENDBRANCH   1  12
BRANCH   3  18
ATOM     18  C   UNL     1       8.093   2.010  -0.066  0.00  0.00    +0.105 C 
BRANCH  18  19
ATOM     19  C   UNL     1       8.568   3.464  -0.063  0.00  0.00    +0.026 C 
BRANCH  19  20
ATOM     20  C   UNL     1      10.097   3.502  -0.078  0.00  0.00    +0.078 C 
BRANCH  20  21
ATOM     21  C   UNL     1      10.564   4.935  -0.075  0.00  0.00    +0.134 A 
ATOM     22  N   UNL     1      10.789   5.680  -1.125  0.00  0.00    -0.134 NA
ATOM     23  N   UNL     1      11.169   6.852  -0.751  0.00  0.00    -0.134 NA
ATOM     24  C   UNL     1      11.199   6.907   0.550  0.00  0.00    +0.133 A 
ATOM     25  N   UNL     1      10.824   5.692   1.014  0.00  0.00    -0.315 N 
ATOM     26  C   UNL     1      10.737   5.284   2.416  0.00  0.00    +0.125 C 
ATOM     27  C   UNL     1      10.438   6.510   3.284  0.00  0.00    +0.022 C 
ATOM     28  C   UNL     1      11.748   7.167   3.716  0.00  0.00    +0.002 C 
ATOM     29  C   UNL     1      12.534   7.642   2.497  0.00  0.00    +0.008 C 
ATOM     30  C   UNL     1      11.569   8.092   1.403  0.00  0.00    +0.076 C 
ENDBRANCH  20  21
ENDBRANCH  19  20
ENDBRANCH  18  19
ENDBRANCH   3  18
TORSDOF 6
