REMARK  Name = ZINC40459098
REMARK  11 active torsions:
REMARK  status: ('A' for Active; 'I' for Inactive)
REMARK    1  A    between atoms: C_7  and  C_11
REMARK    2  A    between atoms: C_11  and  C_13
REMARK    3  A    between atoms: C_11  and  C_28
REMARK    4  A    between atoms: C_13  and  N_14
REMARK    5  A    between atoms: N_14  and  C_15
REMARK    6  A    between atoms: C_15  and  C_16
REMARK    7  A    between atoms: C_16  and  C_18
REMARK    8  A    between atoms: C_16  and  O_27
REMARK    9  A    between atoms: C_18  and  O_19
REMARK   10  A    between atoms: O_19  and  C_20
REMARK   11  A    between atoms: C_20  and  C_21
REMARK                            x       y       z     vdW  Elec       q    Type
REMARK                         _______ _______ _______ _____ _____    ______ ____
ROOT
ATOM      1  C   UNL     1       0.666  -3.275  -0.021  0.00  0.00    +0.035 C 
ENDROOT
BRANCH   1   8
ATOM      2  C   UNL     1      -0.017   1.362   0.009  0.00  0.00    +0.001 A 
ATOM      3  C   UNL     1       1.170   2.083   0.002  0.00  0.00    +0.002 A 
ATOM      4  C   UNL     1       2.386   1.436  -0.013  0.00  0.00    +0.026 A 
ATOM      5  C   UNL     1       2.428   0.046  -0.021  0.00  0.00    +0.047 A 
ATOM      6  C   UNL     1       1.223  -0.681  -0.013  0.00  0.00    +0.003 A 
ATOM      7  C   UNL     1       0.002  -0.004   0.002  0.00  0.00    +0.010 A 
ATOM      8  C   UNL     1       1.604  -2.095  -0.025  0.00  0.00    -0.017 A 
ATOM      9  C   UNL     1       2.945  -2.141  -0.038  0.00  0.00    +0.087 A 
ATOM     10  N   UNL     1       3.455  -0.871  -0.036  0.00  0.00    -0.360 N 
ATOM     11  H   UNL     1       4.399  -0.650  -0.044  0.00  0.00    +0.165 HD
ENDBRANCH   1   8
BRANCH   1  12
ATOM     12  C   UNL     1       0.923  -4.117   1.202  0.00  0.00    -0.023 A 
ATOM     13  C   UNL     1       2.171  -4.675   1.409  0.00  0.00    +0.005 A 
ATOM     14  C   UNL     1       2.406  -5.447   2.531  0.00  0.00    +0.000 A 
ATOM     15  C   UNL     1       1.394  -5.662   3.448  0.00  0.00    +0.001 A 
ATOM     16  C   UNL     1       0.146  -5.104   3.243  0.00  0.00    +0.020 A 
ATOM     17  C   UNL     1      -0.089  -4.327   2.123  0.00  0.00    +0.045 A 
ATOM     18 CL   UNL     1      -1.654  -3.621   1.868  0.00  0.00    -0.083 Cl
ENDBRANCH   1  12
BRANCH   1  19
ATOM     19  C   UNL     1       0.901  -4.117  -1.277  0.00  0.00    -0.070 C 
BRANCH  19  20
ATOM     20  N   UNL     1      -0.091  -5.199  -1.335  0.00  0.00    +0.381 N 
ATOM     21  H   UNL     1       0.000  -5.782  -0.517  0.00  0.00    -0.086 HD
ATOM     22  H   UNL     1      -1.019  -4.803  -1.363  0.00  0.00    -0.086 HD
BRANCH  20  23
ATOM     23  C   UNL     1       0.134  -6.006  -2.541  0.00  0.00    -0.049 C 
BRANCH  23  24
ATOM     24  C   UNL     1      -0.899  -7.133  -2.600  0.00  0.00    +0.123 C 
BRANCH  24  25
ATOM     25  O   UNL     1      -0.770  -7.960  -1.442  0.00  0.00    -0.391 OA
ATOM     26  H   UNL     1       0.099  -8.374  -1.350  0.00  0.00    +0.210 HD
ENDBRANCH  24  25
BRANCH  24  27
ATOM     27  C   UNL     1      -0.664  -7.974  -3.857  0.00  0.00    +0.189 C 
BRANCH  27  28
ATOM     28  O   UNL     1      -1.698  -8.954  -3.974  0.00  0.00    -0.375 OA
BRANCH  28  29
ATOM     29  C   UNL     1      -1.572  -9.797  -5.120  0.00  0.00    +0.191 C 
BRANCH  29  30
ATOM     30  C   UNL     1      -2.726 -10.801  -5.144  0.00  0.00    +0.144 C 
ATOM     31  C   UNL     1      -2.533 -11.794  -6.311  0.00  0.00    +0.036 C 
ATOM     32  C   UNL     1      -3.984 -11.972  -6.836  0.00  0.00    +0.031 C 
ATOM     33  C   UNL     1      -4.561 -10.555  -6.591  0.00  0.00    +0.160 C 
ATOM     34  O   UNL     1      -3.964 -10.114  -5.359  0.00  0.00    -0.374 OA
ENDBRANCH  29  30
ENDBRANCH  28  29
ENDBRANCH  27  28
ENDBRANCH  24  27
ENDBRANCH  23  24
ENDBRANCH  20  23
ENDBRANCH  19  20
ENDBRANCH   1  19
TORSDOF 11
