REMARK  Name = ZINC40460617
REMARK  7 active torsions:
REMARK  status: ('A' for Active; 'I' for Inactive)
REMARK    1  A    between atoms: C_1  and  C_2
REMARK    2  A    between atoms: C_5  and  C_8
REMARK    3  A    between atoms: C_8  and  C_10
REMARK    4  A    between atoms: C_10  and  C_11
REMARK    5  A    between atoms: N_17  and  N_18
REMARK    6  A    between atoms: C_19  and  C_20
REMARK    7  A    between atoms: C_29  and  C_30
REMARK                            x       y       z     vdW  Elec       q    Type
REMARK                         _______ _______ _______ _____ _____    ______ ____
ROOT
ATOM      1  C   UNL     1       0.093  -6.508   0.992  0.00  0.00    +0.147 C 
ATOM      2  C   UNL     1       0.139  -7.316   2.279  0.00  0.00    +0.232 C 
ATOM      3  O   UNL     1       1.067  -7.237   3.056  0.00  0.00    -0.274 OA
ATOM      4  N   UNL     1      -0.896  -8.109   2.499  0.00  0.00    -0.263 N 
ATOM      5  C   UNL     1      -1.955  -8.204   1.620  0.00  0.00    +0.183 C 
ATOM      6  N   UNL     1      -3.033  -8.950   1.725  0.00  0.00    -0.127 NA
ATOM      7  S   UNL     1      -1.518  -7.075   0.304  0.00  0.00    -0.075 S 
ATOM      8  H   UNL     1      -0.910  -8.643   3.308  0.00  0.00    +0.157 HD
ENDROOT
BRANCH   6   9
ATOM      9  N   UNL     1      -3.204  -9.781   2.840  0.00  0.00    -0.155 NA
ATOM     10  C   UNL     1      -4.276 -10.523   2.945  0.00  0.00    +0.145 C 
BRANCH  10  11
ATOM     11  C   UNL     1      -4.455 -11.392   4.110  0.00  0.00    +0.028 A 
ATOM     12  C   UNL     1      -3.532 -11.543   5.249  0.00  0.00    +0.009 A 
ATOM     13  C   UNL     1      -2.302 -10.970   5.572  0.00  0.00    +0.010 A 
ATOM     14  C   UNL     1      -1.670 -11.327   6.743  0.00  0.00    +0.001 A 
ATOM     15  C   UNL     1      -2.252 -12.252   7.598  0.00  0.00    +0.002 A 
ATOM     16  C   UNL     1      -3.466 -12.826   7.292  0.00  0.00    +0.026 A 
ATOM     17  C   UNL     1      -4.122 -12.479   6.114  0.00  0.00    +0.048 A 
ATOM     18  N   UNL     1      -5.318 -12.880   5.557  0.00  0.00    -0.354 N 
ATOM     19  H   UNL     1      -5.927 -13.523   5.953  0.00  0.00    +0.166 HD
ATOM     20  C   UNL     1      -5.528 -12.232   4.364  0.00  0.00    +0.056 A 
BRANCH  20  21
ATOM     21  C   UNL     1      -6.705 -12.405   3.492  0.00  0.00    -0.001 A 
ATOM     22  C   UNL     1      -7.333 -11.289   2.932  0.00  0.00    +0.010 A 
ATOM     23  C   UNL     1      -8.432 -11.459   2.116  0.00  0.00    +0.001 A 
ATOM     24  C   UNL     1      -8.914 -12.729   1.853  0.00  0.00    +0.000 A 
ATOM     25  C   UNL     1      -8.297 -13.839   2.405  0.00  0.00    +0.001 A 
ATOM     26  C   UNL     1      -7.193 -13.685   3.217  0.00  0.00    +0.010 A 
ENDBRANCH  20  21
ENDBRANCH  10  11
ENDBRANCH   6   9
BRANCH   1  27
ATOM     27  C   UNL     1       0.075  -5.006   1.280  0.00  0.00    +0.103 C 
BRANCH  27  28
ATOM     28  C   UNL     1       0.058  -4.245  -0.021  0.00  0.00    +0.165 C 
ATOM     29  O   UNL     1       0.060  -4.846  -1.075  0.00  0.00    -0.292 OA
BRANCH  28  34
ATOM     30  C   UNL     1      -0.018   1.503   0.010  0.00  0.00    +0.044 C 
ATOM     31  C   UNL     1       0.002  -0.004   0.002  0.00  0.00    -0.050 A 
ATOM     32  C   UNL     1       0.006  -0.686  -1.202  0.00  0.00    +0.004 A 
ATOM     33  C   UNL     1       0.024  -2.064  -1.218  0.00  0.00    +0.011 A 
ATOM     34  C   UNL     1       0.039  -2.774  -0.013  0.00  0.00    +0.017 A 
ATOM     35  C   UNL     1       0.036  -2.078   1.200  0.00  0.00    +0.011 A 
ATOM     36  C   UNL     1       0.023  -0.699   1.199  0.00  0.00    +0.004 A 
ENDBRANCH  28  34
ENDBRANCH  27  28
ENDBRANCH   1  27
TORSDOF 6
