REMARK  Name = ZINC14467275
REMARK  8 active torsions:
REMARK  status: ('A' for Active; 'I' for Inactive)
REMARK    1  A    between atoms: C_1  and  C_2
REMARK    2  A    between atoms: C_2  and  N_3
REMARK    3  A    between atoms: N_3  and  C_4
REMARK    4  A    between atoms: N_3  and  S_6
REMARK    5  A    between atoms: C_4  and  C_5
REMARK    6  A    between atoms: S_6  and  C_9
REMARK    7  A    between atoms: C_22  and  C_25
REMARK    8  A    between atoms: C_30  and  O_31
REMARK                            x       y       z     vdW  Elec       q    Type
REMARK                         _______ _______ _______ _____ _____    ______ ____
ROOT
ATOM      1  C   UNL     1      -6.386   1.711  -0.650  0.00  0.00    +0.106 A 
ATOM      2  C   UNL     1      -6.034   0.716   0.243  0.00  0.00    +0.030 A 
ATOM      3  C   UNL     1      -4.720   0.571   0.636  0.00  0.00    +0.025 A 
ATOM      4  C   UNL     1      -3.740   1.421   0.137  0.00  0.00    +0.031 A 
ATOM      5  C   UNL     1      -4.106   2.433  -0.758  0.00  0.00    -0.018 A 
ATOM      6  C   UNL     1      -5.421   2.566  -1.148  0.00  0.00    +0.034 A 
ATOM      7  C   UNL     1      -3.037   3.330  -1.248  0.00  0.00    +0.049 C 
ATOM      8  C   UNL     1      -3.137   4.031  -2.554  0.00  0.00    -0.023 C 
ATOM      9  C   UNL     1      -1.915   4.181  -3.050  0.00  0.00    -0.030 C 
ATOM     10  C   UNL     1      -0.888   3.547  -2.109  0.00  0.00    +0.033 C 
ATOM     11  C   UNL     1      -1.735   2.486  -1.396  0.00  0.00    +0.029 C 
ATOM     12  C   UNL     1      -1.332   2.114   0.020  0.00  0.00    +0.109 C 
ATOM     13  N   UNL     1      -2.407   1.231   0.522  0.00  0.00    -0.336 N 
ATOM     14  H   UNL     1      -2.185   0.508   1.129  0.00  0.00    +0.147 HD
ENDROOT
BRANCH  12  15
ATOM     15  C   UNL     1      -0.017   1.378   0.010  0.00  0.00    +0.017 A 
ATOM     16  C   UNL     1       0.002  -0.004   0.002  0.00  0.00    +0.029 A 
ATOM     17  C   UNL     1       1.209  -0.681  -0.013  0.00  0.00    +0.043 A 
ATOM     18  C   UNL     1       2.399   0.024  -0.020  0.00  0.00    +0.043 A 
ATOM     19  C   UNL     1       2.385   1.406  -0.013  0.00  0.00    +0.084 A 
ATOM     20  C   UNL     1       1.175   2.087   0.002  0.00  0.00    +0.140 A 
ATOM     21 CL   UNL     1       3.879   2.291  -0.022  0.00  0.00    -0.080 Cl
ATOM     22 CL   UNL     1       1.229  -2.417  -0.023  0.00  0.00    -0.083 Cl
BRANCH  20  23
ATOM     23  O   UNL     1       1.158   3.446   0.009  0.00  0.00    -0.505 OA
ATOM     24  H   UNL     1       1.162   3.835   0.894  0.00  0.00    +0.292 HD
ENDBRANCH  20  23
ENDBRANCH  12  15
BRANCH   1  25
ATOM     25  S   UNL     1      -8.065   1.888  -1.155  0.00  0.00    +0.061 S 
ATOM     26  O   UNL     1      -8.043   2.545  -2.415  0.00  0.00    -0.153 OA
ATOM     27  O   UNL     1      -8.681   0.621  -0.968  0.00  0.00    -0.153 OA
BRANCH  25  28
ATOM     28  N   UNL     1      -8.789   2.929  -0.090  0.00  0.00    -0.177 NA
BRANCH  28  30
ATOM     29  C   UNL     1     -10.085   4.763  -1.060  0.00  0.00    +0.022 C 
ATOM     30  C   UNL     1      -8.785   4.370  -0.357  0.00  0.00    +0.106 C 
ENDBRANCH  28  30
BRANCH  28  31
ATOM     31  C   UNL     1      -9.435   2.409   1.118  0.00  0.00    +0.106 C 
ATOM     32  C   UNL     1      -8.452   2.474   2.289  0.00  0.00    +0.022 C 
ENDBRANCH  28  31
ENDBRANCH  25  28
ENDBRANCH   1  25
TORSDOF 6
