REMARK  Name = ZINC08440401
REMARK  11 active torsions:
REMARK  status: ('A' for Active; 'I' for Inactive)
REMARK    1  A    between atoms: C_1  and  C_2
REMARK    2  A    between atoms: C_2  and  O_3
REMARK    3  A    between atoms: O_3  and  C_4
REMARK    4  A    between atoms: C_4  and  C_6
REMARK    5  A    between atoms: C_8  and  C_36
REMARK    6  A    between atoms: C_15  and  C_26
REMARK    7  A    between atoms: C_17  and  C_21
REMARK    8  A    between atoms: C_18  and  C_20
REMARK    9  A    between atoms: C_21  and  O_23
REMARK   10  A    between atoms: O_23  and  C_24
REMARK   11  A    between atoms: C_24  and  C_25
REMARK                            x       y       z     vdW  Elec       q    Type
REMARK                         _______ _______ _______ _____ _____    ______ ____
ROOT
ATOM      1  C   UNL     1      -3.388  -2.876  -0.274  0.00  0.00    +0.176 C 
ATOM      2  C   UNL     1      -2.717  -4.238  -0.069  0.00  0.00    +0.046 C 
ATOM      3  C   UNL     1      -1.815  -4.154   1.164  0.00  0.00    +0.060 C 
ATOM      4  C   UNL     1      -2.637  -3.761   2.367  0.00  0.00    +0.016 C 
ATOM      5  C   UNL     1      -3.726  -2.974   2.237  0.00  0.00    +0.026 C 
ATOM      6  C   UNL     1      -4.139  -2.505   0.976  0.00  0.00    +0.176 C 
ATOM      7  O   UNL     1      -5.117  -1.789   0.894  0.00  0.00    -0.291 OA
ATOM      8  C   UNL     1      -4.532  -2.571   3.446  0.00  0.00    +0.112 C 
ATOM      9  C   UNL     1      -4.241  -3.469   4.612  0.00  0.00    +0.067 C 
ATOM     10  C   UNL     1      -3.139  -4.238   4.641  0.00  0.00    +0.016 C 
ATOM     11  N   UNL     1      -2.255  -4.223   3.598  0.00  0.00    -0.321 N 
ATOM     12  C   UNL     1      -2.875  -5.123   5.832  0.00  0.00    +0.061 C 
ATOM     13  H   UNL     1      -1.349  -4.543   3.731  0.00  0.00    +0.152 HD
ENDROOT
BRANCH   8  14
ATOM     14  C   UNL     1      -4.189  -1.151   3.819  0.00  0.00    +0.072 A 
ATOM     15  C   UNL     1      -3.078  -0.898   4.627  0.00  0.00    +0.135 A 
ATOM     16  N   UNL     1      -2.760   0.330   4.964  0.00  0.00    -0.252 NA
ATOM     17  C   UNL     1      -3.506   1.351   4.529  0.00  0.00    +0.089 A 
ATOM     18  C   UNL     1      -3.192   2.678   4.872  0.00  0.00    +0.030 A 
ATOM     19  C   UNL     1      -3.971   3.696   4.414  0.00  0.00    +0.002 A 
ATOM     20  C   UNL     1      -5.080   3.443   3.607  0.00  0.00    +0.002 A 
ATOM     21  C   UNL     1      -5.415   2.172   3.256  0.00  0.00    +0.030 A 
ATOM     22  C   UNL     1      -4.634   1.095   3.709  0.00  0.00    +0.090 A 
ATOM     23  N   UNL     1      -4.935  -0.165   3.375  0.00  0.00    -0.248 NA
ENDBRANCH   8  14
BRANCH   2  24
ATOM     24  C   UNL     1      -1.892  -4.583  -1.282  0.00  0.00    -0.043 A 
ATOM     25  C   UNL     1      -0.652  -5.175  -1.129  0.00  0.00    +0.004 A 
ATOM     26  C   UNL     1       0.104  -5.492  -2.242  0.00  0.00    +0.000 A 
ATOM     27  C   UNL     1      -0.379  -5.217  -3.508  0.00  0.00    +0.000 A 
ATOM     28  C   UNL     1      -1.619  -4.626  -3.661  0.00  0.00    +0.000 A 
ATOM     29  C   UNL     1      -2.377  -4.313  -2.548  0.00  0.00    +0.004 A 
ENDBRANCH   2  24
BRANCH   1  30
ATOM     30  C   UNL     1      -2.338  -1.833  -0.560  0.00  0.00    +0.318 C 
ATOM     31  O   UNL     1      -1.185  -2.163  -0.710  0.00  0.00    -0.250 OA
BRANCH  30  32
ATOM     32  O   UNL     1      -2.683  -0.539  -0.647  0.00  0.00    -0.464 OA
BRANCH  32  34
ATOM     33  C   UNL     1      -2.218   1.808  -0.983  0.00  0.00    +0.048 C 
ATOM     34  C   UNL     1      -1.636   0.394  -0.921  0.00  0.00    +0.229 C 
ENDBRANCH  32  34
ENDBRANCH  30  32
ENDBRANCH   1  30
BRANCH   9  35
ATOM     35  C   UNL     1      -5.142  -3.507   5.701  0.00  0.00    +0.338 C 
ATOM     36  O   UNL     1      -4.984  -4.319   6.594  0.00  0.00    -0.245 OA
BRANCH  35  37
ATOM     37  O   UNL     1      -6.178  -2.644   5.750  0.00  0.00    -0.462 OA
BRANCH  37  38
ATOM     38  C   UNL     1      -7.049  -2.739   6.879  0.00  0.00    +0.229 C 
ATOM     39  C   UNL     1      -8.155  -1.688   6.760  0.00  0.00    +0.048 C 
ENDBRANCH  37  38
ENDBRANCH  35  37
ENDBRANCH   9  35
TORSDOF 8
