REMARK  Name = ZINC66909182
REMARK  5 active torsions:
REMARK  status: ('A' for Active; 'I' for Inactive)
REMARK    1  A    between atoms: C_6  and  C_7
REMARK    2  A    between atoms: C_7  and  N_8
REMARK    3  A    between atoms: C_14  and  N_17
REMARK    4  A    between atoms: C_18  and  C_20
REMARK    5  A    between atoms: C_20  and  C_21
REMARK                            x       y       z     vdW  Elec       q    Type
REMARK                         _______ _______ _______ _____ _____    ______ ____
ROOT
ATOM      1  N   UNL     1      -3.593  -2.174  -0.578  0.00  0.00    -0.295 N 
ATOM      2  C   UNL     1      -2.854  -1.715  -1.607  0.00  0.00    +0.302 C 
ATOM      3  O   UNL     1      -1.880  -1.019  -1.393  0.00  0.00    -0.253 OA
ATOM      4  N   UNL     1      -3.195  -2.026  -2.874  0.00  0.00    -0.286 N 
ATOM      5  C   UNL     1      -2.336  -1.631  -3.999  0.00  0.00    +0.111 C 
ATOM      6  C   UNL     1      -2.016  -2.874  -4.835  0.00  0.00    +0.041 C 
ATOM      7  C   UNL     1      -3.323  -3.554  -5.250  0.00  0.00    +0.076 C 
ATOM      8  C   UNL     1      -4.089  -3.996  -4.001  0.00  0.00    +0.041 C 
ATOM      9  C   UNL     1      -4.429  -2.771  -3.155  0.00  0.00    +0.111 C 
ATOM     10  H   UNL     1      -4.411  -2.667  -0.750  0.00  0.00    +0.151 HD
ENDROOT
BRANCH   7  11
ATOM     11  N   UNL     1      -3.022  -4.725  -6.078  0.00  0.00    -0.312 N 
ATOM     12  C   UNL     1      -3.936  -5.182  -6.956  0.00  0.00    +0.214 C 
ATOM     13  O   UNL     1      -5.008  -4.625  -7.062  0.00  0.00    -0.276 OA
ATOM     14  H   UNL     1      -2.164  -5.171  -5.993  0.00  0.00    +0.149 HD
BRANCH  12  15
ATOM     15  C   UNL     1      -3.626  -6.387  -7.808  0.00  0.00    +0.099 C 
BRANCH  15  16
ATOM     16  C   UNL     1      -4.822  -6.694  -8.711  0.00  0.00    -0.002 C 
ATOM     17  C   UNL     1      -6.019  -7.103  -7.851  0.00  0.00    +0.004 C 
ATOM     18  C   UNL     1      -7.215  -7.410  -8.754  0.00  0.00    +0.000 C 
ATOM     19  C   UNL     1      -6.855  -8.554  -9.705  0.00  0.00    +0.000 C 
ATOM     20  C   UNL     1      -5.658  -8.144 -10.566  0.00  0.00    +0.000 C 
ATOM     21  C   UNL     1      -4.462  -7.837  -9.662  0.00  0.00    +0.004 C 
ENDBRANCH  15  16
ENDBRANCH  12  15
ENDBRANCH   7  11
BRANCH   1  22
ATOM     22  C   UNL     1      -3.161  -1.930   0.800  0.00  0.00    +0.142 C 
BRANCH  22  28
ATOM     23  C   UNL     1      -3.998  -3.851   2.185  0.00  0.00    +0.009 A 
ATOM     24  C   UNL     1      -4.936  -4.373   3.062  0.00  0.00    +0.040 A 
ATOM     25  C   UNL     1      -5.990  -3.577   3.475  0.00  0.00    +0.129 A 
ATOM     26  N   UNL     1      -6.106  -2.336   3.043  0.00  0.00    -0.243 NA
ATOM     27  C   UNL     1      -5.232  -1.807   2.208  0.00  0.00    +0.117 A 
ATOM     28  C   UNL     1      -4.155  -2.542   1.754  0.00  0.00    -0.012 A 
ATOM     29 CL   UNL     1      -7.171  -4.218   4.573  0.00  0.00    -0.062 Cl
ENDBRANCH  22  28
ENDBRANCH   1  22
TORSDOF 5
