REMARK  Name = ZINC64392901
REMARK  8 active torsions:
REMARK  status: ('A' for Active; 'I' for Inactive)
REMARK    1  A    between atoms: C_1  and  C_2
REMARK    2  A    between atoms: C_2  and  O_3
REMARK    3  A    between atoms: O_3  and  C_4
REMARK    4  A    between atoms: C_4  and  C_6
REMARK    5  A    between atoms: C_8  and  N_19
REMARK    6  A    between atoms: N_19  and  C_20
REMARK    7  A    between atoms: C_20  and  C_21
REMARK    8  A    between atoms: C_21  and  C_22
REMARK                            x       y       z     vdW  Elec       q    Type
REMARK                         _______ _______ _______ _____ _____    ______ ____
ROOT
ATOM      1  C   UNL     1      -3.348  -2.554   0.319  0.00  0.00    +0.228 C 
ATOM      2  C   UNL     1      -2.915  -3.990   0.092  0.00  0.00    +0.036 C 
ATOM      3  C   UNL     1      -3.457  -4.650  -1.021  0.00  0.00    +0.016 A 
ATOM      4  C   UNL     1      -3.108  -5.984  -1.304  0.00  0.00    +0.011 A 
ATOM      5  C   UNL     1      -3.646  -6.606  -2.389  0.00  0.00    +0.002 A 
ATOM      6  C   UNL     1      -4.537  -5.950  -3.230  0.00  0.00    +0.022 A 
ATOM      7  C   UNL     1      -4.914  -4.648  -3.005  0.00  0.00    +0.063 A 
ATOM      8  C   UNL     1      -4.394  -3.951  -1.901  0.00  0.00    +0.061 A 
ATOM      9  N   UNL     1      -4.763  -2.680  -1.680  0.00  0.00    -0.283 N 
ATOM     10  C   UNL     1      -4.322  -1.959  -0.672  0.00  0.00    +0.237 C 
ATOM     11  O   UNL     1      -4.702  -0.810  -0.536  0.00  0.00    -0.274 OA
ATOM     12 CL   UNL     1      -6.029  -3.866  -4.081  0.00  0.00    -0.082 Cl
ATOM     13  H   UNL     1      -5.388  -2.271  -2.299  0.00  0.00    +0.155 HD
ENDROOT
BRANCH   1  14
ATOM     14  C   UNL     1      -2.111  -1.693   0.324  0.00  0.00    +0.325 C 
ATOM     15  O   UNL     1      -1.207  -1.930  -0.442  0.00  0.00    -0.250 OA
BRANCH  14  16
ATOM     16  O   UNL     1      -2.013  -0.664   1.180  0.00  0.00    -0.464 OA
BRANCH  16  18
ATOM     17  C   UNL     1      -0.884   1.230   2.170  0.00  0.00    +0.048 C 
ATOM     18  C   UNL     1      -0.812   0.110   1.130  0.00  0.00    +0.229 C 
ENDBRANCH  16  18
ENDBRANCH  14  16
ENDBRANCH   1  14
BRANCH   2  19
ATOM     19  N   UNL     1      -2.054  -4.600   0.918  0.00  0.00    -0.345 N 
ATOM     20  H   UNL     1      -1.788  -5.518   0.749  0.00  0.00    +0.146 HD
BRANCH  19  21
ATOM     21  C   UNL     1      -1.514  -3.882   2.075  0.00  0.00    +0.105 C 
BRANCH  21  22
ATOM     22  C   UNL     1      -0.677  -4.840   2.924  0.00  0.00    +0.052 C 
BRANCH  22  23
ATOM     23  C   UNL     1      -0.121  -4.101   4.115  0.00  0.00    -0.040 C 
ATOM     24  C   UNL     1      -0.652  -4.046   5.357  0.00  0.00    -0.001 A 
ATOM     25  C   UNL     1      -1.860  -4.634   5.950  0.00  0.00    +0.010 A 
ATOM     26  C   UNL     1      -2.135  -4.394   7.252  0.00  0.00    +0.001 A 
ATOM     27  C   UNL     1      -1.298  -3.600   8.048  0.00  0.00    +0.002 A 
ATOM     28  C   UNL     1      -0.171  -3.026   7.575  0.00  0.00    +0.026 A 
ATOM     29  C   UNL     1       0.215  -3.211   6.219  0.00  0.00    +0.043 A 
ATOM     30  N   UNL     1       1.242  -2.768   5.536  0.00  0.00    -0.380 N 
ATOM     31  C   UNL     1       1.145  -3.276   4.163  0.00  0.00    +0.144 C 
ATOM     32  H   UNL     1       1.950  -2.201   5.881  0.00  0.00    +0.160 HD
ENDBRANCH  22  23
ENDBRANCH  21  22
ENDBRANCH  19  21
ENDBRANCH   2  19
TORSDOF 7
