REMARK  Name = ZINC45755351
REMARK  12 active torsions:
REMARK  status: ('A' for Active; 'I' for Inactive)
REMARK    1  A    between atoms: C_1  and  C_2
REMARK    2  A    between atoms: C_2  and  C_3
REMARK    3  A    between atoms: C_3  and  C_4
REMARK    4  A    between atoms: C_4  and  C_6
REMARK    5  A    between atoms: C_4  and  C_22
REMARK    6  A    between atoms: C_6  and  N_7
REMARK    7  A    between atoms: C_8  and  C_10
REMARK    8  A    between atoms: C_10  and  S_11
REMARK    9  A    between atoms: S_11  and  C_12
REMARK   10  A    between atoms: C_14  and  C_21
REMARK   11  A    between atoms: C_15  and  C_17
REMARK   12  A    between atoms: C_17  and  C_18
REMARK                            x       y       z     vdW  Elec       q    Type
REMARK                         _______ _______ _______ _____ _____    ______ ____
ROOT
ATOM      1  N   UNL     1      -3.405  -2.205  -1.407  0.00  0.00    -0.314 N 
ATOM      2  C   UNL     1      -4.663  -2.564  -1.731  0.00  0.00    +0.223 C 
ATOM      3  O   UNL     1      -5.330  -3.208  -0.950  0.00  0.00    -0.275 OA
ATOM      4  H   UNL     1      -2.871  -1.691  -2.033  0.00  0.00    +0.149 HD
ENDROOT
BRANCH   1   5
ATOM      5  C   UNL     1      -2.844  -2.592  -0.110  0.00  0.00    +0.112 C 
BRANCH   5   6
ATOM      6  C   UNL     1      -1.413  -2.063   0.004  0.00  0.00    +0.038 C 
BRANCH   6   7
ATOM      7  C   UNL     1      -0.793  -2.564   1.284  0.00  0.00    -0.024 A 
ATOM      8  C   UNL     1      -1.369  -2.250   2.500  0.00  0.00    +0.007 A 
ATOM      9  C   UNL     1      -0.802  -2.709   3.674  0.00  0.00    +0.020 A 
ATOM     10  C   UNL     1       0.344  -3.484   3.631  0.00  0.00    +0.042 A 
ATOM     11  C   UNL     1       0.920  -3.800   2.415  0.00  0.00    +0.040 A 
ATOM     12  C   UNL     1       0.349  -3.344   1.240  0.00  0.00    +0.046 A 
ATOM     13 CL   UNL     1       1.069  -3.745  -0.288  0.00  0.00    -0.083 Cl
ATOM     14 CL   UNL     1       1.057  -4.061   5.106  0.00  0.00    -0.083 Cl
ENDBRANCH   6   7
BRANCH   6  15
ATOM     15  C   UNL     1      -1.433  -0.534   0.013  0.00  0.00    +0.009 C 
BRANCH  15  17
ATOM     16  C   UNL     1      -0.019   1.526   0.010  0.00  0.00    +0.004 C 
ATOM     17  C   UNL     1       0.002  -0.004   0.002  0.00  0.00    -0.003 C 
ENDBRANCH  15  17
ENDBRANCH   6  15
ENDBRANCH   5   6
ENDBRANCH   1   5
BRANCH   2  18
ATOM     18  C   UNL     1      -5.240  -2.166  -3.065  0.00  0.00    +0.172 C 
BRANCH  18  19
ATOM     19  S   UNL     1      -6.936  -2.793  -3.202  0.00  0.00    -0.089 S 
BRANCH  19  20
ATOM     20  C   UNL     1      -7.464  -2.252  -4.793  0.00  0.00    +0.135 A 
ATOM     21  N   UNL     1      -6.790  -1.559  -5.687  0.00  0.00    -0.238 NA
ATOM     22  C   UNL     1      -7.333  -1.230  -6.846  0.00  0.00    +0.050 A 
ATOM     23  C   UNL     1      -8.607  -1.636  -7.066  0.00  0.00    +0.022 A 
ATOM     24  S   UNL     1      -8.950  -2.502  -5.543  0.00  0.00    -0.065 S 
ATOM     25  C   UNL     1      -6.571  -0.437  -7.875  0.00  0.00    +0.066 C 
BRANCH  23  26
ATOM     26  C   UNL     1      -9.489  -1.421  -8.269  0.00  0.00    +0.139 C 
BRANCH  26  27
ATOM     27  C   UNL     1      -9.299  -2.557  -9.241  0.00  0.00    +0.215 C 
ATOM     28  O   UNL     1      -8.524  -3.453  -8.982  0.00  0.00    -0.276 OA
ATOM     29  N   UNL     1      -9.991  -2.577 -10.397  0.00  0.00    -0.329 N 
ATOM     30  H   UNL     1     -10.611  -1.860 -10.604  0.00  0.00    +0.145 HD
ATOM     31  H   UNL     1      -9.869  -3.308 -11.023  0.00  0.00    +0.145 HD
ENDBRANCH  26  27
ENDBRANCH  23  26
ENDBRANCH  19  20
ENDBRANCH  18  19
ENDBRANCH   2  18
TORSDOF 10
