REMARK  Name = ZINC65501153
REMARK  7 active torsions:
REMARK  status: ('A' for Active; 'I' for Inactive)
REMARK    1  A    between atoms: C_1  and  C_2
REMARK    2  A    between atoms: C_2  and  C_3
REMARK    3  A    between atoms: C_2  and  C_4
REMARK    4  A    between atoms: N_7  and  C_9
REMARK    5  A    between atoms: C_14  and  C_16
REMARK    6  A    between atoms: C_19  and  O_23
REMARK    7  A    between atoms: O_23  and  C_24
REMARK                            x       y       z     vdW  Elec       q    Type
REMARK                         _______ _______ _______ _____ _____    ______ ____
ROOT
ATOM      1  C   UNL     1       0.731  -0.503   1.223  0.00  0.00    +0.071 A 
ATOM      2  C   UNL     1       0.201  -1.321   2.210  0.00  0.00    +0.023 A 
ATOM      3  C   UNL     1       1.181  -1.551   3.139  0.00  0.00    +0.127 A 
ATOM      4  N   UNL     1       2.279  -0.889   2.746  0.00  0.00    -0.253 N 
ATOM      5  N   UNL     1       1.980  -0.244   1.534  0.00  0.00    -0.174 NA
ATOM      6  C   UNL     1       3.562  -0.850   3.451  0.00  0.00    +0.174 C 
ATOM      7  N   UNL     1       0.963  -2.361   4.254  0.00  0.00    -0.270 N 
ATOM      8  C   UNL     1      -0.175  -3.084   4.301  0.00  0.00    +0.219 C 
ATOM      9  O   UNL     1      -0.473  -3.643   5.336  0.00  0.00    -0.275 OA
ATOM     10  C   UNL     1      -1.086  -3.219   3.114  0.00  0.00    +0.109 C 
ATOM     11  C   UNL     1      -1.184  -1.902   2.337  0.00  0.00    +0.063 C 
ATOM     12  H   UNL     1       1.612  -2.403   4.974  0.00  0.00    +0.156 HD
ENDROOT
BRANCH  11  13
ATOM     13  C   UNL     1      -1.754  -2.163   0.966  0.00  0.00    -0.035 A 
ATOM     14  C   UNL     1      -1.112  -3.035   0.107  0.00  0.00    +0.046 A 
ATOM     15  C   UNL     1      -1.632  -3.276  -1.152  0.00  0.00    +0.167 A 
ATOM     16  C   UNL     1      -2.801  -2.641  -1.551  0.00  0.00    +0.173 A 
ATOM     17  C   UNL     1      -3.443  -1.767  -0.686  0.00  0.00    +0.086 A 
ATOM     18  C   UNL     1      -2.920  -1.534   0.573  0.00  0.00    +0.028 A 
ATOM     19 CL   UNL     1      -4.904  -0.971  -1.181  0.00  0.00    -0.080 Cl
ATOM     20  F   UNL     1      -1.004  -4.128  -1.992  0.00  0.00    -0.202 F 
BRANCH  16  21
ATOM     21  O   UNL     1      -3.316  -2.876  -2.788  0.00  0.00    -0.491 OA
ATOM     22  C   UNL     1      -4.246  -3.954  -2.910  0.00  0.00    +0.277 C 
ENDBRANCH  16  21
ENDBRANCH  11  13
BRANCH   1  24
ATOM     23  C   UNL     1      -0.019   1.526   0.010  0.00  0.00    +0.014 C 
ATOM     24  C   UNL     1       0.002  -0.004   0.002  0.00  0.00    +0.034 C 
ATOM     25  C   UNL     1       0.718  -0.497  -1.257  0.00  0.00    +0.014 C 
ENDBRANCH   1  24
TORSDOF 3
