REMARK  Name = ZINC11911187
REMARK  9 active torsions:
REMARK  status: ('A' for Active; 'I' for Inactive)
REMARK    1  A    between atoms: C_1  and  C_2
REMARK    2  A    between atoms: C_2  and  C_4
REMARK    3  A    between atoms: C_2  and  N_14
REMARK    4  A    between atoms: C_15  and  C_17
REMARK    5  A    between atoms: C_17  and  C_18
REMARK    6  A    between atoms: C_18  and  C_19
REMARK    7  A    between atoms: C_19  and  C_25
REMARK    8  A    between atoms: C_25  and  C_26
REMARK    9  A    between atoms: C_29  and  C_32
REMARK                            x       y       z     vdW  Elec       q    Type
REMARK                         _______ _______ _______ _____ _____    ______ ____
ROOT
ATOM      1  C   UNL     1      -0.145   6.373  -1.385  0.00  0.00    +0.039 C 
ATOM      2  C   UNL     1       0.208   7.867  -1.555  0.00  0.00    +0.035 C 
ATOM      3  C   UNL     1       1.021   7.851  -2.870  0.00  0.00    +0.098 C 
ATOM      4  C   UNL     1       1.569   6.443  -2.951  0.00  0.00    +0.214 C 
ATOM      5  O   UNL     1       2.477   6.091  -3.674  0.00  0.00    -0.276 OA
ATOM      6  N   UNL     1       0.901   5.639  -2.106  0.00  0.00    -0.309 N 
ATOM      7  H   UNL     1       1.088   4.694  -1.987  0.00  0.00    +0.149 HD
ENDROOT
BRANCH   1   8
ATOM      8  C   UNL     1      -1.516   6.078  -1.996  0.00  0.00    +0.035 C 
BRANCH   8   9
ATOM      9  C   UNL     1      -1.768   4.569  -1.980  0.00  0.00    +0.098 C 
BRANCH   9  11
ATOM     10  N   UNL     1      -3.602   3.016  -2.566  0.00  0.00    -0.306 N 
ATOM     11  C   UNL     1      -3.157   4.286  -2.491  0.00  0.00    +0.214 C 
ATOM     12  O   UNL     1      -3.875   5.201  -2.834  0.00  0.00    -0.276 OA
ATOM     13  H   UNL     1      -3.027   2.284  -2.292  0.00  0.00    +0.149 HD
BRANCH  10  15
ATOM     14  C   UNL     1      -5.954   2.869  -1.914  0.00  0.00    +0.036 C 
ATOM     15  C   UNL     1      -4.952   2.741  -3.063  0.00  0.00    +0.136 C 
BRANCH  15  16
ATOM     16  C   UNL     1      -5.006   1.343  -3.624  0.00  0.00    +0.128 A 
ATOM     17  N   UNL     1      -5.890   0.914  -4.564  0.00  0.00    -0.340 N 
ATOM     18  H   UNL     1      -6.607   1.461  -4.997  0.00  0.00    +0.167 HD
ATOM     19  C   UNL     1      -5.614  -0.415  -4.811  0.00  0.00    +0.066 A 
ATOM     20  C   UNL     1      -6.161  -1.376  -5.652  0.00  0.00    +0.028 A 
ATOM     21  C   UNL     1      -5.643  -2.654  -5.656  0.00  0.00    +0.002 A 
ATOM     22  C   UNL     1      -4.580  -2.985  -4.827  0.00  0.00    +0.002 A 
ATOM     23  C   UNL     1      -4.030  -2.052  -3.994  0.00  0.00    +0.030 A 
ATOM     24  C   UNL     1      -4.539  -0.751  -3.972  0.00  0.00    +0.089 A 
ATOM     25  N   UNL     1      -4.217   0.369  -3.275  0.00  0.00    -0.231 NA
ENDBRANCH  15  16
ENDBRANCH  10  15
ENDBRANCH   9  11
ENDBRANCH   8   9
ENDBRANCH   1   8
BRANCH   1  26
ATOM     26  C   UNL     1      -0.134   5.992   0.097  0.00  0.00    +0.061 C 
BRANCH  26  27
ATOM     27  C   UNL     1       1.247   6.207   0.661  0.00  0.00    -0.045 A 
ATOM     28  C   UNL     1       1.547   7.388   1.317  0.00  0.00    +0.004 A 
ATOM     29  C   UNL     1       2.810   7.590   1.835  0.00  0.00    +0.009 A 
ATOM     30  C   UNL     1       3.784   6.603   1.697  0.00  0.00    -0.018 A 
ATOM     31  C   UNL     1       3.477   5.418   1.030  0.00  0.00    +0.009 A 
ATOM     32  C   UNL     1       2.210   5.224   0.521  0.00  0.00    +0.004 A 
BRANCH  30  33
ATOM     33  C   UNL     1       5.143   6.815   2.252  0.00  0.00    -0.018 A 
ATOM     34  C   UNL     1       5.453   8.004   2.909  0.00  0.00    +0.008 A 
ATOM     35  C   UNL     1       6.718   8.194   3.427  0.00  0.00    +0.001 A 
ATOM     36  C   UNL     1       7.680   7.211   3.287  0.00  0.00    +0.000 A 
ATOM     37  C   UNL     1       7.380   6.030   2.632  0.00  0.00    +0.001 A 
ATOM     38  C   UNL     1       6.117   5.827   2.114  0.00  0.00    +0.008 A 
ENDBRANCH  30  33
ENDBRANCH  26  27
ENDBRANCH   1  26
TORSDOF 8
