REMARK  Name = ZINC31279647
REMARK  6 active torsions:
REMARK  status: ('A' for Active; 'I' for Inactive)
REMARK    1  A    between atoms: C_1  and  C_2
REMARK    2  A    between atoms: C_2  and  C_3
REMARK    3  A    between atoms: C_2  and  C_4
REMARK    4  A    between atoms: C_2  and  C_5
REMARK    5  A    between atoms: C_12  and  C_14
REMARK    6  A    between atoms: C_19  and  C_22
REMARK                            x       y       z     vdW  Elec       q    Type
REMARK                         _______ _______ _______ _____ _____    ______ ____
ROOT
ATOM      1  C   UNL     1       2.527   1.343  -0.012  0.00  0.00    +0.253 C 
ATOM      2  O   UNL     1       2.747   0.161   0.180  0.00  0.00    -0.269 OA
ATOM      3  N   UNL     1       3.554   2.210  -0.120  0.00  0.00    -0.297 N 
ATOM      4  C   UNL     1       3.312   3.659  -0.128  0.00  0.00    +0.109 C 
ATOM      5  C   UNL     1       4.183   4.306   0.960  0.00  0.00    +0.032 C 
ATOM      6  C   UNL     1       5.644   3.912   0.736  0.00  0.00    +0.078 C 
ATOM      7  C   UNL     1       5.787   2.392   0.847  0.00  0.00    +0.032 C 
ATOM      8  C   UNL     1       4.935   1.723  -0.237  0.00  0.00    +0.109 C 
ENDROOT
BRANCH   1  15
ATOM      9  C   UNL     1      -3.638   2.272   0.318  0.00  0.00    -0.001 C 
ATOM     10  C   UNL     1      -3.562   3.262  -0.848  0.00  0.00    +0.009 C 
ATOM     11  C   UNL     1      -2.268   4.078  -0.719  0.00  0.00    +0.043 C 
ATOM     12  C   UNL     1      -1.136   3.131  -0.463  0.00  0.00    -0.006 A 
ATOM     13  C   UNL     1      -1.227   1.822  -0.086  0.00  0.00    -0.036 A 
ATOM     14  C   UNL     1      -0.035   1.141   0.096  0.00  0.00    +0.024 A 
ATOM     15  C   UNL     1       1.147   1.823  -0.125  0.00  0.00    +0.075 A 
ATOM     16  S   UNL     1       0.553   3.442  -0.585  0.00  0.00    -0.088 S 
ATOM     17  C   UNL     1      -2.591   1.172   0.137  0.00  0.00    +0.040 C 
BRANCH   9  19
ATOM     18  C   UNL     1      -5.300   0.906  -0.954  0.00  0.00    +0.011 C 
ATOM     19  C   UNL     1      -5.032   1.643   0.360  0.00  0.00    -0.035 C 
ATOM     20  C   UNL     1      -5.110   0.653   1.525  0.00  0.00    +0.011 C 
ATOM     21  C   UNL     1      -6.081   2.740   0.553  0.00  0.00    +0.011 C 
ENDBRANCH   9  19
ENDBRANCH   1  15
BRANCH   6  22
ATOM     22  C   UNL     1       6.507   4.574   1.779  0.00  0.00    +0.219 C 
ATOM     23  O   UNL     1       6.814   3.970   2.785  0.00  0.00    -0.275 OA
ATOM     24  N   UNL     1       6.938   5.838   1.594  0.00  0.00    -0.297 N 
ATOM     25  C   UNL     1       6.678   6.550   0.333  0.00  0.00    +0.136 C 
ATOM     26  C   UNL     1       6.068   7.919   0.673  0.00  0.00    +0.179 C 
ATOM     27  O   UNL     1       6.910   8.586   1.616  0.00  0.00    -0.377 OA
ATOM     28  C   UNL     1       7.034   7.912   2.870  0.00  0.00    +0.179 C 
ATOM     29  C   UNL     1       7.689   6.544   2.645  0.00  0.00    +0.136 C 
ENDBRANCH   6  22
TORSDOF 3
