REMARK  Name = ZINC39470064
REMARK  8 active torsions:
REMARK  status: ('A' for Active; 'I' for Inactive)
REMARK    1  A    between atoms: C_1  and  C_2
REMARK    2  A    between atoms: C_2  and  C_3
REMARK    3  A    between atoms: C_2  and  S_4
REMARK    4  A    between atoms: S_4  and  C_7
REMARK    5  A    between atoms: P_16  and  S_26
REMARK    6  A    between atoms: S_26  and  C_29
REMARK    7  A    between atoms: C_29  and  C_30
REMARK    8  A    between atoms: C_29  and  C_31
REMARK                            x       y       z     vdW  Elec       q    Type
REMARK                         _______ _______ _______ _____ _____    ______ ____
ROOT
ATOM      1  C   UNL     1      -1.536  -2.381   0.152  0.00  0.00    +0.098 C 
ATOM      2  C   UNL     1      -1.986  -3.012   1.237  0.00  0.00    +0.005 C 
ATOM      3  C   UNL     1      -1.843  -4.507   1.319  0.00  0.00    +0.023 C 
ATOM      4  C   UNL     1      -2.858  -5.113   2.283  0.00  0.00    +0.031 C 
ATOM      5  C   UNL     1      -2.691  -6.638   2.314  0.00  0.00    +0.100 C 
ATOM      6  C   UNL     1      -3.764  -7.195   3.257  0.00  0.00    +0.191 C 
ATOM      7  O   UNL     1      -3.608  -8.621   3.373  0.00  0.00    -0.299 OA
ATOM      8  P   UNL     1      -3.501  -9.488   2.001  0.00  0.00    +0.419 P 
ATOM      9  O   UNL     1      -4.848  -9.709   1.427  0.00  0.00    -0.246 OA
ATOM     10  N   UNL     1      -2.587  -8.571   0.977  0.00  0.00    -0.161 NA
ATOM     11  N   UNL     1      -2.830  -7.211   0.974  0.00  0.00    -0.228 NA
ATOM     12  C   UNL     1      -1.898  -6.614   0.000  0.00  0.00    +0.111 C 
ATOM     13  C   UNL     1      -2.094  -5.106  -0.071  0.00  0.00    +0.035 C 
ATOM     14  C   UNL     1      -1.163  -4.455  -1.057  0.00  0.00    -0.005 C 
ATOM     15  C   UNL     1      -0.907  -3.153  -0.934  0.00  0.00    +0.039 C 
ATOM     16 BR   UNL     1       0.265  -2.301  -2.149  0.00  0.00    -0.049 Br
ATOM     17  H   UNL     1      -1.918  -8.974   0.402  0.00  0.00    +0.152 HD
ENDROOT
BRANCH   1  18
ATOM     18  S   UNL     1      -1.700  -0.632   0.015  0.00  0.00    -0.000 S 
ATOM     19  O   UNL     1      -2.359  -0.234   1.209  0.00  0.00    -0.169 OA
ATOM     20  O   UNL     1      -2.308  -0.423  -1.252  0.00  0.00    -0.169 OA
BRANCH  18  22
ATOM     21  C   UNL     1      -0.019   1.526   0.010  0.00  0.00    +0.032 C 
ATOM     22  C   UNL     1       0.002  -0.004   0.002  0.00  0.00    +0.130 C 
ATOM     23  C   UNL     1       0.742  -0.511   1.242  0.00  0.00    +0.032 C 
ENDBRANCH  18  22
ENDBRANCH   1  18
BRANCH   8  24
ATOM     24  S   UNL     1      -2.551 -11.345   2.378  0.00  0.00    +0.058 S 
ATOM     25  O   UNL     1      -2.604 -12.038   1.138  0.00  0.00    -0.164 OA
ATOM     26  O   UNL     1      -1.302 -11.002   2.963  0.00  0.00    -0.164 OA
BRANCH  24  27
ATOM     27  C   UNL     1      -3.608 -12.170   3.600  0.00  0.00    +0.136 C 
ATOM     28  C   UNL     1      -5.010 -12.360   3.017  0.00  0.00    +0.032 C 
ATOM     29  C   UNL     1      -3.013 -13.535   3.950  0.00  0.00    +0.032 C 
ENDBRANCH  24  27
ENDBRANCH   8  24
TORSDOF 4
