REMARK  Name = ZINC08590207
REMARK  12 active torsions:
REMARK  status: ('A' for Active; 'I' for Inactive)
REMARK    1  A    between atoms: C_1  and  C_2
REMARK    2  A    between atoms: C_2  and  C_3
REMARK    3  A    between atoms: C_3  and  C_4
REMARK    4  A    between atoms: C_4  and  C_5
REMARK    5  A    between atoms: C_5  and  O_6
REMARK    6  A    between atoms: O_6  and  C_7
REMARK    7  A    between atoms: C_10  and  C_16
REMARK    8  A    between atoms: C_12  and  O_13
REMARK    9  A    between atoms: O_13  and  C_14
REMARK   10  A    between atoms: C_14  and  C_15
REMARK   11  A    between atoms: C_34  and  C_38
REMARK   12  A    between atoms: C_35  and  C_37
REMARK                            x       y       z     vdW  Elec       q    Type
REMARK                         _______ _______ _______ _____ _____    ______ ____
ROOT
ATOM      1  C   UNL     1      -0.031   6.628   0.038  0.00  0.00    +0.152 C 
ATOM      2  C   UNL     1       0.900   7.812   0.035  0.00  0.00    +0.072 A 
ATOM      3  C   UNL     1       0.667   9.258   0.046  0.00  0.00    +0.199 A 
ATOM      4  O   UNL     1      -0.459   9.724   0.059  0.00  0.00    -0.287 OA
ATOM      5  C   UNL     1       1.863  10.123   0.040  0.00  0.00    +0.064 A 
ATOM      6  C   UNL     1       1.757  11.512   0.049  0.00  0.00    +0.015 A 
ATOM      7  C   UNL     1       2.890  12.278   0.044  0.00  0.00    +0.001 A 
ATOM      8  C   UNL     1       4.142  11.677   0.029  0.00  0.00    +0.004 A 
ATOM      9  C   UNL     1       4.266  10.305   0.019  0.00  0.00    +0.047 A 
ATOM     10  C   UNL     1       3.126   9.505   0.024  0.00  0.00    +0.139 A 
ATOM     11  O   UNL     1       3.230   8.164   0.015  0.00  0.00    -0.450 OA
ATOM     12  C   UNL     1       2.169   7.333   0.020  0.00  0.00    +0.199 A 
ATOM     13  C   UNL     1       2.108   5.851   0.018  0.00  0.00    +0.289 C 
ATOM     14  O   UNL     1       3.076   5.116   0.011  0.00  0.00    -0.266 OA
ATOM     15  N   UNL     1       0.829   5.438   0.023  0.00  0.00    -0.232 N 
ATOM     16  C   UNL     1       0.397   4.119   0.020  0.00  0.00    +0.169 A 
ATOM     17  N   UNL     1      -0.836   3.650   0.030  0.00  0.00    -0.229 NA
ATOM     18  C   UNL     1      -1.074   2.354   0.019  0.00  0.00    +0.050 A 
ATOM     19  C   UNL     1      -0.018   1.503   0.010  0.00  0.00    +0.011 A 
ATOM     20  S   UNL     1       1.342   2.662   0.004  0.00  0.00    -0.057 S 
ATOM     21  C   UNL     1       0.002  -0.004   0.002  0.00  0.00    +0.053 C 
ATOM     22  C   UNL     1      -2.487   1.829   0.021  0.00  0.00    +0.066 C 
ENDROOT
BRANCH   1  26
ATOM     23  C   UNL     1      -2.439   6.656   3.571  0.00  0.00    +0.162 A 
ATOM     24  C   UNL     1      -1.124   6.225   3.630  0.00  0.00    +0.050 A 
ATOM     25  C   UNL     1      -0.349   6.211   2.484  0.00  0.00    +0.009 A 
ATOM     26  C   UNL     1      -0.881   6.638   1.282  0.00  0.00    -0.018 A 
ATOM     27  C   UNL     1      -2.193   7.070   1.217  0.00  0.00    +0.055 A 
ATOM     28  C   UNL     1      -2.976   7.080   2.360  0.00  0.00    +0.162 A 
BRANCH  23  29
ATOM     29  O   UNL     1      -3.204   6.664   4.696  0.00  0.00    -0.488 OA
BRANCH  29  30
ATOM     30  C   UNL     1      -2.587   6.215   5.904  0.00  0.00    +0.229 C 
BRANCH  30  31
ATOM     31  C   UNL     1      -3.594   6.295   7.052  0.00  0.00    +0.041 C 
BRANCH  31  32
ATOM     32  C   UNL     1      -2.933   5.814   8.345  0.00  0.00    +0.003 C 
BRANCH  32  34
ATOM     33  C   UNL     1      -3.280   5.413  10.787  0.00  0.00    +0.004 C 
ATOM     34  C   UNL     1      -3.941   5.894   9.494  0.00  0.00    -0.003 C 
ENDBRANCH  32  34
ENDBRANCH  31  32
ENDBRANCH  30  31
ENDBRANCH  29  30
ENDBRANCH  23  29
BRANCH  28  35
ATOM     35  O   UNL     1      -4.267   7.504   2.297  0.00  0.00    -0.489 OA
BRANCH  35  36
ATOM     36  C   UNL     1      -4.751   7.925   1.020  0.00  0.00    +0.226 C 
ATOM     37  C   UNL     1      -6.211   8.363   1.147  0.00  0.00    +0.048 C 
ENDBRANCH  35  36
ENDBRANCH  28  35
ENDBRANCH   1  26
TORSDOF 8
