REMARK  Name = ZINC39559682
REMARK  13 active torsions:
REMARK  status: ('A' for Active; 'I' for Inactive)
REMARK    1  A    between atoms: C_1  and  C_2
REMARK    2  A    between atoms: C_2  and  O_3
REMARK    3  A    between atoms: O_3  and  C_4
REMARK    4  A    between atoms: C_10  and  N_34
REMARK    5  A    between atoms: C_14  and  N_18
REMARK    6  A    between atoms: C_21  and  C_30
REMARK    7  A    between atoms: C_24  and  C_26
REMARK    8  A    between atoms: C_26  and  C_27
REMARK    9  A    between atoms: C_26  and  C_28
REMARK   10  A    between atoms: C_26  and  C_29
REMARK   11  A    between atoms: C_30  and  C_31
REMARK   12  A    between atoms: C_30  and  C_32
REMARK   13  A    between atoms: C_30  and  C_33
REMARK                            x       y       z     vdW  Elec       q    Type
REMARK                         _______ _______ _______ _____ _____    ______ ____
ROOT
ATOM      1  C   UNL     1      -4.539  -1.575  -2.198  0.00  0.00    +0.121 A 
ATOM      2  C   UNL     1      -4.966  -2.258  -3.341  0.00  0.00    +0.048 A 
ATOM      3  C   UNL     1      -5.087  -3.610  -3.361  0.00  0.00    +0.030 A 
ATOM      4  C   UNL     1      -4.775  -4.357  -2.204  0.00  0.00    +0.049 A 
ATOM      5  C   UNL     1      -4.327  -3.640  -1.008  0.00  0.00    +0.023 A 
ATOM      6  C   UNL     1      -4.217  -2.241  -1.050  0.00  0.00    +0.057 A 
ATOM      7  C   UNL     1      -4.010  -4.364   0.158  0.00  0.00    +0.043 A 
ATOM      8  C   UNL     1      -4.143  -5.763   0.116  0.00  0.00    +0.020 A 
ATOM      9  C   UNL     1      -3.845  -6.554   1.244  0.00  0.00    +0.014 A 
ATOM     10  C   UNL     1      -3.978  -7.899   1.184  0.00  0.00    +0.028 A 
ATOM     11  C   UNL     1      -4.415  -8.541   0.003  0.00  0.00    +0.067 A 
ATOM     12  C   UNL     1      -4.724  -7.806  -1.143  0.00  0.00    +0.054 A 
ATOM     13  C   UNL     1      -4.597  -6.406  -1.119  0.00  0.00    +0.051 A 
ATOM     14  N   UNL     1      -4.886  -5.682  -2.200  0.00  0.00    -0.354 N 
ATOM     15  H   UNL     1      -5.185  -6.133  -3.005  0.00  0.00    +0.166 HD
ENDROOT
BRANCH  11  16
ATOM     16  N   UNL     1      -4.534  -9.880  -0.018  0.00  0.00    -0.248 NA
ATOM     17  C   UNL     1      -5.314 -10.488   0.861  0.00  0.00    +0.065 C 
ATOM     18  C   UNL     1      -6.156  -9.699   1.765  0.00  0.00    +0.035 C 
ATOM     19  C   UNL     1      -6.951 -10.321   2.661  0.00  0.00    +0.007 C 
ATOM     20  C   UNL     1      -6.972 -11.781   2.731  0.00  0.00    +0.186 C 
ATOM     21  O   UNL     1      -7.691 -12.341   3.541  0.00  0.00    -0.287 OA
ATOM     22  C   UNL     1      -6.134 -12.569   1.831  0.00  0.00    +0.007 C 
ATOM     23  C   UNL     1      -5.342 -11.951   0.929  0.00  0.00    +0.035 C 
BRANCH  22  24
ATOM     24  C   UNL     1      -6.157 -14.074   1.905  0.00  0.00    -0.009 C 
ATOM     25  C   UNL     1      -5.197 -14.652   0.864  0.00  0.00    +0.015 C 
ATOM     26  C   UNL     1      -5.724 -14.523   3.303  0.00  0.00    +0.015 C 
ATOM     27  C   UNL     1      -7.575 -14.577   1.625  0.00  0.00    +0.015 C 
ENDBRANCH  22  24
BRANCH  19  28
ATOM     28  C   UNL     1      -7.817  -9.510   3.590  0.00  0.00    -0.009 C 
ATOM     29  C   UNL     1      -7.607  -8.020   3.312  0.00  0.00    +0.015 C 
ATOM     30  C   UNL     1      -9.286  -9.870   3.362  0.00  0.00    +0.015 C 
ATOM     31  C   UNL     1      -7.436  -9.817   5.040  0.00  0.00    +0.015 C 
ENDBRANCH  19  28
ENDBRANCH  11  16
BRANCH   7  32
ATOM     32  N   UNL     1      -3.584  -3.722   1.304  0.00  0.00    -0.357 N 
ATOM     33  H   UNL     1      -3.498  -2.756   1.315  0.00  0.00    +0.142 HD
ATOM     34  H   UNL     1      -3.370  -4.237   2.097  0.00  0.00    +0.142 HD
ENDBRANCH   7  32
BRANCH   1  35
ATOM     35  O   UNL     1      -4.435  -0.221  -2.233  0.00  0.00    -0.492 OA
BRANCH  35  37
ATOM     36  C   UNL     1      -4.606   1.938  -3.307  0.00  0.00    +0.048 C 
ATOM     37  C   UNL     1      -4.784   0.426  -3.459  0.00  0.00    +0.225 C 
ENDBRANCH  35  37
ENDBRANCH   1  35
TORSDOF 6
