REMARK  Name = ZINC03670411
REMARK  12 active torsions:
REMARK  status: ('A' for Active; 'I' for Inactive)
REMARK    1  A    between atoms: C_1  and  C_2
REMARK    2  A    between atoms: C_2  and  N_3
REMARK    3  A    between atoms: N_3  and  C_4
REMARK    4  A    between atoms: N_3  and  C_6
REMARK    5  A    between atoms: C_4  and  C_5
REMARK    6  A    between atoms: C_6  and  C_7
REMARK    7  A    between atoms: C_7  and  C_9
REMARK    8  A    between atoms: C_7  and  C_10
REMARK    9  A    between atoms: C_10  and  N_11
REMARK   10  A    between atoms: C_12  and  C_14
REMARK   11  A    between atoms: C_14  and  O_33
REMARK   12  A    between atoms: N_24  and  C_25
REMARK                            x       y       z     vdW  Elec       q    Type
REMARK                         _______ _______ _______ _____ _____    ______ ____
ROOT
ATOM      1  C   UNL     1      -5.946  -5.635  -1.141  0.00  0.00    +0.247 C 
ATOM      2  C   UNL     1      -6.966  -5.355  -0.062  0.00  0.00    +0.033 A 
ATOM      3  C   UNL     1      -6.807  -5.837   1.217  0.00  0.00    +0.010 A 
ATOM      4  C   UNL     1      -7.763  -5.559   2.179  0.00  0.00    +0.001 A 
ATOM      5  C   UNL     1      -8.872  -4.800   1.855  0.00  0.00    +0.002 A 
ATOM      6  C   UNL     1      -9.035  -4.315   0.572  0.00  0.00    +0.024 A 
ATOM      7  C   UNL     1      -8.079  -4.591  -0.397  0.00  0.00    +0.043 A 
ATOM      8  N   UNL     1      -8.225  -4.110  -1.699  0.00  0.00    -0.269 N 
ATOM      9  C   UNL     1      -7.331  -4.347  -2.668  0.00  0.00    +0.314 C 
ATOM     10  O   UNL     1      -7.540  -3.887  -3.774  0.00  0.00    -0.252 OA
ATOM     11  N   UNL     1      -6.214  -5.071  -2.474  0.00  0.00    -0.214 N 
ATOM     12  H   UNL     1      -9.008  -3.579  -1.911  0.00  0.00    +0.156 HD
ENDROOT
BRANCH  11  13
ATOM     13  C   UNL     1      -5.317  -5.286  -3.528  0.00  0.00    +0.043 A 
ATOM     14  C   UNL     1      -5.175  -6.556  -4.072  0.00  0.00    +0.025 A 
ATOM     15  C   UNL     1      -4.290  -6.765  -5.112  0.00  0.00    +0.023 A 
ATOM     16  C   UNL     1      -3.546  -5.711  -5.612  0.00  0.00    +0.059 A 
ATOM     17  C   UNL     1      -3.685  -4.444  -5.071  0.00  0.00    +0.061 A 
ATOM     18  C   UNL     1      -4.574  -4.228  -4.034  0.00  0.00    +0.045 A 
ATOM     19 CL   UNL     1      -2.749  -3.124  -5.700  0.00  0.00    -0.082 Cl
ATOM     20 CL   UNL     1      -2.435  -5.978  -6.919  0.00  0.00    -0.082 Cl
ENDBRANCH  11  13
BRANCH   1  22
ATOM     21  N   UNL     1      -4.431  -3.778  -0.530  0.00  0.00    -0.311 N 
ATOM     22  C   UNL     1      -4.615  -5.106  -0.671  0.00  0.00    +0.269 C 
ATOM     23  O   UNL     1      -3.712  -5.874  -0.419  0.00  0.00    -0.270 OA
ATOM     24  H   UNL     1      -5.154  -3.163  -0.732  0.00  0.00    +0.149 HD
BRANCH  21  25
ATOM     25  C   UNL     1      -3.137  -3.263  -0.074  0.00  0.00    +0.105 C 
BRANCH  25  26
ATOM     26  C   UNL     1      -3.193  -1.736  -0.001  0.00  0.00    -0.014 C 
ATOM     27  C   UNL     1      -4.199  -1.313   1.072  0.00  0.00    +0.007 C 
BRANCH  26  28
ATOM     28  C   UNL     1      -1.809  -1.191   0.355  0.00  0.00    -0.074 C 
BRANCH  28  29
ATOM     29  N   UNL     1      -1.845   0.278   0.355  0.00  0.00    +0.380 N 
ATOM     30  H   UNL     1      -2.579   0.596   0.970  0.00  0.00    -0.082 HD
BRANCH  29  32
ATOM     31  C   UNL     1      -0.633   2.323   0.939  0.00  0.00    -0.017 C 
ATOM     32  C   UNL     1      -0.554   0.800   0.821  0.00  0.00    -0.082 C 
ENDBRANCH  29  32
BRANCH  29  33
ATOM     33  C   UNL     1      -2.106   0.760  -1.008  0.00  0.00    -0.082 C 
ATOM     34  C   UNL     1      -0.999   0.268  -1.944  0.00  0.00    -0.017 C 
ENDBRANCH  29  33
ENDBRANCH  28  29
ENDBRANCH  26  28
ENDBRANCH  25  26
ENDBRANCH  21  25
ENDBRANCH   1  22
BRANCH   1  35
ATOM     35  O   UNL     1      -5.828  -7.053  -1.277  0.00  0.00    -0.360 OA
ATOM     36  H   UNL     1      -5.596  -7.509  -0.457  0.00  0.00    +0.213 HD
ENDBRANCH   1  35
TORSDOF 9
