REMARK  Name = ZINC56612864
REMARK  8 active torsions:
REMARK  status: ('A' for Active; 'I' for Inactive)
REMARK    1  A    between atoms: C_6  and  O_7
REMARK    2  A    between atoms: O_7  and  C_8
REMARK    3  A    between atoms: C_8  and  C_9
REMARK    4  A    between atoms: C_9  and  C_11
REMARK    5  A    between atoms: C_9  and  O_28
REMARK    6  A    between atoms: C_11  and  N_12
REMARK    7  A    between atoms: N_15  and  C_16
REMARK    8  A    between atoms: C_16  and  C_17
REMARK                            x       y       z     vdW  Elec       q    Type
REMARK                         _______ _______ _______ _____ _____    ______ ____
ROOT
ATOM      1  N   UNL     1      -3.721  -4.832   0.139  0.00  0.00    -0.297 N 
ATOM      2  C   UNL     1      -3.880  -6.167   0.235  0.00  0.00    +0.300 C 
ATOM      3  O   UNL     1      -2.906  -6.891   0.313  0.00  0.00    -0.253 OA
ATOM      4  N   UNL     1      -5.117  -6.700   0.244  0.00  0.00    -0.295 N 
ATOM      5  H   UNL     1      -4.498  -4.255   0.076  0.00  0.00    +0.150 HD
ATOM      6  H   UNL     1      -5.894  -6.122   0.182  0.00  0.00    +0.151 HD
ENDROOT
BRANCH   1   7
ATOM      7  C   UNL     1      -2.375  -4.253   0.129  0.00  0.00    +0.140 C 
BRANCH   7   8
ATOM      8  C   UNL     1      -2.476  -2.731   0.012  0.00  0.00    +0.169 C 
BRANCH   8   9
ATOM      9  O   UNL     1      -3.151  -2.390  -1.201  0.00  0.00    -0.387 OA
ATOM     10  H   UNL     1      -2.709  -2.708  -2.000  0.00  0.00    +0.210 HD
ENDBRANCH   8   9
BRANCH   8  11
ATOM     11  C   UNL     1      -1.071  -2.126   0.001  0.00  0.00    +0.261 C 
BRANCH  11  12
ATOM     12  O   UNL     1      -1.165  -0.700   0.010  0.00  0.00    -0.489 OA
BRANCH  12  18
ATOM     13  C   UNL     1      -0.017   1.383   0.010  0.00  0.00    +0.048 A 
ATOM     14  C   UNL     1       1.171   2.089   0.002  0.00  0.00    +0.042 A 
ATOM     15  C   UNL     1       2.379   1.413  -0.013  0.00  0.00    +0.124 A 
ATOM     16  C   UNL     1       2.399   0.029  -0.021  0.00  0.00    +0.042 A 
ATOM     17  C   UNL     1       1.213  -0.680  -0.014  0.00  0.00    +0.048 A 
ATOM     18  C   UNL     1       0.002  -0.004   0.002  0.00  0.00    +0.121 A 
ATOM     19  F   UNL     1       3.539   2.105  -0.020  0.00  0.00    -0.205 F 
ENDBRANCH  12  18
ENDBRANCH  11  12
ENDBRANCH   8  11
ENDBRANCH   7   8
ENDBRANCH   1   7
BRANCH   4  20
ATOM     20  C   UNL     1      -5.290  -8.151   0.349  0.00  0.00    +0.142 C 
BRANCH  20  21
ATOM     21  C   UNL     1      -6.759  -8.484   0.338  0.00  0.00    -0.014 A 
ATOM     22  C   UNL     1      -7.474  -8.544   1.527  0.00  0.00    +0.010 A 
ATOM     23  C   UNL     1      -8.821  -8.854   1.473  0.00  0.00    +0.042 A 
ATOM     24  C   UNL     1      -9.411  -9.093   0.236  0.00  0.00    +0.099 A 
ATOM     25  N   UNL     1      -8.695  -9.026  -0.876  0.00  0.00    -0.349 N 
ATOM     26  C   UNL     1      -7.410  -8.728  -0.855  0.00  0.00    +0.089 A 
ATOM     27  N   UNL     1     -10.764  -9.406   0.166  0.00  0.00    -0.317 N 
ATOM     28  C   UNL     1     -11.679  -9.509   1.312  0.00  0.00    +0.106 C 
ATOM     29  C   UNL     1     -13.065  -9.900   0.758  0.00  0.00    +0.020 C 
ATOM     30  C   UNL     1     -12.722 -10.548  -0.610  0.00  0.00    +0.020 C 
ATOM     31  C   UNL     1     -11.519  -9.682  -1.069  0.00  0.00    +0.106 C 
ATOM     32  H   UNL     1      -9.127  -9.197  -1.728  0.00  0.00    +0.167 HD
ENDBRANCH  20  21
ENDBRANCH   4  20
TORSDOF 8
