REMARK  Name = ZINC12589828
REMARK  7 active torsions:
REMARK  status: ('A' for Active; 'I' for Inactive)
REMARK    1  A    between atoms: C_6  and  C_7
REMARK    2  A    between atoms: C_7  and  C_12
REMARK    3  A    between atoms: N_14  and  C_15
REMARK    4  A    between atoms: C_17  and  S_22
REMARK    5  A    between atoms: C_20  and  O_21
REMARK    6  A    between atoms: S_22  and  N_25
REMARK    7  A    between atoms: N_25  and  C_26
REMARK                            x       y       z     vdW  Elec       q    Type
REMARK                         _______ _______ _______ _____ _____    ______ ____
ROOT
ATOM      1  C   UNL     1       0.031   4.405  -5.229  0.00  0.00    +0.077 A 
ATOM      2  C   UNL     1       1.353   4.532  -4.827  0.00  0.00    +0.055 A 
ATOM      3  C   UNL     1       2.264   5.177  -5.642  0.00  0.00    +0.110 A 
ATOM      4  C   UNL     1       1.861   5.697  -6.858  0.00  0.00    +0.032 A 
ATOM      5  C   UNL     1       0.546   5.576  -7.265  0.00  0.00    +0.049 A 
ATOM      6  C   UNL     1      -0.372   4.926  -6.457  0.00  0.00    +0.138 A 
ENDROOT
BRANCH   1   9
ATOM      7  C   UNL     1      -0.477   2.800  -3.546  0.00  0.00    +0.228 C 
ATOM      8  O   UNL     1       0.707   2.570  -3.424  0.00  0.00    -0.274 OA
ATOM      9  N   UNL     1      -0.894   3.752  -4.405  0.00  0.00    -0.282 N 
ATOM     10  H   UNL     1      -1.835   3.984  -4.452  0.00  0.00    +0.155 HD
BRANCH   7  11
ATOM     11  C   UNL     1      -1.483   2.022  -2.737  0.00  0.00    +0.072 C 
ATOM     12  C   UNL     1      -0.758   1.094  -1.747  0.00  0.00    +0.021 C 
ATOM     13  C   UNL     1      -1.200   1.526  -0.333  0.00  0.00    +0.001 C 
ATOM     14  C   UNL     1      -1.644   3.000  -0.508  0.00  0.00    +0.001 C 
ATOM     15  C   UNL     1      -2.341   2.986  -1.892  0.00  0.00    +0.021 C 
BRANCH  11  21
ATOM     16  C   UNL     1      -3.483   0.573  -3.146  0.00  0.00    +0.006 A 
ATOM     17  C   UNL     1      -4.296  -0.166  -3.985  0.00  0.00    +0.020 A 
ATOM     18  C   UNL     1      -3.987  -0.273  -5.329  0.00  0.00    +0.041 A 
ATOM     19  C   UNL     1      -2.866   0.362  -5.834  0.00  0.00    +0.020 A 
ATOM     20  C   UNL     1      -2.057   1.105  -4.995  0.00  0.00    +0.006 A 
ATOM     21  C   UNL     1      -2.366   1.212  -3.652  0.00  0.00    -0.032 A 
ATOM     22 CL   UNL     1      -5.004  -1.205  -6.382  0.00  0.00    -0.084 Cl
ENDBRANCH  11  21
ENDBRANCH   7  11
ENDBRANCH   1   9
BRANCH   3  23
ATOM     23  S   UNL     1       3.942   5.335  -5.130  0.00  0.00    +0.072 S 
ATOM     24  O   UNL     1       4.445   6.514  -5.745  0.00  0.00    -0.150 OA
ATOM     25  O   UNL     1       3.957   5.145  -3.722  0.00  0.00    -0.150 OA
BRANCH  23  26
ATOM     26  N   UNL     1       4.777   4.066  -5.788  0.00  0.00    -0.216 N 
ATOM     27  H   UNL     1       5.237   3.436  -5.211  0.00  0.00    +0.174 HD
BRANCH  26  28
ATOM     28  C   UNL     1       4.819   3.901  -7.175  0.00  0.00    +0.048 A 
ATOM     29  C   UNL     1       4.084   2.888  -7.778  0.00  0.00    +0.026 A 
ATOM     30  C   UNL     1       4.123   2.732  -9.150  0.00  0.00    +0.022 A 
ATOM     31  C   UNL     1       4.902   3.575  -9.922  0.00  0.00    +0.041 A 
ATOM     32  C   UNL     1       5.640   4.581  -9.323  0.00  0.00    +0.022 A 
ATOM     33  C   UNL     1       5.601   4.746  -7.953  0.00  0.00    +0.026 A 
ATOM     34 CL   UNL     1       4.955   3.370 -11.645  0.00  0.00    -0.084 Cl
ENDBRANCH  26  28
ENDBRANCH  23  26
ENDBRANCH   3  23
BRANCH   6  35
ATOM     35  O   UNL     1      -1.665   4.800  -6.858  0.00  0.00    -0.505 OA
ATOM     36  H   UNL     1      -2.235   5.532  -6.585  0.00  0.00    +0.292 HD
ENDBRANCH   6  35
TORSDOF 7
