REMARK  Name = ZINC27528980
REMARK  9 active torsions:
REMARK  status: ('A' for Active; 'I' for Inactive)
REMARK    1  A    between atoms: C_1  and  C_2
REMARK    2  A    between atoms: C_5  and  C_32
REMARK    3  A    between atoms: C_6  and  N_8
REMARK    4  A    between atoms: N_11  and  C_14
REMARK    5  A    between atoms: C_14  and  C_15
REMARK    6  A    between atoms: C_19  and  N_21
REMARK    7  A    between atoms: N_21  and  C_22
REMARK    8  A    between atoms: C_22  and  C_23
REMARK    9  A    between atoms: C_27  and  N_29
REMARK                            x       y       z     vdW  Elec       q    Type
REMARK                         _______ _______ _______ _____ _____    ______ ____
ROOT
ATOM      1  C   UNL     1      -2.369  -2.812   0.008  0.00  0.00    -0.062 A 
ATOM      2  C   UNL     1      -3.575  -2.135   0.023  0.00  0.00    +0.002 A 
ATOM      3  C   UNL     1      -3.596  -0.752   0.032  0.00  0.00    +0.002 A 
ATOM      4  C   UNL     1      -2.411  -0.042   0.025  0.00  0.00    +0.023 A 
ATOM      5  C   UNL     1      -1.198  -0.719   0.010  0.00  0.00    +0.028 A 
ATOM      6  C   UNL     1      -1.181  -2.108  -0.004  0.00  0.00    +0.024 A 
ENDROOT
BRANCH   5   7
ATOM      7  N   UNL     1       0.002  -0.004   0.002  0.00  0.00    -0.340 N 
ATOM      8  H   UNL     1       0.962  -0.541  -0.010  0.00  0.00    +0.146 HD
BRANCH   7   9
ATOM      9  C   UNL     1      -0.018   1.461   0.010  0.00  0.00    +0.137 C 
BRANCH   9  10
ATOM     10  C   UNL     1       1.396   1.982  -0.001  0.00  0.00    -0.028 A 
ATOM     11  C   UNL     1       2.033   2.228  -1.203  0.00  0.00    +0.005 A 
ATOM     12  C   UNL     1       3.330   2.707  -1.213  0.00  0.00    +0.003 A 
ATOM     13  C   UNL     1       3.990   2.940  -0.020  0.00  0.00    +0.033 A 
ATOM     14  C   UNL     1       3.353   2.695   1.182  0.00  0.00    +0.127 A 
ATOM     15  C   UNL     1       2.054   2.220   1.191  0.00  0.00    +0.038 A 
BRANCH  14  16
ATOM     16  N   UNL     1       4.059   2.945   2.458  0.00  0.00    +0.056 N 
ATOM     17  O   UNL     1       5.201   3.367   2.450  0.00  0.00    -0.126 OA
ATOM     18  O   UNL     1       3.498   2.728   3.517  0.00  0.00    -0.126 OA
ENDBRANCH  14  16
ENDBRANCH   9  10
ENDBRANCH   7   9
ENDBRANCH   5   7
BRANCH   1  19
ATOM     19  C   UNL     1      -2.352  -4.318  -0.002  0.00  0.00    -0.043 C 
BRANCH  19  23
ATOM     20  N   UNL     1      -3.305  -6.355  -3.578  0.00  0.00    -0.333 N 
ATOM     21  C   UNL     1      -2.040  -6.691  -2.910  0.00  0.00    +0.086 C 
ATOM     22  C   UNL     1      -2.104  -6.245  -1.447  0.00  0.00    -0.059 C 
ATOM     23  N   UNL     1      -2.358  -4.799  -1.390  0.00  0.00    +0.384 N 
ATOM     24  C   UNL     1      -3.624  -4.463  -2.057  0.00  0.00    -0.059 C 
ATOM     25  C   UNL     1      -3.560  -4.909  -3.520  0.00  0.00    +0.086 C 
ATOM     26  H   UNL     1      -1.545  -4.289  -1.927  0.00  0.00    -0.081 HD
BRANCH  20  32
ATOM     27  C   UNL     1      -1.326  -6.320  -8.076  0.00  0.00    +0.044 C 
ATOM     28  C   UNL     1      -2.364  -6.812  -7.100  0.00  0.00    -0.049 A 
ATOM     29  C   UNL     1      -3.324  -7.719  -7.512  0.00  0.00    +0.004 A 
ATOM     30  C   UNL     1      -4.277  -8.173  -6.620  0.00  0.00    +0.005 A 
ATOM     31  C   UNL     1      -4.271  -7.727  -5.313  0.00  0.00    -0.029 A 
ATOM     32  C   UNL     1      -3.312  -6.812  -4.897  0.00  0.00    +0.033 A 
ATOM     33  C   UNL     1      -2.355  -6.358  -5.796  0.00  0.00    +0.026 A 
ATOM     34  C   UNL     1      -5.308  -8.227  -4.340  0.00  0.00    +0.045 C 
ENDBRANCH  20  32
ENDBRANCH  19  23
ENDBRANCH   1  19
TORSDOF 7
