REMARK  Name = ZINC15870007
REMARK  5 active torsions:
REMARK  status: ('A' for Active; 'I' for Inactive)
REMARK    1  A    between atoms: C_1  and  C_2
REMARK    2  A    between atoms: C_2  and  C_3
REMARK    3  A    between atoms: C_10  and  N_15
REMARK    4  A    between atoms: N_15  and  S_16
REMARK    5  A    between atoms: S_16  and  C_19
REMARK                            x       y       z     vdW  Elec       q    Type
REMARK                         _______ _______ _______ _____ _____    ______ ____
ROOT
ATOM      1  C   UNL     1      -5.145  -1.485   7.958  0.00  0.00    +0.218 C 
ATOM      2  O   UNL     1      -5.573  -0.382   7.690  0.00  0.00    -0.275 OA
ATOM      3  N   UNL     1      -4.147  -2.018   7.225  0.00  0.00    -0.265 N 
ATOM      4  C   UNL     1      -3.609  -1.305   6.166  0.00  0.00    +0.165 A 
ATOM      5  N   UNL     1      -2.644  -1.651   5.346  0.00  0.00    -0.225 NA
ATOM      6  C   UNL     1      -2.217  -0.848   4.348  0.00  0.00    +0.082 A 
ATOM      7  C   UNL     1      -1.195  -1.100   3.403  0.00  0.00    +0.053 A 
ATOM      8  C   UNL     1      -0.882  -0.167   2.442  0.00  0.00    +0.050 A 
ATOM      9  C   UNL     1      -1.552   1.053   2.370  0.00  0.00    +0.026 A 
ATOM     10  C   UNL     1      -2.559   1.324   3.277  0.00  0.00    +0.019 A 
ATOM     11  C   UNL     1      -2.876   0.397   4.238  0.00  0.00    +0.041 A 
ATOM     12  S   UNL     1      -4.052   0.320   5.569  0.00  0.00    -0.052 S 
ATOM     13  H   UNL     1      -3.805  -2.900   7.440  0.00  0.00    +0.157 HD
ENDROOT
BRANCH   1  15
ATOM     14  C   UNL     1      -6.839  -1.437   9.769  0.00  0.00    +0.013 C 
ATOM     15  C   UNL     1      -5.731  -2.260   9.110  0.00  0.00    +0.093 C 
ENDBRANCH   1  15
BRANCH   8  16
ATOM     16  N   UNL     1       0.134  -0.446   1.521  0.00  0.00    -0.216 N 
ATOM     17  H   UNL     1       0.996  -0.007   1.601  0.00  0.00    +0.174 HD
BRANCH  16  18
ATOM     18  S   UNL     1      -0.134  -1.524   0.293  0.00  0.00    +0.072 S 
ATOM     19  O   UNL     1      -0.667  -2.697   0.893  0.00  0.00    -0.150 OA
ATOM     20  O   UNL     1       1.047  -1.542  -0.497  0.00  0.00    -0.150 OA
BRANCH  18  21
ATOM     21  C   UNL     1      -1.409  -0.853  -0.721  0.00  0.00    +0.109 A 
ATOM     22  C   UNL     1      -2.723  -1.236  -0.523  0.00  0.00    +0.030 A 
ATOM     23  C   UNL     1      -3.724  -0.707  -1.315  0.00  0.00    +0.017 A 
ATOM     24  C   UNL     1      -3.410   0.199  -2.313  0.00  0.00    +0.018 A 
ATOM     25  C   UNL     1      -2.095   0.578  -2.513  0.00  0.00    +0.017 A 
ATOM     26  C   UNL     1      -1.095   0.052  -1.718  0.00  0.00    +0.030 A 
ATOM     27 BR   UNL     1      -4.779   0.919  -3.401  0.00  0.00    -0.050 Br
ENDBRANCH  18  21
ENDBRANCH  16  18
ENDBRANCH   8  16
TORSDOF 4
