REMARK  Name = ZINC35849496
REMARK  5 active torsions:
REMARK  status: ('A' for Active; 'I' for Inactive)
REMARK    1  A    between atoms: C_1  and  C_2
REMARK    2  A    between atoms: C_2  and  C_4
REMARK    3  A    between atoms: C_19  and  C_21
REMARK    4  A    between atoms: C_21  and  C_22
REMARK    5  A    between atoms: C_21  and  C_23
REMARK                            x       y       z     vdW  Elec       q    Type
REMARK                         _______ _______ _______ _____ _____    ______ ____
ROOT
ATOM      1  C   UNL     1       1.537   0.396  -0.136  0.00  0.00    +0.233 C 
ATOM      2  O   UNL     1       1.887   1.558  -0.154  0.00  0.00    -0.274 OA
ATOM      3  N   UNL     1       2.461  -0.585  -0.150  0.00  0.00    -0.297 N 
ATOM      4  C   UNL     1       3.893  -0.266  -0.080  0.00  0.00    +0.126 C 
ATOM      5  C   UNL     1       4.508  -1.026   1.102  0.00  0.00    +0.125 C 
ATOM      6  N   UNL     1       4.100  -2.436   1.016  0.00  0.00    -0.312 N 
ATOM      7  C   UNL     1       2.667  -2.755   0.946  0.00  0.00    +0.125 C 
ATOM      8  C   UNL     1       2.053  -1.995  -0.230  0.00  0.00    +0.126 C 
ATOM      9  C   UNL     1       5.048  -3.443   1.001  0.00  0.00    +0.133 A 
ATOM     10  C   UNL     1       5.562  -3.967   2.220  0.00  0.00    +0.051 A 
ATOM     11  C   UNL     1       5.231  -3.586   3.594  0.00  0.00    -0.025 A 
ATOM     12  C   UNL     1       5.868  -4.245   4.582  0.00  0.00    -0.004 A 
ATOM     13  S   UNL     1       6.933  -5.398   3.757  0.00  0.00    -0.073 S 
ATOM     14  C   UNL     1       6.521  -4.990   2.081  0.00  0.00    +0.114 A 
ATOM     15  N   UNL     1       6.905  -5.420   0.895  0.00  0.00    -0.224 NA
ATOM     16  C   UNL     1       6.392  -4.894  -0.201  0.00  0.00    +0.135 A 
ATOM     17  N   UNL     1       5.484  -3.937  -0.147  0.00  0.00    -0.216 NA
ATOM     18  C   UNL     1       5.708  -4.043   6.058  0.00  0.00    +0.043 C 
ATOM     19  C   UNL     1       4.981  -2.711   6.289  0.00  0.00    +0.005 C 
ATOM     20  C   UNL     1       3.760  -2.653   5.366  0.00  0.00    +0.005 C 
ATOM     21  C   UNL     1       4.214  -2.494   3.915  0.00  0.00    +0.037 C 
ENDROOT
BRANCH   1  23
ATOM     22  C   UNL     1      -0.692   0.956  -1.066  0.00  0.00    +0.034 C 
ATOM     23  C   UNL     1       0.071   0.051  -0.097  0.00  0.00    +0.163 C 
ATOM     24 CL   UNL     1      -0.559   0.294   1.575  0.00  0.00    -0.112 Cl
ENDBRANCH   1  23
BRANCH  16  25
ATOM     25  C   UNL     1       6.848  -5.403  -1.545  0.00  0.00    +0.051 C 
ATOM     26  C   UNL     1       8.355  -5.185  -1.688  0.00  0.00    +0.015 C 
ATOM     27  C   UNL     1       6.535  -6.896  -1.658  0.00  0.00    +0.015 C 
ENDBRANCH  16  25
TORSDOF 2
