REMARK  Name = ZINC36058680
REMARK  14 active torsions:
REMARK  status: ('A' for Active; 'I' for Inactive)
REMARK    1  A    between atoms: C_1  and  C_2
REMARK    2  A    between atoms: C_3  and  C_33
REMARK    3  A    between atoms: C_4  and  C_23
REMARK    4  A    between atoms: C_7  and  C_12
REMARK    5  A    between atoms: C_13  and  N_15
REMARK    6  A    between atoms: N_15  and  C_16
REMARK    7  A    between atoms: C_16  and  C_17
REMARK    8  A    between atoms: C_26  and  O_31
REMARK    9  A    between atoms: C_28  and  O_29
REMARK   10  A    between atoms: O_29  and  C_30
REMARK   11  A    between atoms: O_31  and  C_32
REMARK   12  A    between atoms: C_33  and  O_35
REMARK   13  A    between atoms: O_35  and  C_36
REMARK   14  A    between atoms: C_36  and  C_37
REMARK                            x       y       z     vdW  Elec       q    Type
REMARK                         _______ _______ _______ _____ _____    ______ ____
ROOT
ATOM      1  C   UNL     1       1.059   0.824   0.337  0.00  0.00    +0.066 C 
ATOM      2  C   UNL     1       0.702  -0.627   0.529  0.00  0.00    +0.053 C 
ATOM      3  C   UNL     1      -0.622  -1.020   0.481  0.00  0.00    +0.083 C 
ATOM      4  C   UNL     1      -0.929  -2.488   0.680  0.00  0.00    +0.153 C 
ATOM      5  N   UNL     1       0.225  -3.396   0.912  0.00  0.00    -0.267 N 
ATOM      6  C   UNL     1       0.182  -4.761   1.115  0.00  0.00    +0.048 C 
ATOM      7  C   UNL     1       1.354  -5.404   1.308  0.00  0.00    +0.072 C 
ATOM      8  S   UNL     1       2.529  -4.068   1.201  0.00  0.00    -0.060 S 
ATOM      9  C   UNL     1       1.458  -2.806   0.922  0.00  0.00    +0.166 C 
ATOM     10  N   UNL     1       1.658  -1.517   0.737  0.00  0.00    -0.230 NA
ENDROOT
BRANCH   4  11
ATOM     11  C   UNL     1      -1.665  -2.977  -0.541  0.00  0.00    +0.020 A 
ATOM     12  C   UNL     1      -3.020  -3.240  -0.472  0.00  0.00    +0.013 A 
ATOM     13  C   UNL     1      -3.697  -3.688  -1.589  0.00  0.00    +0.046 A 
ATOM     14  C   UNL     1      -3.018  -3.876  -2.785  0.00  0.00    +0.124 A 
ATOM     15  C   UNL     1      -1.659  -3.613  -2.857  0.00  0.00    +0.091 A 
ATOM     16  C   UNL     1      -0.982  -3.157  -1.736  0.00  0.00    +0.129 A 
BRANCH  16  17
ATOM     17  O   UNL     1       0.349  -2.893  -1.805  0.00  0.00    -0.495 OA
ATOM     18  C   UNL     1       0.966  -3.000  -3.090  0.00  0.00    +0.277 C 
ENDBRANCH  16  17
BRANCH  14  19
ATOM     19  O   UNL     1      -3.684  -4.317  -3.884  0.00  0.00    -0.495 OA
ATOM     20  C   UNL     1      -5.083  -4.569  -3.737  0.00  0.00    +0.277 C 
ENDBRANCH  14  19
ENDBRANCH   4  11
BRANCH   6  21
ATOM     21  C   UNL     1      -1.095  -5.489   1.123  0.00  0.00    +0.091 C 
ATOM     22  C   UNL     1      -1.125  -6.794   1.453  0.00  0.00    +0.239 C 
ATOM     23  O   UNL     1       0.033  -7.465   1.667  0.00  0.00    -0.271 OA
BRANCH  22  24
ATOM     24  N   UNL     1      -2.338  -7.450   1.574  0.00  0.00    -0.308 N 
ATOM     25  H   UNL     1      -3.167  -6.970   1.421  0.00  0.00    +0.149 HD
BRANCH  24  26
ATOM     26  C   UNL     1      -2.370  -8.870   1.933  0.00  0.00    +0.140 C 
BRANCH  26  27
ATOM     27  C   UNL     1      -3.800  -9.340   1.998  0.00  0.00    -0.027 A 
ATOM     28  C   UNL     1      -4.519  -9.263   3.182  0.00  0.00    +0.025 A 
ATOM     29  C   UNL     1      -5.829  -9.703   3.203  0.00  0.00    +0.111 A 
ATOM     30  N   UNL     1      -6.395 -10.192   2.117  0.00  0.00    -0.263 NA
ATOM     31  C   UNL     1      -5.741 -10.280   0.975  0.00  0.00    +0.111 A 
ATOM     32  C   UNL     1      -4.431  -9.854   0.875  0.00  0.00    +0.025 A 
ENDBRANCH  26  27
ENDBRANCH  24  26
ENDBRANCH  22  24
ENDBRANCH   6  21
BRANCH   3  33
ATOM     33  C   UNL     1      -1.645  -0.091   0.257  0.00  0.00    +0.339 C 
ATOM     34  O   UNL     1      -1.381   1.096   0.170  0.00  0.00    -0.245 OA
BRANCH  33  35
ATOM     35  O   UNL     1      -2.924  -0.510   0.138  0.00  0.00    -0.457 OA
BRANCH  35  36
ATOM     36  C   UNL     1      -3.901   0.477  -0.200  0.00  0.00    +0.259 C 
BRANCH  36  37
ATOM     37  C   UNL     1      -5.274  -0.144  -0.170  0.00  0.00    +0.006 C 
ATOM     38  C   UNL     1      -6.247   0.450   0.475  0.00  0.00    +0.007 C 
ENDBRANCH  36  37
ENDBRANCH  35  36
ENDBRANCH  33  35
ENDBRANCH   3  33
TORSDOF 11
