REMARK  Name = ZINC13033290
REMARK  14 active torsions:
REMARK  status: ('A' for Active; 'I' for Inactive)
REMARK    1  A    between atoms: C_1  and  C_2
REMARK    2  A    between atoms: C_2  and  C_3
REMARK    3  A    between atoms: C_10  and  C_15
REMARK    4  A    between atoms: C_15  and  N_68
REMARK    5  A    between atoms: C_16  and  C_17
REMARK    6  A    between atoms: C_16  and  N_68
REMARK    7  A    between atoms: C_20  and  C_23
REMARK    8  A    between atoms: C_24  and  C_25
REMARK    9  A    between atoms: C_24  and  N_68
REMARK   10  A    between atoms: N_29  and  C_30
REMARK   11  A    between atoms: C_30  and  C_31
REMARK   12  A    between atoms: C_30  and  C_32
REMARK   13  A    between atoms: C_30  and  C_33
REMARK   14  A    between atoms: C_33  and  C_34
REMARK                            x       y       z     vdW  Elec       q    Type
REMARK                         _______ _______ _______ _____ _____    ______ ____
ROOT
ATOM      1  N   UNL     1       1.691  -3.112  -1.349  0.00  0.00    +0.390 N 
ATOM      2  H   UNL     1       0.998  -2.963  -2.091  0.00  0.00    -0.080 HD
ENDROOT
BRANCH   1   3
ATOM      3  C   UNL     1       1.732  -4.550  -1.011  0.00  0.00    -0.036 C 
BRANCH   3  11
ATOM      4  C   UNL     1       4.774  -7.679  -5.398  0.00  0.00    -0.047 A 
ATOM      5  C   UNL     1       3.666  -7.961  -6.184  0.00  0.00    +0.005 A 
ATOM      6  C   UNL     1       2.411  -7.528  -5.814  0.00  0.00    +0.026 A 
ATOM      7  C   UNL     1       2.251  -6.800  -4.639  0.00  0.00    +0.049 A 
ATOM      8  C   UNL     1       3.377  -6.516  -3.844  0.00  0.00    -0.001 A 
ATOM      9  C   UNL     1       4.641  -6.966  -4.240  0.00  0.00    +0.013 A 
ATOM     10  C   UNL     1       3.199  -5.750  -2.609  0.00  0.00    +0.017 A 
ATOM     11  C   UNL     1       1.950  -5.341  -2.275  0.00  0.00    +0.001 A 
ATOM     12  C   UNL     1       0.853  -5.657  -3.105  0.00  0.00    +0.251 A 
ATOM     13  O   UNL     1      -0.262  -5.284  -2.784  0.00  0.00    -0.268 OA
ATOM     14  N   UNL     1       1.008  -6.356  -4.243  0.00  0.00    -0.322 N 
ATOM     15  H   UNL     1       0.233  -6.552  -4.792  0.00  0.00    +0.169 HD
BRANCH   4  17
ATOM     16  C   UNL     1       6.390  -9.553  -5.238  0.00  0.00    +0.009 C 
ATOM     17  C   UNL     1       6.136  -8.163  -5.824  0.00  0.00    +0.032 C 
ENDBRANCH   4  17
ENDBRANCH   3  11
ENDBRANCH   1   3
BRANCH   1  18
ATOM     18  C   UNL     1       1.298  -2.325  -0.161  0.00  0.00    -0.042 C 
BRANCH  18  19
ATOM     19  C   UNL     1       1.051  -0.899  -0.582  0.00  0.00    -0.064 A 
ATOM     20  C   UNL     1      -0.208  -0.511  -1.000  0.00  0.00    +0.002 A 
ATOM     21  C   UNL     1      -0.436   0.797  -1.385  0.00  0.00    +0.003 A 
ATOM     22  C   UNL     1       0.596   1.716  -1.353  0.00  0.00    -0.050 A 
ATOM     23  C   UNL     1       1.855   1.328  -0.936  0.00  0.00    +0.003 A 
ATOM     24  C   UNL     1       2.083   0.020  -0.550  0.00  0.00    +0.002 A 
ATOM     25  C   UNL     1       0.348   3.142  -1.773  0.00  0.00    +0.044 C 
ENDBRANCH  18  19
ENDBRANCH   1  18
BRANCH   1  26
ATOM     26  C   UNL     1       3.016  -2.669  -1.832  0.00  0.00    +0.001 C 
BRANCH  26  27
ATOM     27  C   UNL     1       4.055  -2.834  -0.753  0.00  0.00    +0.136 A 
ATOM     28  N   UNL     1       3.869  -3.339   0.442  0.00  0.00    -0.115 NA
ATOM     29  N   UNL     1       4.995  -3.308   1.067  0.00  0.00    -0.023 NA
ATOM     30  N   UNL     1       5.895  -2.797   0.301  0.00  0.00    -0.043 NA
ATOM     31  N   UNL     1       5.356  -2.497  -0.832  0.00  0.00    -0.226 N 
BRANCH  31  32
ATOM     32  C   UNL     1       6.031  -1.897  -1.985  0.00  0.00    +0.061 C 
ATOM     33  C   UNL     1       5.831  -2.788  -3.213  0.00  0.00    +0.036 C 
ATOM     34  C   UNL     1       5.442  -0.512  -2.259  0.00  0.00    +0.036 C 
BRANCH  32  35
ATOM     35  C   UNL     1       7.526  -1.766  -1.689  0.00  0.00    +0.026 C 
ATOM     36  C   UNL     1       8.213  -1.035  -2.845  0.00  0.00    +0.006 C 
ENDBRANCH  32  35
ENDBRANCH  31  32
ENDBRANCH  26  27
ENDBRANCH   1  26
TORSDOF 9
