REMARK  Name = ZINC00842136
REMARK  5 active torsions:
REMARK  status: ('A' for Active; 'I' for Inactive)
REMARK    1  A    between atoms: C_4  and  C_7
REMARK    2  A    between atoms: C_18  and  C_19
REMARK    3  A    between atoms: C_22  and  C_25
REMARK    4  A    between atoms: C_31  and  C_33
REMARK    5  A    between atoms: C_33  and  N_65
REMARK                            x       y       z     vdW  Elec       q    Type
REMARK                         _______ _______ _______ _____ _____    ______ ____
ROOT
ATOM      1  C   UNL     1       3.230   3.253  -2.329  0.00  0.00    +0.075 C 
ATOM      2  N   UNL     1       3.589   3.900  -3.387  0.00  0.00    -0.181 NA
ATOM      3  N   UNL     1       2.615   3.947  -4.382  0.00  0.00    -0.187 N 
ATOM      4  C   UNL     1       1.419   3.230  -3.913  0.00  0.00    +0.137 C 
ATOM      5  C   UNL     1       1.817   2.744  -2.505  0.00  0.00    +0.087 C 
ATOM      6  C   UNL     1       2.745   4.556  -5.577  0.00  0.00    +0.219 C 
ATOM      7  O   UNL     1       1.827   4.539  -6.370  0.00  0.00    -0.276 OA
ENDROOT
BRANCH   1  19
ATOM      8  C   UNL     1       4.829   1.889  -0.998  0.00  0.00    +0.005 A 
ATOM      9  C   UNL     1       5.640   1.733   0.218  0.00  0.00    +0.008 A 
ATOM     10  C   UNL     1       6.431   0.594   0.403  0.00  0.00    +0.025 A 
ATOM     11  C   UNL     1       7.188   0.468   1.546  0.00  0.00    +0.019 A 
ATOM     12  C   UNL     1       7.174   1.467   2.511  0.00  0.00    +0.017 A 
ATOM     13  C   UNL     1       6.405   2.597   2.340  0.00  0.00    +0.027 A 
ATOM     14  C   UNL     1       5.631   2.747   1.192  0.00  0.00    +0.050 A 
ATOM     15  N   UNL     1       4.859   3.878   1.020  0.00  0.00    -0.322 N 
ATOM     16  H   UNL     1       4.865   4.584   1.728  0.00  0.00    +0.169 HD
ATOM     17  C   UNL     1       4.100   4.057  -0.075  0.00  0.00    +0.259 A 
ATOM     18  O   UNL     1       3.435   5.072  -0.186  0.00  0.00    -0.267 OA
ATOM     19  C   UNL     1       4.062   3.048  -1.137  0.00  0.00    +0.070 A 
ATOM     20 BR   UNL     1       8.252  -1.074   1.804  0.00  0.00    -0.050 Br
BRANCH   8  24
ATOM     21  C   UNL     1       4.806  -1.113  -4.001  0.00  0.00    +0.000 A 
ATOM     22  C   UNL     1       3.674  -0.897  -3.235  0.00  0.00    +0.001 A 
ATOM     23  C   UNL     1       3.674   0.077  -2.258  0.00  0.00    +0.008 A 
ATOM     24  C   UNL     1       4.821   0.845  -2.042  0.00  0.00    -0.016 A 
ATOM     25  C   UNL     1       5.960   0.621  -2.820  0.00  0.00    +0.008 A 
ATOM     26  C   UNL     1       5.945  -0.355  -3.793  0.00  0.00    +0.001 A 
ENDBRANCH   8  24
ENDBRANCH   1  19
BRANCH   4  27
ATOM     27  C   UNL     1       0.235   4.159  -3.838  0.00  0.00    -0.025 A 
ATOM     28  C   UNL     1       0.416   5.481  -3.479  0.00  0.00    +0.005 A 
ATOM     29  C   UNL     1      -0.670   6.335  -3.415  0.00  0.00    +0.000 A 
ATOM     30  C   UNL     1      -1.938   5.863  -3.699  0.00  0.00    +0.000 A 
ATOM     31  C   UNL     1      -2.119   4.539  -4.053  0.00  0.00    +0.000 A 
ATOM     32  C   UNL     1      -1.033   3.687  -4.122  0.00  0.00    +0.005 A 
ENDBRANCH   4  27
BRANCH   6  33
ATOM     33  C   UNL     1       4.032   5.258  -5.930  0.00  0.00    +0.021 C 
BRANCH  33  39
ATOM     34  C   UNL     1       3.815   4.781  -8.295  0.00  0.00    -0.050 C 
ATOM     35  C   UNL     1       3.642   5.426  -9.672  0.00  0.00    +0.141 C 
ATOM     36  O   UNL     1       4.739   6.310  -9.920  0.00  0.00    -0.383 OA
ATOM     37  C   UNL     1       4.872   7.350  -8.947  0.00  0.00    +0.141 C 
ATOM     38  C   UNL     1       5.057   6.724  -7.562  0.00  0.00    -0.050 C 
ATOM     39  N   UNL     1       3.899   5.851  -7.278  0.00  0.00    +0.388 N 
ATOM     40  H   UNL     1       3.040   6.412  -7.312  0.00  0.00    -0.081 HD
ENDBRANCH  33  39
ENDBRANCH   6  33
TORSDOF 5
