REMARK  Name = ZINC34677782
REMARK  13 active torsions:
REMARK  status: ('A' for Active; 'I' for Inactive)
REMARK    1  A    between atoms: C_1  and  C_2
REMARK    2  A    between atoms: C_2  and  C_3
REMARK    3  A    between atoms: C_3  and  C_4
REMARK    4  A    between atoms: C_4  and  C_5
REMARK    5  A    between atoms: C_5  and  C_7
REMARK    6  A    between atoms: C_5  and  O_36
REMARK    7  A    between atoms: C_7  and  N_8
REMARK    8  A    between atoms: N_11  and  C_14
REMARK    9  A    between atoms: C_14  and  C_15
REMARK   10  A    between atoms: C_17  and  C_20
REMARK   11  A    between atoms: N_25  and  C_28
REMARK   12  A    between atoms: C_29  and  C_35
REMARK   13  A    between atoms: C_33  and  C_34
REMARK                            x       y       z     vdW  Elec       q    Type
REMARK                         _______ _______ _______ _____ _____    ______ ____
ROOT
ATOM      1  C   UNL     1       4.029  -7.583  -7.298  0.00  0.00    +0.179 A 
ATOM      2  N   UNL     1       3.279  -8.431  -7.936  0.00  0.00    -0.210 NA
ATOM      3  C   UNL     1       3.807  -9.675  -7.782  0.00  0.00    +0.164 A 
ATOM      4  C   UNL     1       4.923  -9.544  -7.014  0.00  0.00    +0.230 A 
ATOM      5  O   UNL     1       5.049  -8.239  -6.727  0.00  0.00    -0.449 OA
ENDROOT
BRANCH   3   6
ATOM      6  C   UNL     1       3.270 -10.929  -8.341  0.00  0.00    +0.268 C 
ATOM      7  O   UNL     1       3.772 -11.994  -8.035  0.00  0.00    -0.268 OA
ATOM      8  N   UNL     1       2.224 -10.896  -9.190  0.00  0.00    -0.293 N 
ATOM      9  C   UNL     1       1.539  -9.629  -9.482  0.00  0.00    +0.127 C 
ATOM     10  C   UNL     1       1.538  -9.412 -11.001  0.00  0.00    +0.124 C 
ATOM     11  N   UNL     1       1.062 -10.642 -11.651  0.00  0.00    -0.326 N 
ATOM     12  C   UNL     1       1.748 -11.908 -11.358  0.00  0.00    +0.124 C 
ATOM     13  C   UNL     1       1.752 -12.124  -9.844  0.00  0.00    +0.127 C 
BRANCH  11  14
ATOM     14  C   UNL     1      -0.022 -10.607 -12.530  0.00  0.00    +0.036 A 
ATOM     15  C   UNL     1      -1.314 -10.778 -12.050  0.00  0.00    -0.029 A 
ATOM     16  C   UNL     1      -2.384 -10.743 -12.923  0.00  0.00    +0.005 A 
ATOM     17  C   UNL     1      -2.170 -10.538 -14.274  0.00  0.00    +0.001 A 
ATOM     18  C   UNL     1      -0.885 -10.367 -14.755  0.00  0.00    +0.005 A 
ATOM     19  C   UNL     1       0.189 -10.395 -13.887  0.00  0.00    -0.029 A 
ATOM     20  C   UNL     1       1.589 -10.202 -14.412  0.00  0.00    +0.045 C 
ATOM     21  C   UNL     1      -1.548 -11.003 -10.579  0.00  0.00    +0.045 C 
ENDBRANCH  11  14
ENDBRANCH   3   6
BRANCH   1  22
ATOM     22  C   UNL     1       3.794  -6.096  -7.220  0.00  0.00    +0.019 C 
BRANCH  22  26
ATOM     23  N   UNL     1       2.457  -4.417  -3.598  0.00  0.00    -0.303 NA
ATOM     24  C   UNL     1       1.745  -4.051  -4.830  0.00  0.00    +0.066 C 
ATOM     25  C   UNL     1       2.630  -4.363  -6.039  0.00  0.00    -0.063 C 
ATOM     26  N   UNL     1       2.959  -5.794  -6.049  0.00  0.00    +0.387 N 
ATOM     27  C   UNL     1       3.691  -6.139  -4.824  0.00  0.00    -0.063 C 
ATOM     28  C   UNL     1       2.814  -5.842  -3.605  0.00  0.00    +0.066 C 
ATOM     29  H   UNL     1       2.108  -6.334  -6.095  0.00  0.00    -0.081 HD
BRANCH  23  30
ATOM     30  C   UNL     1       1.661  -4.080  -2.410  0.00  0.00    +0.115 C 
BRANCH  30  31
ATOM     31  C   UNL     1       2.574  -4.020  -1.184  0.00  0.00    +0.128 C 
BRANCH  31  32
ATOM     32  O   UNL     1       3.573  -3.018  -1.383  0.00  0.00    -0.391 OA
ATOM     33  H   UNL     1       3.218  -2.129  -1.517  0.00  0.00    +0.210 HD
ENDBRANCH  31  32
BRANCH  31  34
ATOM     34  C   UNL     1       1.744  -3.674   0.054  0.00  0.00    +0.032 C 
BRANCH  34  35
ATOM     35  C   UNL     1       2.633  -3.736   1.298  0.00  0.00    +0.002 C 
BRANCH  35  37
ATOM     36  C   UNL     1       2.692  -3.453   3.779  0.00  0.00    +0.004 C 
ATOM     37  C   UNL     1       1.803  -3.390   2.535  0.00  0.00    -0.003 C 
ENDBRANCH  35  37
ENDBRANCH  34  35
ENDBRANCH  31  34
ENDBRANCH  30  31
ENDBRANCH  23  30
ENDBRANCH  22  26
ENDBRANCH   1  22
TORSDOF 10
