REMARK  Name = ZINC59894323
REMARK  11 active torsions:
REMARK  status: ('A' for Active; 'I' for Inactive)
REMARK    1  A    between atoms: C_1  and  O_2
REMARK    2  A    between atoms: O_2  and  C_3
REMARK    3  A    between atoms: C_5  and  C_14
REMARK    4  A    between atoms: C_8  and  O_9
REMARK    5  A    between atoms: O_9  and  C_10
REMARK    6  A    between atoms: C_10  and  C_11
REMARK    7  A    between atoms: C_15  and  C_16
REMARK    8  A    between atoms: N_18  and  C_19
REMARK    9  A    between atoms: C_19  and  C_20
REMARK   10  A    between atoms: C_20  and  C_22
REMARK   11  A    between atoms: C_20  and  N_29
REMARK                            x       y       z     vdW  Elec       q    Type
REMARK                         _______ _______ _______ _____ _____    ______ ____
ROOT
ATOM      1  C   UNL     1       3.680   0.486  -6.261  0.00  0.00    +0.237 C 
ATOM      2  O   UNL     1       3.767   1.690  -6.104  0.00  0.00    -0.271 OA
ATOM      3  N   UNL     1       4.215  -0.090  -7.356  0.00  0.00    -0.313 N 
ATOM      4  H   UNL     1       4.146  -1.050  -7.481  0.00  0.00    +0.149 HD
ENDROOT
BRANCH   1   6
ATOM      5  C   UNL     1       2.462   0.243  -4.165  0.00  0.00    +0.013 C 
ATOM      6  C   UNL     1       2.997  -0.335  -5.262  0.00  0.00    +0.068 C 
BRANCH   5   9
ATOM      7  C   UNL     1       0.574  -0.766  -1.085  0.00  0.00    +0.162 A 
ATOM      8  C   UNL     1       1.219   0.014  -2.024  0.00  0.00    +0.057 A 
ATOM      9  C   UNL     1       1.774  -0.583  -3.162  0.00  0.00    -0.021 A 
ATOM     10  C   UNL     1       1.674  -1.967  -3.341  0.00  0.00    +0.012 A 
ATOM     11  C   UNL     1       1.029  -2.738  -2.398  0.00  0.00    +0.050 A 
ATOM     12  C   UNL     1       0.483  -2.146  -1.267  0.00  0.00    +0.163 A 
BRANCH   7  14
ATOM     13  C   UNL     1       0.163   1.228   0.145  0.00  0.00    +0.277 C 
ATOM     14  O   UNL     1       0.033  -0.190   0.022  0.00  0.00    -0.491 OA
ENDBRANCH   7  14
BRANCH  12  15
ATOM     15  O   UNL     1      -0.147  -2.911  -0.339  0.00  0.00    -0.479 OA
BRANCH  15  16
ATOM     16  C   UNL     1      -0.204  -4.317  -0.589  0.00  0.00    +0.324 C 
BRANCH  16  17
ATOM     17  C   UNL     1      -0.934  -4.998   0.540  0.00  0.00    +0.248 C 
ATOM     18  O   UNL     1      -1.364  -4.345   1.467  0.00  0.00    -0.272 OA
ATOM     19  N   UNL     1      -1.111  -6.335   0.519  0.00  0.00    -0.327 N 
ATOM     20  H   UNL     1      -0.767  -6.858  -0.222  0.00  0.00    +0.145 HD
ATOM     21  H   UNL     1      -1.581  -6.773   1.246  0.00  0.00    +0.145 HD
ENDBRANCH  16  17
ENDBRANCH  15  16
ENDBRANCH  12  15
ENDBRANCH   5   9
ENDBRANCH   1   6
BRANCH   3  22
ATOM     22  C   UNL     1       4.900   0.732  -8.356  0.00  0.00    +0.094 C 
BRANCH  22  23
ATOM     23  C   UNL     1       5.502  -0.172  -9.434  0.00  0.00    -0.020 C 
BRANCH  23  24
ATOM     24  C   UNL     1       4.394  -0.858 -10.190  0.00  0.00    -0.058 A 
ATOM     25  C   UNL     1       3.718  -0.183 -11.190  0.00  0.00    +0.002 A 
ATOM     26  C   UNL     1       2.702  -0.812 -11.885  0.00  0.00    +0.002 A 
ATOM     27  C   UNL     1       2.360  -2.116 -11.580  0.00  0.00    +0.020 A 
ATOM     28  C   UNL     1       3.035  -2.792 -10.579  0.00  0.00    +0.041 A 
ATOM     29  C   UNL     1       4.057  -2.164  -9.889  0.00  0.00    +0.022 A 
ATOM     30 CL   UNL     1       2.606  -4.430 -10.195  0.00  0.00    -0.084 Cl
ENDBRANCH  23  24
BRANCH  23  31
ATOM     31  N   UNL     1       6.300   0.639 -10.363  0.00  0.00    +0.385 N 
ATOM     32  C   UNL     1       7.441   1.264  -9.646  0.00  0.00    -0.078 C 
ATOM     33  C   UNL     1       8.446   1.576 -10.784  0.00  0.00    -0.020 C 
ATOM     34  C   UNL     1       8.290   0.359 -11.725  0.00  0.00    -0.020 C 
ATOM     35  C   UNL     1       6.901  -0.223 -11.404  0.00  0.00    -0.078 C 
ATOM     36  H   UNL     1       5.724   1.349 -10.789  0.00  0.00    -0.081 HD
ENDBRANCH  23  31
ENDBRANCH  22  23
ENDBRANCH   3  22
TORSDOF 10
