REMARK  Name = ZINC23354122
REMARK  7 active torsions:
REMARK  status: ('A' for Active; 'I' for Inactive)
REMARK    1  A    between atoms: C_1  and  C_2
REMARK    2  A    between atoms: C_2  and  N_3
REMARK    3  A    between atoms: C_6  and  C_8
REMARK    4  A    between atoms: C_17  and  N_21
REMARK    5  A    between atoms: N_21  and  C_22
REMARK    6  A    between atoms: C_22  and  C_23
REMARK    7  A    between atoms: C_23  and  N_28
REMARK                            x       y       z     vdW  Elec       q    Type
REMARK                         _______ _______ _______ _____ _____    ______ ____
ROOT
ATOM      1  N   UNL     1      -1.520  -0.642   1.278  0.00  0.00    -0.268 N 
ATOM      2  C   UNL     1      -2.315  -0.937   2.320  0.00  0.00    +0.043 A 
ATOM      3  C   UNL     1      -3.477  -1.420   1.813  0.00  0.00    +0.004 A 
ATOM      4  C   UNL     1      -3.329  -1.395   0.416  0.00  0.00    +0.151 A 
ATOM      5  N   UNL     1      -2.124  -0.908   0.172  0.00  0.00    -0.166 NA
ATOM      6  C   UNL     1      -4.645  -1.876   2.642  0.00  0.00    +0.023 C 
ATOM      7  C   UNL     1      -4.161  -2.086   4.084  0.00  0.00    -0.067 C 
ATOM      8  C   UNL     1      -3.377  -0.854   4.543  0.00  0.00    -0.009 C 
ATOM      9  C   UNL     1      -2.040  -0.784   3.793  0.00  0.00    +0.054 C 
ENDROOT
BRANCH   4  10
ATOM     10  C   UNL     1      -4.328  -1.822  -0.584  0.00  0.00    +0.267 C 
ATOM     11  O   UNL     1      -5.363  -2.348  -0.223  0.00  0.00    -0.268 OA
ATOM     12  N   UNL     1      -4.092  -1.630  -1.897  0.00  0.00    -0.295 N 
ATOM     13  C   UNL     1      -2.792  -1.114  -2.330  0.00  0.00    +0.119 C 
ATOM     14  C   UNL     1      -2.061  -2.188  -3.143  0.00  0.00    +0.088 C 
ATOM     15  S   UNL     1      -3.112  -2.671  -4.546  0.00  0.00    -0.158 S 
ATOM     16  C   UNL     1      -4.686  -3.112  -3.751  0.00  0.00    +0.088 C 
ATOM     17  C   UNL     1      -5.136  -1.945  -2.873  0.00  0.00    +0.119 C 
ENDBRANCH   4  10
BRANCH   7  18
ATOM     18  N   UNL     1      -5.319  -2.285   4.965  0.00  0.00    +0.382 N 
ATOM     19  H   UNL     1      -5.873  -1.442   4.989  0.00  0.00    -0.085 HD
ATOM     20  H   UNL     1      -5.881  -3.046   4.615  0.00  0.00    -0.085 HD
BRANCH  18  21
ATOM     21  C   UNL     1      -4.854  -2.604   6.321  0.00  0.00    -0.060 C 
BRANCH  21  22
ATOM     22  C   UNL     1      -6.055  -2.938   7.208  0.00  0.00    +0.007 C 
ATOM     23  C   UNL     1      -6.914  -1.676   7.432  0.00  0.00    +0.020 C 
ATOM     24  C   UNL     1      -7.395  -1.800   8.899  0.00  0.00    +0.002 C 
ATOM     25  C   UNL     1      -6.158  -2.395   9.616  0.00  0.00    +0.002 C 
ATOM     26  C   UNL     1      -5.574  -3.395   8.596  0.00  0.00    +0.020 C 
BRANCH  22  27
ATOM     27  N   UNL     1      -6.863  -3.993   6.582  0.00  0.00    -0.294 NA
ATOM     28  C   UNL     1      -8.119  -4.201   7.318  0.00  0.00    +0.113 C 
ATOM     29  C   UNL     1      -8.955  -5.264   6.600  0.00  0.00    +0.175 C 
ATOM     30  O   UNL     1      -8.190  -6.466   6.484  0.00  0.00    -0.377 OA
ATOM     31  C   UNL     1      -6.961  -6.301   5.772  0.00  0.00    +0.175 C 
ATOM     32  C   UNL     1      -6.105  -5.248   6.482  0.00  0.00    +0.113 C 
ENDBRANCH  22  27
ENDBRANCH  21  22
ENDBRANCH  18  21
ENDBRANCH   7  18
BRANCH   1  34
ATOM     33  C   UNL     1      -0.234   1.435   1.395  0.00  0.00    +0.029 C 
ATOM     34  C   UNL     1      -0.166  -0.094   1.384  0.00  0.00    +0.140 C 
ENDBRANCH   1  34
TORSDOF 6
