REMARK  Name = ZINC12559481
REMARK  1 active torsions:
REMARK  status: ('A' for Active; 'I' for Inactive)
REMARK    1  A    between atoms: C_9  and  C_11
REMARK                            x       y       z     vdW  Elec       q    Type
REMARK                         _______ _______ _______ _____ _____    ______ ____
ROOT
ATOM      1  C   UNL     1      -4.927   3.372   0.101  0.00  0.00    +0.072 C 
ATOM      2  C   UNL     1      -5.073   4.443  -0.983  0.00  0.00    +0.014 C 
ATOM      3  C   UNL     1      -3.904   5.426  -0.879  0.00  0.00    +0.020 C 
ATOM      4  C   UNL     1      -2.586   4.660  -1.016  0.00  0.00    +0.106 C 
ATOM      5  N   UNL     1      -2.494   3.649   0.044  0.00  0.00    -0.314 N 
ATOM      6  C   UNL     1      -3.579   2.666  -0.064  0.00  0.00    +0.117 C 
ATOM      7  C   UNL     1      -1.258   3.026   0.029  0.00  0.00    +0.133 A 
ATOM      8  C   UNL     1      -0.386   3.131   1.148  0.00  0.00    +0.048 A 
ATOM      9  C   UNL     1      -0.571   3.830   2.408  0.00  0.00    +0.021 A 
ATOM     10  C   UNL     1       0.403   3.788   3.329  0.00  0.00    +0.048 A 
ATOM     11  S   UNL     1       1.663   2.789   2.558  0.00  0.00    -0.077 S 
ATOM     12  C   UNL     1       0.847   2.455   1.019  0.00  0.00    +0.113 A 
ATOM     13  N   UNL     1       1.149   1.779  -0.071  0.00  0.00    -0.228 NA
ATOM     14  C   UNL     1       0.298   1.718  -1.077  0.00  0.00    +0.224 A 
ATOM     15  N   UNL     1      -0.872   2.331  -1.027  0.00  0.00    -0.220 NA
ENDROOT
BRANCH   1  24
ATOM     16  C   UNL     1      -9.346  -0.562  -1.040  0.00  0.00    +0.002 A 
ATOM     17  C   UNL     1      -9.354  -0.674   0.343  0.00  0.00    +0.002 A 
ATOM     18  C   UNL     1      -8.488   0.056   1.107  0.00  0.00    +0.030 A 
ATOM     19  C   UNL     1      -7.583   0.926   0.494  0.00  0.00    +0.089 A 
ATOM     20  C   UNL     1      -7.574   1.040  -0.907  0.00  0.00    +0.066 A 
ATOM     21  C   UNL     1      -8.462   0.291  -1.667  0.00  0.00    +0.028 A 
ATOM     22  N   UNL     1      -6.592   1.963  -1.207  0.00  0.00    -0.342 N 
ATOM     23  H   UNL     1      -6.333   2.277  -2.121  0.00  0.00    +0.167 HD
ATOM     24  C   UNL     1      -6.042   2.367  -0.031  0.00  0.00    +0.113 A 
ATOM     25  N   UNL     1      -6.623   1.763   0.965  0.00  0.00    -0.232 NA
ENDBRANCH   1  24
TORSDOF 1
