REMARK  Name = ZINC16310006
REMARK  9 active torsions:
REMARK  status: ('A' for Active; 'I' for Inactive)
REMARK    1  A    between atoms: C_1  and  C_2
REMARK    2  A    between atoms: C_5  and  S_8
REMARK    3  A    between atoms: S_8  and  N_11
REMARK    4  A    between atoms: N_11  and  C_12
REMARK    5  A    between atoms: N_11  and  C_20
REMARK    6  A    between atoms: C_12  and  C_13
REMARK    7  A    between atoms: C_25  and  C_26
REMARK    8  A    between atoms: N_28  and  N_29
REMARK    9  A    between atoms: N_33  and  C_36
REMARK                            x       y       z     vdW  Elec       q    Type
REMARK                         _______ _______ _______ _____ _____    ______ ____
ROOT
ATOM      1  N   UNL     1       1.623  -4.992  -0.049  0.00  0.00    -0.198 N 
ENDROOT
BRANCH   1   2
ATOM      2  C   UNL     1       2.323  -5.085  -1.246  0.00  0.00    +0.064 A 
ATOM      3  C   UNL     1       2.413  -6.303  -1.909  0.00  0.00    +0.025 A 
ATOM      4  C   UNL     1       3.108  -6.393  -3.097  0.00  0.00    +0.002 A 
ATOM      5  C   UNL     1       3.721  -5.274  -3.639  0.00  0.00    +0.001 A 
ATOM      6  C   UNL     1       3.643  -4.058  -2.996  0.00  0.00    +0.015 A 
ATOM      7  C   UNL     1       2.938  -3.949  -1.794  0.00  0.00    +0.061 A 
BRANCH   7   8
ATOM      8  C   UNL     1       2.845  -2.650  -1.103  0.00  0.00    +0.265 C 
ATOM      9  O   UNL     1       2.328  -2.581  -0.005  0.00  0.00    -0.268 OA
ATOM     10  N   UNL     1       3.333  -1.539  -1.690  0.00  0.00    -0.203 N 
ATOM     11  H   UNL     1       3.745  -1.594  -2.566  0.00  0.00    +0.178 HD
BRANCH  10  12
ATOM     12  N   UNL     1       3.245  -0.304  -1.034  0.00  0.00    -0.189 NA
ATOM     13  C   UNL     1       3.790   0.734  -1.547  0.00  0.00    +0.039 C 
ATOM     14  C   UNL     1       4.421   0.687  -2.923  0.00  0.00    +0.068 C 
ATOM     15  C   UNL     1       3.893   1.876  -3.734  0.00  0.00    +0.090 C 
ATOM     16  N   UNL     1       4.122   3.118  -2.984  0.00  0.00    -0.305 NA
ATOM     17  C   UNL     1       3.336   3.153  -1.745  0.00  0.00    +0.090 C 
ATOM     18  C   UNL     1       3.820   2.052  -0.802  0.00  0.00    +0.068 C 
ATOM     19  C   UNL     1       3.845   4.295  -3.818  0.00  0.00    +0.104 C 
ENDBRANCH  10  12
ENDBRANCH   7   8
ENDBRANCH   1   2
BRANCH   1  20
ATOM     20  S   UNL     1       2.434  -5.072   1.392  0.00  0.00    +0.075 S 
ATOM     21  O   UNL     1       1.680  -4.311   2.325  0.00  0.00    -0.150 OA
ATOM     22  O   UNL     1       3.798  -4.792   1.107  0.00  0.00    -0.150 OA
BRANCH  20  27
ATOM     23  C   UNL     1       2.205 -10.806   3.257  0.00  0.00    +0.044 C 
ATOM     24  C   UNL     1       2.262  -9.373   2.791  0.00  0.00    -0.050 A 
ATOM     25  C   UNL     1       3.306  -8.948   1.991  0.00  0.00    +0.005 A 
ATOM     26  C   UNL     1       3.359  -7.635   1.564  0.00  0.00    +0.029 A 
ATOM     27  C   UNL     1       2.367  -6.747   1.936  0.00  0.00    +0.109 A 
ATOM     28  C   UNL     1       1.323  -7.172   2.735  0.00  0.00    +0.029 A 
ATOM     29  C   UNL     1       1.268  -8.487   3.159  0.00  0.00    +0.005 A 
ENDBRANCH  20  27
ENDBRANCH   1  20
BRANCH   1  30
ATOM     30  C   UNL     1       0.168  -4.824  -0.063  0.00  0.00    +0.166 C 
BRANCH  30  31
ATOM     31  C   UNL     1      -0.167  -3.361  -0.205  0.00  0.00    -0.028 A 
ATOM     32  C   UNL     1      -0.312  -2.573   0.921  0.00  0.00    +0.006 A 
ATOM     33  C   UNL     1      -0.619  -1.232   0.790  0.00  0.00    +0.020 A 
ATOM     34  C   UNL     1      -0.781  -0.678  -0.467  0.00  0.00    +0.041 A 
ATOM     35  C   UNL     1      -0.635  -1.468  -1.594  0.00  0.00    +0.020 A 
ATOM     36  C   UNL     1      -0.323  -2.808  -1.462  0.00  0.00    +0.006 A 
ATOM     37 CL   UNL     1      -1.167   1.006  -0.631  0.00  0.00    -0.084 Cl
ENDBRANCH  30  31
ENDBRANCH   1  30
TORSDOF 7
