REMARK  Name = ZINC13563136
REMARK  8 active torsions:
REMARK  status: ('A' for Active; 'I' for Inactive)
REMARK    1  A    between atoms: C_1  and  C_2
REMARK    2  A    between atoms: C_9  and  N_28
REMARK    3  A    between atoms: C_10  and  C_13
REMARK    4  A    between atoms: N_17  and  C_21
REMARK    5  A    between atoms: C_21  and  C_22
REMARK    6  A    between atoms: N_31  and  C_34
REMARK    7  A    between atoms: C_34  and  C_35
REMARK    8  A    between atoms: C_35  and  O_36
REMARK                            x       y       z     vdW  Elec       q    Type
REMARK                         _______ _______ _______ _____ _____    ______ ____
ROOT
ATOM      1  C   UNL     1       0.865   8.696  -4.251  0.00  0.00    +0.047 C 
ATOM      2  C   UNL     1       0.267   9.566  -3.175  0.00  0.00    -0.007 A 
ATOM      3  C   UNL     1       0.429  10.919  -3.218  0.00  0.00    +0.008 A 
ATOM      4  C   UNL     1      -0.133  11.715  -2.211  0.00  0.00    +0.019 A 
ATOM      5  C   UNL     1      -0.831  11.142  -1.204  0.00  0.00    +0.096 A 
ATOM      6  N   UNL     1      -0.999   9.790  -1.153  0.00  0.00    -0.267 N 
ATOM      7  C   UNL     1      -0.462   8.988  -2.121  0.00  0.00    +0.145 A 
ATOM      8  N   UNL     1      -0.614   7.663  -2.087  0.00  0.00    -0.213 NA
ATOM      9  C   UNL     1      -1.291   7.066  -1.117  0.00  0.00    +0.136 A 
ATOM     10  C   UNL     1      -1.874   7.846  -0.091  0.00  0.00    +0.081 A 
ATOM     11  C   UNL     1      -1.701   9.250  -0.133  0.00  0.00    +0.267 A 
ATOM     12  O   UNL     1      -2.182   9.960   0.733  0.00  0.00    -0.267 OA
ENDROOT
BRANCH  10  13
ATOM     13  C   UNL     1      -2.607   7.237   0.954  0.00  0.00    +0.037 C 
ATOM     14  C   UNL     1      -3.671   6.434   0.663  0.00  0.00    +0.077 C 
ATOM     15  C   UNL     1      -4.577   5.776   1.544  0.00  0.00    +0.258 C 
ATOM     16  O   UNL     1      -4.468   5.886   2.752  0.00  0.00    -0.269 OA
ATOM     17  N   UNL     1      -5.543   5.047   1.012  0.00  0.00    -0.253 N 
ATOM     18  C   UNL     1      -5.660   4.919  -0.328  0.00  0.00    +0.121 C 
ATOM     19  S   UNL     1      -6.816   4.029  -1.225  0.00  0.00    -0.027 S 
ATOM     20  S   UNL     1      -4.303   5.914  -0.926  0.00  0.00    -0.061 S 
BRANCH  17  21
ATOM     21  C   UNL     1      -6.496   4.361   1.889  0.00  0.00    +0.146 C 
BRANCH  21  22
ATOM     22  C   UNL     1      -5.965   2.967   2.229  0.00  0.00    +0.136 C 
ATOM     23  C   UNL     1      -6.964   2.235   3.146  0.00  0.00    +0.035 C 
ATOM     24  C   UNL     1      -7.331   0.953   2.359  0.00  0.00    +0.031 C 
ATOM     25  C   UNL     1      -6.137   0.820   1.380  0.00  0.00    +0.160 C 
ATOM     26  O   UNL     1      -5.831   2.189   1.029  0.00  0.00    -0.375 OA
ENDBRANCH  21  22
ENDBRANCH  17  21
ENDBRANCH  10  13
BRANCH   9  27
ATOM     27  N   UNL     1      -1.431   5.695  -1.112  0.00  0.00    -0.312 N 
ATOM     28  C   UNL     1      -0.940   5.111  -2.368  0.00  0.00    +0.122 C 
ATOM     29  C   UNL     1      -1.185   3.600  -2.354  0.00  0.00    +0.103 C 
ATOM     30  N   UNL     1      -0.501   3.006  -1.197  0.00  0.00    -0.297 NA
ATOM     31  C   UNL     1      -0.992   3.590   0.059  0.00  0.00    +0.103 C 
ATOM     32  C   UNL     1      -0.746   5.101   0.045  0.00  0.00    +0.122 C 
BRANCH  30  33
ATOM     33  C   UNL     1      -0.650   1.544  -1.191  0.00  0.00    +0.112 C 
BRANCH  33  34
ATOM     34  C   UNL     1       0.277   0.933  -2.243  0.00  0.00    +0.171 C 
BRANCH  34  35
ATOM     35  O   UNL     1       1.636   1.206  -1.897  0.00  0.00    -0.394 OA
ATOM     36  H   UNL     1       2.452   0.843  -2.540  0.00  0.00    +0.209 HD
ENDBRANCH  34  35
ENDBRANCH  33  34
ENDBRANCH  30  33
ENDBRANCH   9  27
TORSDOF 7
