REMARK  Name = ZINC43041406
REMARK  7 active torsions:
REMARK  status: ('A' for Active; 'I' for Inactive)
REMARK    1  A    between atoms: C_1  and  C_2
REMARK    2  A    between atoms: C_7  and  N_12
REMARK    3  A    between atoms: C_9  and  C_11
REMARK    4  A    between atoms: N_15  and  C_16
REMARK    5  A    between atoms: N_15  and  C_24
REMARK    6  A    between atoms: C_16  and  C_17
REMARK    7  A    between atoms: C_21  and  O_23
REMARK                            x       y       z     vdW  Elec       q    Type
REMARK                         _______ _______ _______ _____ _____    ______ ____
ROOT
ATOM      1  N   UNL     1       0.661  -0.663   3.741  0.00  0.00    -0.296 N 
ATOM      2  C   UNL     1       0.514  -0.013   4.913  0.00  0.00    +0.303 C 
ATOM      3  O   UNL     1      -0.315   0.870   5.018  0.00  0.00    -0.253 OA
ATOM      4  N   UNL     1       1.285  -0.343   5.968  0.00  0.00    -0.278 N 
ATOM      5  H   UNL     1       1.370  -1.316   3.634  0.00  0.00    +0.151 HD
ENDROOT
BRANCH   1  11
ATOM      6  C   UNL     1      -0.893   1.055   0.159  0.00  0.00    +0.008 C 
ATOM      7  C   UNL     1      -0.511  -0.426   0.144  0.00  0.00    -0.009 C 
ATOM      8  C   UNL     1      -1.772  -1.280   0.291  0.00  0.00    +0.003 C 
ATOM      9  C   UNL     1      -2.464  -0.944   1.614  0.00  0.00    +0.002 C 
ATOM     10  C   UNL     1      -1.512  -1.237   2.776  0.00  0.00    +0.022 C 
ATOM     11  C   UNL     1      -0.251  -0.383   2.629  0.00  0.00    +0.078 C 
ATOM     12  C   UNL     1       0.441  -0.718   1.306  0.00  0.00    +0.009 C 
ATOM     13  C   UNL     1       1.702   0.135   1.159  0.00  0.00    +0.009 C 
ENDBRANCH   1  11
BRANCH   4  14
ATOM     14  C   UNL     1       2.357  -1.329   5.811  0.00  0.00    +0.078 C 
ATOM     15  C   UNL     1       3.127  -1.740   7.068  0.00  0.00    +0.024 C 
ATOM     16  C   UNL     1       3.795  -0.848   6.020  0.00  0.00    +0.024 C 
ENDBRANCH   4  14
BRANCH   4  17
ATOM     17  C   UNL     1       1.052   0.285   7.270  0.00  0.00    +0.144 C 
BRANCH  17  18
ATOM     18  C   UNL     1      -0.030  -0.465   8.003  0.00  0.00    -0.027 A 
ATOM     19  C   UNL     1      -1.357  -0.132   7.806  0.00  0.00    +0.005 A 
ATOM     20  C   UNL     1      -2.352  -0.819   8.476  0.00  0.00    +0.004 A 
ATOM     21  C   UNL     1      -2.022  -1.840   9.347  0.00  0.00    +0.045 A 
ATOM     22  C   UNL     1      -0.691  -2.176   9.547  0.00  0.00    +0.117 A 
ATOM     23  C   UNL     1       0.305  -1.489   8.868  0.00  0.00    +0.050 A 
BRANCH  22  24
ATOM     24  O   UNL     1      -0.363  -3.180  10.402  0.00  0.00    -0.507 OA
ATOM     25  H   UNL     1      -0.315  -4.051   9.986  0.00  0.00    +0.292 HD
ENDBRANCH  22  24
ENDBRANCH  17  18
ENDBRANCH   4  17
TORSDOF 5
