REMARK  Name = ZINC36854552
REMARK  8 active torsions:
REMARK  status: ('A' for Active; 'I' for Inactive)
REMARK    1  A    between atoms: C_1  and  C_2
REMARK    2  A    between atoms: C_7  and  N_12
REMARK    3  A    between atoms: C_9  and  C_11
REMARK    4  A    between atoms: N_12  and  S_13
REMARK    5  A    between atoms: S_13  and  C_16
REMARK    6  A    between atoms: C_19  and  O_23
REMARK    7  A    between atoms: C_21  and  N_22
REMARK    8  A    between atoms: O_23  and  C_24
REMARK                            x       y       z     vdW  Elec       q    Type
REMARK                         _______ _______ _______ _____ _____    ______ ____
ROOT
ATOM      1  S   UNL     1      -0.977  -4.039   1.963  0.00  0.00    +0.060 S 
ATOM      2  O   UNL     1      -2.333  -4.411   1.759  0.00  0.00    -0.153 OA
ATOM      3  O   UNL     1       0.109  -4.849   1.534  0.00  0.00    -0.153 OA
ENDROOT
BRANCH   1   4
ATOM      4  C   UNL     1      -0.775  -3.804   3.698  0.00  0.00    +0.126 A 
ATOM      5  C   UNL     1       0.280  -4.405   4.358  0.00  0.00    +0.034 A 
ATOM      6  C   UNL     1       0.441  -4.223   5.718  0.00  0.00    +0.047 A 
ATOM      7  C   UNL     1      -0.456  -3.436   6.426  0.00  0.00    +0.122 A 
ATOM      8  C   UNL     1      -1.516  -2.832   5.768  0.00  0.00    +0.070 A 
ATOM      9  C   UNL     1      -1.673  -3.011   4.401  0.00  0.00    +0.055 A 
BRANCH   9  10
ATOM     10  N   UNL     1      -2.737  -2.400   3.733  0.00  0.00    -0.356 N 
ATOM     11  H   UNL     1      -2.800  -2.457   2.767  0.00  0.00    +0.142 HD
ATOM     12  H   UNL     1      -3.412  -1.917   4.236  0.00  0.00    +0.142 HD
ENDBRANCH   9  10
BRANCH   7  13
ATOM     13  O   UNL     1      -0.297  -3.258   7.764  0.00  0.00    -0.495 OA
ATOM     14  C   UNL     1       0.817  -3.911   8.377  0.00  0.00    +0.277 C 
ENDBRANCH   7  13
ENDBRANCH   1   4
BRANCH   1  15
ATOM     15  N   UNL     1      -0.778  -2.561   1.243  0.00  0.00    -0.187 NA
ATOM     16  H   UNL     1      -1.524  -2.137   0.792  0.00  0.00    +0.148 HD
BRANCH  15  22
ATOM     17  C   UNL     1      -0.666   1.622   0.265  0.00  0.00    +0.008 C 
ATOM     18  C   UNL     1      -0.461   0.109   0.167  0.00  0.00    -0.010 C 
ATOM     19  C   UNL     1       0.324  -0.217  -1.106  0.00  0.00    +0.003 C 
ATOM     20  C   UNL     1       0.529  -1.730  -1.205  0.00  0.00    +0.002 C 
ATOM     21  C   UNL     1       1.310  -2.220   0.016  0.00  0.00    +0.020 C 
ATOM     22  C   UNL     1       0.526  -1.893   1.289  0.00  0.00    +0.080 C 
ATOM     23  C   UNL     1       0.321  -0.380   1.387  0.00  0.00    +0.007 C 
ATOM     24  C   UNL     1      -0.464  -0.054   2.660  0.00  0.00    +0.009 C 
ENDBRANCH  15  22
ENDBRANCH   1  15
TORSDOF 5
