REMARK  Name = ZINC05373144
REMARK  3 active torsions:
REMARK  status: ('A' for Active; 'I' for Inactive)
REMARK    1  A    between atoms: C_4  and  C_7
REMARK    2  A    between atoms: C_8  and  C_9
REMARK    3  A    between atoms: N_19  and  C_22
REMARK                            x       y       z     vdW  Elec       q    Type
REMARK                         _______ _______ _______ _____ _____    ______ ____
ROOT
ATOM      1  C   UNL     1      -3.293  10.053   1.189  0.00  0.00    +0.020 C 
ATOM      2  C   UNL     1      -2.462   9.094   0.692  0.00  0.00    +0.079 C 
ATOM      3  C   UNL     1      -2.185   8.714  -0.712  0.00  0.00    +0.276 C 
ATOM      4  O   UNL     1      -2.726   9.277  -1.650  0.00  0.00    -0.267 OA
ATOM      5  N   UNL     1      -1.319   7.740  -0.893  0.00  0.00    -0.154 NA
ATOM      6  C   UNL     1      -0.731   7.117   0.115  0.00  0.00    +0.154 C 
ATOM      7  S   UNL     1      -1.400   7.940   1.552  0.00  0.00    -0.052 S 
ATOM      8  N   UNL     1       0.178   6.092   0.067  0.00  0.00    -0.308 N 
ATOM      9  C   UNL     1       0.619   5.533  -1.220  0.00  0.00    +0.125 C 
ATOM     10  C   UNL     1       0.458   4.010  -1.169  0.00  0.00    +0.124 C 
ATOM     11  N   UNL     1       1.161   3.485   0.009  0.00  0.00    -0.325 N 
ATOM     12  C   UNL     1       0.572   3.998   1.253  0.00  0.00    +0.124 C 
ATOM     13  C   UNL     1       0.737   5.521   1.302  0.00  0.00    +0.125 C 
ENDROOT
BRANCH  11  14
ATOM     14  C   UNL     1       1.177   2.087   0.002  0.00  0.00    +0.065 A 
ATOM     15  C   UNL     1      -0.017   1.377   0.010  0.00  0.00    +0.026 A 
ATOM     16  C   UNL     1       0.002  -0.004   0.002  0.00  0.00    +0.002 A 
ATOM     17  C   UNL     1       1.207  -0.681  -0.013  0.00  0.00    +0.003 A 
ATOM     18  C   UNL     1       2.399   0.021  -0.020  0.00  0.00    +0.040 A 
ATOM     19  C   UNL     1       2.388   1.403  -0.013  0.00  0.00    +0.144 A 
ATOM     20  F   UNL     1       3.552   2.089  -0.020  0.00  0.00    -0.204 F 
ENDBRANCH  11  14
BRANCH   1  22
ATOM     21  C   UNL     1      -4.225  11.193   3.076  0.00  0.00    +0.008 C 
ATOM     22  C   UNL     1      -3.400  10.240   2.582  0.00  0.00    +0.002 C 
BRANCH  21  26
ATOM     23  C   UNL     1      -4.546  11.756   7.266  0.00  0.00    +0.000 A 
ATOM     24  C   UNL     1      -5.287  12.548   6.407  0.00  0.00    +0.001 A 
ATOM     25  C   UNL     1      -5.189  12.372   5.043  0.00  0.00    +0.008 A 
ATOM     26  C   UNL     1      -4.337  11.388   4.529  0.00  0.00    -0.025 A 
ATOM     27  C   UNL     1      -3.595  10.587   5.405  0.00  0.00    +0.008 A 
ATOM     28  C   UNL     1      -3.700  10.781   6.766  0.00  0.00    +0.001 A 
ENDBRANCH  21  26
ENDBRANCH   1  22
TORSDOF 3
