REMARK  Name = ZINC35167860
REMARK  9 active torsions:
REMARK  status: ('A' for Active; 'I' for Inactive)
REMARK    1  A    between atoms: C_2  and  C_3
REMARK    2  A    between atoms: C_3  and  N_4
REMARK    3  A    between atoms: N_7  and  C_10
REMARK    4  A    between atoms: C_15  and  N_16
REMARK    5  A    between atoms: C_17  and  C_19
REMARK    6  A    between atoms: C_19  and  S_20
REMARK    7  A    between atoms: S_20  and  C_21
REMARK    8  A    between atoms: C_23  and  C_32
REMARK    9  A    between atoms: C_24  and  C_26
REMARK                            x       y       z     vdW  Elec       q    Type
REMARK                         _______ _______ _______ _____ _____    ______ ____
ROOT
ATOM      1  N   UNL     1      -1.216  -6.437  -5.337  0.00  0.00    -0.283 N 
ATOM      2  C   UNL     1      -0.954  -6.723  -6.628  0.00  0.00    +0.228 C 
ATOM      3  O   UNL     1      -0.852  -7.878  -6.984  0.00  0.00    -0.275 OA
ATOM      4  H   UNL     1      -1.374  -5.519  -5.066  0.00  0.00    +0.155 HD
ENDROOT
BRANCH   1  10
ATOM      5  C   UNL     1      -1.924  -7.271  -3.175  0.00  0.00    +0.051 A 
ATOM      6  C   UNL     1      -1.969  -8.295  -2.241  0.00  0.00    +0.025 A 
ATOM      7  C   UNL     1      -1.352  -9.503  -2.510  0.00  0.00    +0.002 A 
ATOM      8  C   UNL     1      -0.690  -9.694  -3.708  0.00  0.00    +0.002 A 
ATOM      9  C   UNL     1      -0.640  -8.679  -4.645  0.00  0.00    +0.025 A 
ATOM     10  C   UNL     1      -1.260  -7.466  -4.386  0.00  0.00    +0.055 A 
BRANCH   5  14
ATOM     11  N   UNL     1      -3.996  -4.080  -1.550  0.00  0.00    +0.384 N 
ATOM     12  C   UNL     1      -2.659  -4.449  -1.069  0.00  0.00    -0.059 C 
ATOM     13  C   UNL     1      -1.816  -4.956  -2.245  0.00  0.00    +0.086 C 
ATOM     14  N   UNL     1      -2.547  -6.048  -2.906  0.00  0.00    -0.332 N 
ATOM     15  C   UNL     1      -3.952  -5.817  -3.276  0.00  0.00    +0.086 C 
ATOM     16  C   UNL     1      -4.694  -5.270  -2.052  0.00  0.00    -0.059 C 
ATOM     17  H   UNL     1      -3.908  -3.404  -2.294  0.00  0.00    -0.081 HD
BRANCH  11  18
ATOM     18  C   UNL     1      -4.766  -3.492  -0.446  0.00  0.00    -0.052 C 
BRANCH  18  20
ATOM     19  C   UNL     1      -4.816  -1.096   0.020  0.00  0.00    +0.002 C 
ATOM     20  C   UNL     1      -4.117  -2.204  -0.010  0.00  0.00    -0.053 C 
ENDBRANCH  18  20
ENDBRANCH  11  18
ENDBRANCH   5  14
ENDBRANCH   1  10
BRANCH   2  21
ATOM     21  C   UNL     1      -0.788  -5.608  -7.628  0.00  0.00    +0.175 C 
BRANCH  21  22
ATOM     22  S   UNL     1      -0.446  -6.311  -9.265  0.00  0.00    -0.058 S 
BRANCH  22  23
ATOM     23  C   UNL     1      -0.280  -4.900 -10.308  0.00  0.00    +0.258 A 
ATOM     24  N   UNL     1      -0.385  -3.653  -9.918  0.00  0.00    -0.203 NA
ATOM     25  C   UNL     1      -0.199  -2.846 -10.985  0.00  0.00    +0.118 A 
ATOM     26  C   UNL     1       0.031  -3.659 -12.075  0.00  0.00    +0.164 A 
ATOM     27  O   UNL     1      -0.020  -4.935 -11.625  0.00  0.00    -0.430 OA
BRANCH  26  28
ATOM     28  C   UNL     1       0.287  -3.223 -13.460  0.00  0.00    +0.020 A 
ATOM     29  C   UNL     1       1.247  -2.241 -13.720  0.00  0.00    +0.011 A 
ATOM     30  C   UNL     1       1.481  -1.838 -15.018  0.00  0.00    +0.001 A 
ATOM     31  C   UNL     1       0.769  -2.404 -16.061  0.00  0.00    +0.000 A 
ATOM     32  C   UNL     1      -0.183  -3.377 -15.811  0.00  0.00    +0.001 A 
ATOM     33  C   UNL     1      -0.424  -3.794 -14.519  0.00  0.00    +0.011 A 
ENDBRANCH  26  28
BRANCH  25  34
ATOM     34  C   UNL     1      -0.235  -1.365 -10.985  0.00  0.00    +0.004 A 
ATOM     35  C   UNL     1      -0.887  -0.680 -12.010  0.00  0.00    +0.010 A 
ATOM     36  C   UNL     1      -0.917   0.699 -12.004  0.00  0.00    +0.001 A 
ATOM     37  C   UNL     1      -0.303   1.403 -10.983  0.00  0.00    +0.000 A 
ATOM     38  C   UNL     1       0.345   0.729  -9.963  0.00  0.00    +0.001 A 
ATOM     39  C   UNL     1       0.377  -0.650  -9.955  0.00  0.00    +0.010 A 
ENDBRANCH  25  34
ENDBRANCH  22  23
ENDBRANCH  21  22
ENDBRANCH   2  21
TORSDOF 9
