REMARK  Name = ZINC10699947
REMARK  7 active torsions:
REMARK  status: ('A' for Active; 'I' for Inactive)
REMARK    1  A    between atoms: C_1  and  C_2
REMARK    2  A    between atoms: N_6  and  C_14
REMARK    3  A    between atoms: C_14  and  C_15
REMARK    4  A    between atoms: N_17  and  C_18
REMARK    5  A    between atoms: C_18  and  C_19
REMARK    6  A    between atoms: C_19  and  C_21
REMARK    7  A    between atoms: C_19  and  C_27
REMARK                            x       y       z     vdW  Elec       q    Type
REMARK                         _______ _______ _______ _____ _____    ______ ____
ROOT
ATOM      1  C   UNL     1       2.508   4.824  -1.246  0.00  0.00    +0.117 C 
ENDROOT
BRANCH   1   4
ATOM      2  C   UNL     1       2.606   4.549  -3.665  0.00  0.00    +0.231 C 
ATOM      3  O   UNL     1       2.619   5.757  -3.772  0.00  0.00    -0.274 OA
ATOM      4  N   UNL     1       2.551   3.981  -2.444  0.00  0.00    -0.313 N 
ATOM      5  H   UNL     1       2.541   3.015  -2.358  0.00  0.00    +0.149 HD
BRANCH   2   6
ATOM      6  C   UNL     1       2.650   3.682  -4.897  0.00  0.00    +0.209 C 
BRANCH   6  11
ATOM      7  C   UNL     1       0.405   6.672  -8.034  0.00  0.00    +0.062 C 
ATOM      8  C   UNL     1       1.645   5.780  -7.944  0.00  0.00    +0.256 C 
ATOM      9  C   UNL     1       1.568   4.933  -6.699  0.00  0.00    +0.261 C 
ATOM     10  O   UNL     1       0.489   4.617  -6.244  0.00  0.00    -0.271 OA
ATOM     11  N   UNL     1       2.705   4.532  -6.090  0.00  0.00    -0.256 N 
ATOM     12  C   UNL     1       3.938   4.936  -6.620  0.00  0.00    +0.079 A 
ATOM     13  C   UNL     1       5.112   4.304  -6.243  0.00  0.00    +0.027 A 
ATOM     14  C   UNL     1       6.318   4.718  -6.777  0.00  0.00    +0.002 A 
ATOM     15  C   UNL     1       6.355   5.761  -7.684  0.00  0.00    +0.004 A 
ATOM     16  C   UNL     1       5.187   6.396  -8.064  0.00  0.00    +0.047 A 
ATOM     17  C   UNL     1       3.976   5.986  -7.535  0.00  0.00    +0.143 A 
ATOM     18  O   UNL     1       2.817   6.598  -7.899  0.00  0.00    -0.478 OA
ENDBRANCH   6  11
ENDBRANCH   2   6
ENDBRANCH   1   4
BRANCH   1  19
ATOM     19  C   UNL     1       2.451   3.937  -0.001  0.00  0.00    +0.068 C 
BRANCH  19  20
ATOM     20  C   UNL     1       2.531   4.798   1.234  0.00  0.00    -0.013 A 
ATOM     21  C   UNL     1       1.676   5.772   1.584  0.00  0.00    +0.088 A 
ATOM     22  N   UNL     1       2.068   6.332   2.769  0.00  0.00    -0.360 N 
ATOM     23  H   UNL     1       1.607   7.054   3.224  0.00  0.00    +0.165 HD
ATOM     24  C   UNL     1       3.219   5.723   3.217  0.00  0.00    +0.047 A 
ATOM     25  C   UNL     1       3.559   4.735   2.275  0.00  0.00    +0.003 A 
ATOM     26  C   UNL     1       4.694   3.947   2.471  0.00  0.00    +0.010 A 
ATOM     27  C   UNL     1       5.471   4.140   3.579  0.00  0.00    +0.001 A 
ATOM     28  C   UNL     1       5.140   5.114   4.511  0.00  0.00    +0.002 A 
ATOM     29  C   UNL     1       4.024   5.902   4.337  0.00  0.00    +0.026 A 
ENDBRANCH  19  20
BRANCH  19  30
ATOM     30  C   UNL     1       1.156   3.165   0.008  0.00  0.00    -0.038 A 
ATOM     31  C   UNL     1       1.175   1.783   0.000  0.00  0.00    +0.004 A 
ATOM     32  C   UNL     1      -0.013   1.076   0.008  0.00  0.00    +0.000 A 
ATOM     33  C   UNL     1      -1.219   1.751   0.017  0.00  0.00    +0.000 A 
ATOM     34  C   UNL     1      -1.238   3.133   0.030  0.00  0.00    +0.000 A 
ATOM     35  C   UNL     1      -0.050   3.840   0.023  0.00  0.00    +0.004 A 
ENDBRANCH  19  30
ENDBRANCH   1  19
TORSDOF 6
