REMARK  Name = ZINC21231929
REMARK  11 active torsions:
REMARK  status: ('A' for Active; 'I' for Inactive)
REMARK    1  A    between atoms: C_1  and  C_2
REMARK    2  A    between atoms: C_2  and  C_3
REMARK    3  A    between atoms: C_3  and  C_4
REMARK    4  A    between atoms: C_4  and  C_5
REMARK    5  A    between atoms: C_5  and  N_6
REMARK    6  A    between atoms: C_15  and  S_16
REMARK    7  A    between atoms: S_16  and  C_17
REMARK    8  A    between atoms: C_17  and  C_19
REMARK    9  A    between atoms: C_17  and  C_22
REMARK   10  A    between atoms: C_19  and  C_20
REMARK   11  A    between atoms: C_19  and  C_21
REMARK                            x       y       z     vdW  Elec       q    Type
REMARK                         _______ _______ _______ _____ _____    ______ ____
ROOT
ATOM      1  N   UNL     1       0.124   1.018   2.417  0.00  0.00    -0.287 N 
ATOM      2  C   UNL     1       1.083   1.768   2.989  0.00  0.00    +0.263 A 
ATOM      3  O   UNL     1       1.441   2.813   2.473  0.00  0.00    -0.267 OA
ATOM      4  C   UNL     1       1.677   1.324   4.213  0.00  0.00    +0.076 A 
ATOM      5  C   UNL     1       2.725   1.975   5.002  0.00  0.00    -0.023 A 
ATOM      6  C   UNL     1       3.119   1.351   6.130  0.00  0.00    -0.004 A 
ATOM      7  S   UNL     1       2.133  -0.121   6.210  0.00  0.00    -0.073 S 
ATOM      8  C   UNL     1       1.192   0.108   4.723  0.00  0.00    +0.117 A 
ATOM      9  N   UNL     1       0.241  -0.586   4.109  0.00  0.00    -0.216 NA
ATOM     10  C   UNL     1      -0.292  -0.152   2.984  0.00  0.00    +0.173 A 
ATOM     11  C   UNL     1       4.164   1.806   7.102  0.00  0.00    +0.043 C 
ATOM     12  C   UNL     1       4.995   2.913   6.437  0.00  0.00    +0.005 C 
ATOM     13  C   UNL     1       4.040   3.927   5.798  0.00  0.00    +0.005 C 
ATOM     14  C   UNL     1       3.355   3.300   4.583  0.00  0.00    +0.037 C 
ENDROOT
BRANCH   1  15
ATOM     15  C   UNL     1      -0.488   1.467   1.165  0.00  0.00    +0.127 C 
BRANCH  15  16
ATOM     16  C   UNL     1       0.304   0.909  -0.020  0.00  0.00    +0.022 C 
BRANCH  16  17
ATOM     17  C   UNL     1      -0.336   1.379  -1.328  0.00  0.00    +0.001 C 
BRANCH  17  19
ATOM     18  C   UNL     1      -0.184   1.290  -3.820  0.00  0.00    +0.004 C 
ATOM     19  C   UNL     1       0.456   0.821  -2.512  0.00  0.00    -0.003 C 
ENDBRANCH  17  19
ENDBRANCH  16  17
ENDBRANCH  15  16
ENDBRANCH   1  15
BRANCH  10  20
ATOM     20  S   UNL     1      -1.556  -1.096   2.200  0.00  0.00    -0.075 S 
BRANCH  20  21
ATOM     21  C   UNL     1      -1.586  -2.544   3.285  0.00  0.00    +0.143 C 
BRANCH  21  22
ATOM     22  C   UNL     1      -2.133  -2.152   4.633  0.00  0.00    +0.234 C 
ATOM     23  O   UNL     1      -2.870  -1.194   4.732  0.00  0.00    -0.274 OA
ATOM     24  N   UNL     1      -1.804  -2.865   5.728  0.00  0.00    -0.239 N 
ATOM     25  C   UNL     1      -2.294  -2.513   6.934  0.00  0.00    +0.303 C 
ATOM     26  O   UNL     1      -3.032  -1.553   7.033  0.00  0.00    -0.253 OA
ATOM     27  N   UNL     1      -1.964  -3.227   8.029  0.00  0.00    -0.313 N 
ATOM     28  H   UNL     1      -1.135  -3.734   5.638  0.00  0.00    +0.159 HD
ATOM     29  H   UNL     1      -2.364  -2.940   9.013  0.00  0.00    +0.146 HD
ATOM     30  H   UNL     1      -1.296  -4.096   7.939  0.00  0.00    +0.146 HD
ENDBRANCH  21  22
BRANCH  21  31
ATOM     31  C   UNL     1      -2.475  -3.626   2.669  0.00  0.00    +0.005 C 
ATOM     32  C   UNL     1      -3.861  -3.044   2.382  0.00  0.00    +0.009 C 
ATOM     33  C   UNL     1      -1.849  -4.118   1.363  0.00  0.00    +0.009 C 
ENDBRANCH  21  31
ENDBRANCH  20  21
ENDBRANCH  10  20
TORSDOF 8
