REMARK  Name = ZINC15870111
REMARK  4 active torsions:
REMARK  status: ('A' for Active; 'I' for Inactive)
REMARK    1  A    between atoms: C_1  and  C_2
REMARK    2  A    between atoms: C_9  and  N_14
REMARK    3  A    between atoms: N_14  and  S_15
REMARK    4  A    between atoms: S_15  and  C_18
REMARK                            x       y       z     vdW  Elec       q    Type
REMARK                         _______ _______ _______ _____ _____    ______ ____
ROOT
ATOM      1  C   UNL     1      -3.142  10.259  -5.223  0.00  0.00    +0.109 C 
ATOM      2  C   UNL     1      -2.959   9.245  -4.123  0.00  0.00    +0.216 C 
ATOM      3  O   UNL     1      -3.188   9.551  -2.972  0.00  0.00    -0.276 OA
ATOM      4  N   UNL     1      -2.539   7.999  -4.418  0.00  0.00    -0.265 N 
ATOM      5  C   UNL     1      -2.370   7.067  -3.406  0.00  0.00    +0.165 A 
ATOM      6  N   UNL     1      -1.974   5.819  -3.495  0.00  0.00    -0.225 NA
ATOM      7  C   UNL     1      -1.853   5.017  -2.414  0.00  0.00    +0.082 A 
ATOM      8  C   UNL     1      -1.440   3.665  -2.374  0.00  0.00    +0.053 A 
ATOM      9  C   UNL     1      -1.371   2.988  -1.178  0.00  0.00    +0.050 A 
ATOM     10  C   UNL     1      -1.710   3.605   0.025  0.00  0.00    +0.026 A 
ATOM     11  C   UNL     1      -2.112   4.927   0.016  0.00  0.00    +0.019 A 
ATOM     12  C   UNL     1      -2.183   5.608  -1.174  0.00  0.00    +0.041 A 
ATOM     13  S   UNL     1      -2.636   7.259  -1.650  0.00  0.00    -0.052 S 
ATOM     14  H   UNL     1      -2.355   7.754  -5.338  0.00  0.00    +0.157 HD
ENDROOT
BRANCH   9  15
ATOM     15  N   UNL     1      -0.959   1.651  -1.170  0.00  0.00    -0.216 N 
ATOM     16  H   UNL     1      -1.610   0.943  -1.046  0.00  0.00    +0.174 HD
BRANCH  15  17
ATOM     17  S   UNL     1       0.642   1.277  -1.373  0.00  0.00    +0.079 S 
ATOM     18  O   UNL     1       0.746  -0.136  -1.260  0.00  0.00    -0.149 OA
ATOM     19  O   UNL     1       1.081   1.984  -2.524  0.00  0.00    -0.149 OA
BRANCH  17  20
ATOM     20  C   UNL     1       1.514   1.957  -0.001  0.00  0.00    +0.147 A 
ATOM     21  C   UNL     1       1.714   1.428   1.230  0.00  0.00    +0.038 A 
ATOM     22  C   UNL     1       2.439   2.149   2.161  0.00  0.00    +0.030 A 
ATOM     23  C   UNL     1       2.927   3.366   1.813  0.00  0.00    +0.080 A 
ATOM     24  S   UNL     1       2.368   3.520   0.124  0.00  0.00    -0.057 S 
ATOM     25 CL   UNL     1       3.860   4.481   2.761  0.00  0.00    -0.076 Cl
ENDBRANCH  17  20
ENDBRANCH  15  17
ENDBRANCH   9  15
TORSDOF 3
