REMARK  Name = ZINC45971838
REMARK  8 active torsions:
REMARK  status: ('A' for Active; 'I' for Inactive)
REMARK    1  A    between atoms: C_1  and  C_2
REMARK    2  A    between atoms: C_2  and  C_3
REMARK    3  A    between atoms: C_2  and  C_4
REMARK    4  A    between atoms: C_4  and  C_6
REMARK    5  A    between atoms: C_4  and  N_17
REMARK    6  A    between atoms: N_8  and  N_9
REMARK    7  A    between atoms: N_9  and  C_10
REMARK    8  A    between atoms: C_18  and  C_20
REMARK                            x       y       z     vdW  Elec       q    Type
REMARK                         _______ _______ _______ _____ _____    ______ ____
ROOT
ATOM      1  C   UNL     1      -1.354  -0.556  -0.083  0.00  0.00    +0.163 C 
ENDROOT
BRANCH   1   2
ATOM      2  C   UNL     1      -1.280  -2.049   0.111  0.00  0.00    +0.250 C 
ATOM      3  O   UNL     1      -1.695  -2.794  -0.751  0.00  0.00    -0.272 OA
ATOM      4  N   UNL     1      -0.754  -2.556   1.244  0.00  0.00    -0.235 N 
ATOM      5  H   UNL     1      -0.357  -1.964   1.901  0.00  0.00    +0.173 HD
BRANCH   4   6
ATOM      6  N   UNL     1      -0.780  -3.938   1.471  0.00  0.00    -0.264 N 
ATOM      7  H   UNL     1      -1.178  -4.530   0.813  0.00  0.00    +0.170 HD
BRANCH   6   8
ATOM      8  C   UNL     1      -0.234  -4.464   2.646  0.00  0.00    +0.045 A 
ATOM      9  C   UNL     1       0.330  -3.617   3.591  0.00  0.00    +0.027 A 
ATOM     10  C   UNL     1       0.868  -4.138   4.750  0.00  0.00    +0.040 A 
ATOM     11  C   UNL     1       0.847  -5.505   4.971  0.00  0.00    +0.124 A 
ATOM     12  C   UNL     1       0.285  -6.352   4.031  0.00  0.00    +0.040 A 
ATOM     13  C   UNL     1      -0.260  -5.834   2.872  0.00  0.00    +0.027 A 
ATOM     14  F   UNL     1       1.374  -6.013   6.107  0.00  0.00    -0.205 F 
ENDBRANCH   6   8
ENDBRANCH   4   6
ENDBRANCH   1   2
BRANCH   1  15
ATOM     15  N   UNL     1      -2.371  -0.245  -1.091  0.00  0.00    -0.300 N 
ATOM     16  C   UNL     1      -2.976   0.959  -1.087  0.00  0.00    +0.245 C 
ATOM     17  O   UNL     1      -2.678   1.787  -0.248  0.00  0.00    -0.270 OA
ATOM     18  H   UNL     1      -2.609  -0.905  -1.760  0.00  0.00    +0.150 HD
BRANCH  16  19
ATOM     19  C   UNL     1      -4.002   1.274  -2.103  0.00  0.00    +0.037 A 
ATOM     20  C   UNL     1      -4.350   0.323  -3.064  0.00  0.00    +0.016 A 
ATOM     21  C   UNL     1      -5.308   0.621  -4.010  0.00  0.00    +0.039 A 
ATOM     22  C   UNL     1      -5.924   1.863  -4.008  0.00  0.00    +0.123 A 
ATOM     23  C   UNL     1      -5.582   2.811  -3.056  0.00  0.00    +0.039 A 
ATOM     24  C   UNL     1      -4.630   2.521  -2.102  0.00  0.00    +0.016 A 
ATOM     25  F   UNL     1      -6.861   2.150  -4.938  0.00  0.00    -0.205 F 
ENDBRANCH  16  19
ENDBRANCH   1  15
BRANCH   1  27
ATOM     26  C   UNL     1       0.314  -0.596  -1.942  0.00  0.00    +0.009 C 
ATOM     27  C   UNL     1       0.005  -0.035  -0.553  0.00  0.00    +0.012 C 
ATOM     28  C   UNL     1      -0.028   1.493  -0.616  0.00  0.00    +0.009 C 
ENDBRANCH   1  27
TORSDOF 6
