REMARK  Name = ZINC38119038
REMARK  6 active torsions:
REMARK  status: ('A' for Active; 'I' for Inactive)
REMARK    1  A    between atoms: C_1  and  C_2
REMARK    2  A    between atoms: C_2  and  C_3
REMARK    3  A    between atoms: C_2  and  C_5
REMARK    4  A    between atoms: C_2  and  N_14
REMARK    5  A    between atoms: C_3  and  O_4
REMARK    6  A    between atoms: N_14  and  C_15
REMARK                            x       y       z     vdW  Elec       q    Type
REMARK                         _______ _______ _______ _____ _____    ______ ____
ROOT
ATOM      1  C   UNL     1       0.114   1.681   0.526  0.00  0.00    +0.039 C 
ATOM      2  C   UNL     1       0.142   0.218   0.079  0.00  0.00    +0.078 C 
ENDROOT
BRANCH   2   3
ATOM      3  C   UNL     1      -1.198  -0.416   0.352  0.00  0.00    -0.019 A 
ATOM      4  C   UNL     1      -1.681  -1.397  -0.492  0.00  0.00    +0.009 A 
ATOM      5  C   UNL     1      -2.909  -1.983  -0.245  0.00  0.00    +0.050 A 
ATOM      6  C   UNL     1      -3.658  -1.586   0.851  0.00  0.00    +0.166 A 
ATOM      7  C   UNL     1      -3.171  -0.597   1.702  0.00  0.00    +0.167 A 
ATOM      8  C   UNL     1      -1.937  -0.019   1.451  0.00  0.00    +0.055 A 
ATOM      9  O   UNL     1      -4.084  -0.387   2.694  0.00  0.00    -0.453 OA
ATOM     10  C   UNL     1      -5.313  -0.963   2.214  0.00  0.00    +0.466 C 
ATOM     11  O   UNL     1      -4.877  -1.995   1.310  0.00  0.00    -0.453 OA
ENDBRANCH   2   3
BRANCH   2  12
ATOM     12  N   UNL     1       0.429   0.152  -1.356  0.00  0.00    -0.332 N 
ATOM     13  H   UNL     1       1.216  -0.319  -1.672  0.00  0.00    +0.147 HD
BRANCH  12  14
ATOM     14  C   UNL     1      -0.429   0.767  -2.270  0.00  0.00    +0.031 A 
ATOM     15  C   UNL     1      -1.631   1.313  -1.837  0.00  0.00    +0.023 A 
ATOM     16  C   UNL     1      -2.479   1.921  -2.741  0.00  0.00    +0.005 A 
ATOM     17  C   UNL     1      -2.134   1.987  -4.079  0.00  0.00    +0.038 A 
ATOM     18  C   UNL     1      -0.936   1.445  -4.515  0.00  0.00    +0.125 A 
ATOM     19  C   UNL     1      -0.081   0.839  -3.612  0.00  0.00    +0.061 A 
ATOM     20  F   UNL     1      -0.602   1.511  -5.822  0.00  0.00    -0.205 F 
ENDBRANCH  12  14
ENDBRANCH   2  12
BRANCH   2  21
ATOM     21  C   UNL     1       1.229  -0.531   0.852  0.00  0.00    +0.186 C 
BRANCH  21  22
ATOM     22  O   UNL     1       1.270  -1.891   0.417  0.00  0.00    -0.393 OA
ATOM     23  H   UNL     1       1.938  -2.427   0.866  0.00  0.00    +0.210 HD
ENDBRANCH  21  22
ENDBRANCH   2  21
TORSDOF 5
