REMARK  Name = ZINC39711281
REMARK  12 active torsions:
REMARK  status: ('A' for Active; 'I' for Inactive)
REMARK    1  A    between atoms: C_1  and  C_2
REMARK    2  A    between atoms: C_6  and  N_9
REMARK    3  A    between atoms: C_7  and  C_8
REMARK    4  A    between atoms: N_12  and  C_15
REMARK    5  A    between atoms: C_15  and  C_17
REMARK    6  A    between atoms: C_15  and  C_31
REMARK    7  A    between atoms: C_22  and  O_29
REMARK    8  A    between atoms: O_29  and  C_30
REMARK    9  A    between atoms: N_36  and  C_37
REMARK   10  A    between atoms: C_37  and  C_38
REMARK   11  A    between atoms: C_37  and  C_39
REMARK   12  A    between atoms: C_37  and  C_40
REMARK                            x       y       z     vdW  Elec       q    Type
REMARK                         _______ _______ _______ _____ _____    ______ ____
ROOT
ATOM      1  C   UNL     1       0.065  -2.979   6.571  0.00  0.00    -0.009 C 
ENDROOT
BRANCH   1   2
ATOM      2  C   UNL     1      -1.216  -3.623   7.105  0.00  0.00    +0.088 C 
ATOM      3  C   UNL     1      -1.140  -5.111   6.824  0.00  0.00    -0.006 C 
ATOM      4  C   UNL     1      -1.229  -5.954   7.892  0.00  0.00    -0.004 A 
ATOM      5  C   UNL     1      -1.165  -7.404   7.709  0.00  0.00    +0.055 A 
ATOM      6  C   UNL     1      -1.259  -8.208   8.805  0.00  0.00    +0.121 A 
ATOM      7  C   UNL     1      -1.414  -7.672  10.089  0.00  0.00    +0.047 A 
ATOM      8  C   UNL     1      -1.480  -6.336  10.320  0.00  0.00    +0.027 A 
ATOM      9  C   UNL     1      -1.392  -5.420   9.255  0.00  0.00    +0.041 A 
ATOM     10  N   UNL     1      -1.457  -4.110   9.498  0.00  0.00    -0.285 N 
ATOM     11  C   UNL     1      -1.383  -3.196   8.546  0.00  0.00    +0.223 C 
ATOM     12  O   UNL     1      -1.449  -2.015   8.829  0.00  0.00    -0.275 OA
ATOM     13  H   UNL     1      -1.565  -3.815  10.415  0.00  0.00    +0.155 HD
BRANCH   6  14
ATOM     14  O   UNL     1      -1.201  -9.557   8.648  0.00  0.00    -0.495 OA
ATOM     15  C   UNL     1      -1.305 -10.353   9.831  0.00  0.00    +0.277 C 
ENDBRANCH   6  14
ENDBRANCH   1   2
BRANCH   1  19
ATOM     16  N   UNL     1       0.478  -2.910   2.407  0.00  0.00    -0.333 N 
ATOM     17  C   UNL     1      -0.802  -3.398   2.944  0.00  0.00    +0.086 C 
ATOM     18  C   UNL     1      -0.935  -2.919   4.393  0.00  0.00    -0.059 C 
ATOM     19  N   UNL     1       0.243  -3.342   5.159  0.00  0.00    +0.387 N 
ATOM     20  C   UNL     1       1.445  -2.682   4.633  0.00  0.00    -0.059 C 
ATOM     21  C   UNL     1       1.698  -3.155   3.193  0.00  0.00    +0.086 C 
ATOM     22  H   UNL     1       0.351  -4.343   5.082  0.00  0.00    -0.081 HD
BRANCH  16  28
ATOM     23  C   UNL     1       0.325   1.304  -0.117  0.00  0.00    +0.044 C 
ATOM     24  C   UNL     1       0.464  -0.196  -0.070  0.00  0.00    -0.046 A 
ATOM     25  C   UNL     1       0.647  -0.910  -1.240  0.00  0.00    +0.004 A 
ATOM     26  C   UNL     1       0.775  -2.286  -1.202  0.00  0.00    +0.002 A 
ATOM     27  C   UNL     1       0.719  -2.953   0.006  0.00  0.00    +0.023 A 
ATOM     28  C   UNL     1       0.535  -2.240   1.184  0.00  0.00    +0.033 A 
ATOM     29  C   UNL     1       0.413  -0.856   1.142  0.00  0.00    -0.027 A 
ATOM     30  C   UNL     1       0.218  -0.077   2.417  0.00  0.00    +0.046 C 
ENDBRANCH  16  28
ENDBRANCH   1  19
BRANCH   1  31
ATOM     31  C   UNL     1       1.263  -3.477   7.381  0.00  0.00    +0.205 C 
ATOM     32  N   UNL     1       1.313  -4.945   7.374  0.00  0.00    -0.152 NA
ATOM     33  N   UNL     1       1.209  -5.353   8.532  0.00  0.00    -0.070 NA
ATOM     34  N   UNL     1       1.080  -4.322   9.461  0.00  0.00    -0.179 N 
ATOM     35  N   UNL     1       1.108  -3.115   8.806  0.00  0.00    -0.183 NA
ATOM     36  H   UNL     1       0.986  -4.437  10.420  0.00  0.00    +0.191 HD
BRANCH  35  37
ATOM     37  C   UNL     1       2.233  -2.290   9.265  0.00  0.00    +0.035 C 
ATOM     38  C   UNL     1       2.294  -1.005   8.437  0.00  0.00    +0.029 C 
ATOM     39  C   UNL     1       2.038  -1.937  10.741  0.00  0.00    +0.029 C 
ATOM     40  C   UNL     1       3.539  -3.068   9.096  0.00  0.00    +0.029 C 
ENDBRANCH  35  37
ENDBRANCH   1  31
TORSDOF 6
