REMARK  Name = ZINC24139845
REMARK  10 active torsions:
REMARK  status: ('A' for Active; 'I' for Inactive)
REMARK    1  A    between atoms: C_1  and  C_2
REMARK    2  A    between atoms: C_2  and  C_3
REMARK    3  A    between atoms: C_3  and  C_29
REMARK    4  A    between atoms: N_6  and  N_10
REMARK    5  A    between atoms: C_11  and  C_13
REMARK    6  A    between atoms: C_13  and  S_14
REMARK    7  A    between atoms: S_14  and  C_15
REMARK    8  A    between atoms: N_20  and  C_21
REMARK    9  A    between atoms: C_24  and  O_27
REMARK   10  A    between atoms: O_27  and  C_28
REMARK                            x       y       z     vdW  Elec       q    Type
REMARK                         _______ _______ _______ _____ _____    ______ ____
ROOT
ATOM      1  N   UNL     1      -2.983   2.094  -3.302  0.00  0.00    -0.223 N 
ATOM      2  C   UNL     1      -3.032   0.982  -4.062  0.00  0.00    +0.240 C 
ATOM      3  O   UNL     1      -2.260   0.070  -3.852  0.00  0.00    -0.273 OA
ATOM      4  H   UNL     1      -3.684   2.921  -3.492  0.00  0.00    +0.174 HD
ENDROOT
BRANCH   1   8
ATOM      5  C   UNL     1      -0.220   2.757  -1.010  0.00  0.00    +0.139 C 
ATOM      6  C   UNL     1      -0.927   2.954  -2.336  0.00  0.00    +0.268 C 
ATOM      7  O   UNL     1      -0.566   3.648  -3.262  0.00  0.00    -0.271 OA
ATOM      8  N   UNL     1      -2.041   2.197  -2.271  0.00  0.00    -0.137 N 
ATOM      9  C   UNL     1      -2.134   1.556  -1.100  0.00  0.00    +0.327 C 
ATOM     10  O   UNL     1      -3.052   0.815  -0.808  0.00  0.00    -0.251 OA
ATOM     11  N   UNL     1      -1.100   1.825  -0.283  0.00  0.00    -0.280 N 
ATOM     12  H   UNL     1      -0.833   1.495   0.732  0.00  0.00    +0.152 HD
BRANCH   5  13
ATOM     13  C   UNL     1       1.141   2.146  -1.220  0.00  0.00    -0.015 A 
ATOM     14  C   UNL     1       2.244   2.961  -1.400  0.00  0.00    +0.006 A 
ATOM     15  C   UNL     1       3.491   2.401  -1.600  0.00  0.00    +0.000 A 
ATOM     16  C   UNL     1       3.637   1.026  -1.619  0.00  0.00    +0.000 A 
ATOM     17  C   UNL     1       2.535   0.212  -1.439  0.00  0.00    +0.000 A 
ATOM     18  C   UNL     1       1.287   0.772  -1.240  0.00  0.00    +0.006 A 
ENDBRANCH   5  13
BRANCH   5  20
ATOM     19  C   UNL     1      -1.501   4.622   0.051  0.00  0.00    +0.007 C 
ATOM     20  C   UNL     1      -0.102   4.085  -0.260  0.00  0.00    +0.037 C 
ENDBRANCH   5  20
ENDBRANCH   1   8
BRANCH   2  21
ATOM     21  C   UNL     1      -4.046   0.871  -5.171  0.00  0.00    +0.173 C 
BRANCH  21  22
ATOM     22  S   UNL     1      -3.860  -0.731  -6.002  0.00  0.00    -0.088 S 
BRANCH  22  23
ATOM     23  C   UNL     1      -5.098  -0.707  -7.255  0.00  0.00    +0.160 A 
ATOM     24  N   UNL     1      -5.973   0.236  -7.550  0.00  0.00    -0.133 NA
ATOM     25  N   UNL     1      -6.862   0.048  -8.582  0.00  0.00    -0.125 NA
ATOM     26  C   UNL     1      -6.837  -1.076  -9.273  0.00  0.00    +0.187 A 
ATOM     27  S   UNL     1      -5.501  -1.951  -8.473  0.00  0.00    -0.024 S 
ATOM     28  N   UNL     1      -7.634  -1.471 -10.341  0.00  0.00    -0.292 N 
ATOM     29  H   UNL     1      -7.547  -2.490 -10.745  0.00  0.00    +0.154 HD
BRANCH  28  30
ATOM     30  C   UNL     1      -8.548  -0.572 -10.902  0.00  0.00    +0.033 A 
ATOM     31  C   UNL     1      -9.678  -1.046 -11.556  0.00  0.00    +0.027 A 
ATOM     32  C   UNL     1     -10.581  -0.158 -12.105  0.00  0.00    +0.047 A 
ATOM     33  C   UNL     1     -10.355   1.208 -12.014  0.00  0.00    +0.120 A 
ATOM     34  C   UNL     1      -9.224   1.682 -11.366  0.00  0.00    +0.047 A 
ATOM     35  C   UNL     1      -8.322   0.796 -10.812  0.00  0.00    +0.027 A 
BRANCH  33  36
ATOM     36  O   UNL     1     -11.243   2.081 -12.560  0.00  0.00    -0.495 OA
ATOM     37  C   UNL     1     -12.385   1.523 -13.212  0.00  0.00    +0.277 C 
ENDBRANCH  33  36
ENDBRANCH  28  30
ENDBRANCH  22  23
ENDBRANCH  21  22
ENDBRANCH   2  21
TORSDOF 8
