REMARK  Name = ZINC02055502
REMARK  11 active torsions:
REMARK  status: ('A' for Active; 'I' for Inactive)
REMARK    1  A    between atoms: C_1  and  C_2
REMARK    2  A    between atoms: C_2  and  C_3
REMARK    3  A    between atoms: C_3  and  O_4
REMARK    4  A    between atoms: O_4  and  C_5
REMARK    5  A    between atoms: C_5  and  C_7
REMARK    6  A    between atoms: C_8  and  C_29
REMARK    7  A    between atoms: C_12  and  C_14
REMARK    8  A    between atoms: C_18  and  O_20
REMARK    9  A    between atoms: O_20  and  C_21
REMARK   10  A    between atoms: C_25  and  C_27
REMARK   11  A    between atoms: C_25  and  C_28
REMARK                            x       y       z     vdW  Elec       q    Type
REMARK                         _______ _______ _______ _____ _____    ______ ____
ROOT
ATOM      1  C   UNL     1      -1.248  -2.046  -0.005  0.00  0.00    +0.065 C 
ATOM      2  C   UNL     1      -2.437  -2.661   0.113  0.00  0.00    +0.016 C 
ATOM      3  N   UNL     1      -2.516  -4.025   0.110  0.00  0.00    -0.321 N 
ATOM      4  C   UNL     1      -1.493  -4.782  -0.395  0.00  0.00    +0.016 C 
ATOM      5  C   UNL     1      -0.259  -4.256  -0.542  0.00  0.00    +0.024 C 
ATOM      6  C   UNL     1       0.024  -2.832  -0.142  0.00  0.00    +0.092 C 
ATOM      7  C   UNL     1       0.797  -5.018  -1.073  0.00  0.00    +0.162 C 
ATOM      8  O   UNL     1       1.897  -4.516  -1.184  0.00  0.00    -0.292 OA
ATOM      9  C   UNL     1       0.588  -6.444  -1.506  0.00  0.00    +0.086 C 
ATOM     10  C   UNL     1      -0.871  -6.625  -1.939  0.00  0.00    -0.023 C 
ATOM     11  C   UNL     1      -1.778  -6.214  -0.777  0.00  0.00    +0.058 C 
ATOM     12  C   UNL     1      -1.160  -5.741  -3.154  0.00  0.00    +0.011 C 
ATOM     13  C   UNL     1      -1.122  -8.091  -2.298  0.00  0.00    +0.011 C 
ATOM     14  C   UNL     1      -3.693  -1.839   0.249  0.00  0.00    +0.061 C 
ATOM     15  H   UNL     1      -3.407  -4.526   0.516  0.00  0.00    +0.152 HD
ENDROOT
BRANCH   6  16
ATOM     16  C   UNL     1       0.752  -2.829   1.178  0.00  0.00    -0.032 A 
ATOM     17  C   UNL     1       0.146  -3.358   2.302  0.00  0.00    +0.005 A 
ATOM     18  C   UNL     1       0.811  -3.357   3.514  0.00  0.00    +0.004 A 
ATOM     19  C   UNL     1       2.083  -2.826   3.605  0.00  0.00    +0.045 A 
ATOM     20  C   UNL     1       2.693  -2.295   2.478  0.00  0.00    +0.120 A 
ATOM     21  C   UNL     1       2.026  -2.302   1.262  0.00  0.00    +0.050 A 
BRANCH  20  22
ATOM     22  O   UNL     1       3.945  -1.773   2.564  0.00  0.00    -0.495 OA
ATOM     23  C   UNL     1       4.574  -1.804   3.847  0.00  0.00    +0.277 C 
ENDBRANCH  20  22
ENDBRANCH   6  16
BRANCH   1  24
ATOM     24  C   UNL     1      -1.194  -0.633  -0.006  0.00  0.00    +0.338 C 
ATOM     25  O   UNL     1      -2.223   0.015  -0.007  0.00  0.00    -0.245 OA
BRANCH  24  26
ATOM     26  O   UNL     1       0.000  -0.003  -0.007  0.00  0.00    -0.461 OA
BRANCH  26  27
ATOM     27  C   UNL     1      -0.020   1.426  -0.008  0.00  0.00    +0.232 C 
BRANCH  27  29
ATOM     28  C   UNL     1       1.393   3.486  -0.009  0.00  0.00    +0.007 C 
ATOM     29  C   UNL     1       1.415   1.956  -0.008  0.00  0.00    +0.038 C 
ENDBRANCH  27  29
ENDBRANCH  26  27
ENDBRANCH  24  26
ENDBRANCH   1  24
TORSDOF 6
