REMARK  Name = ZINC06614214
REMARK  8 active torsions:
REMARK  status: ('A' for Active; 'I' for Inactive)
REMARK    1  A    between atoms: C_1  and  C_2
REMARK    2  A    between atoms: C_2  and  O_3
REMARK    3  A    between atoms: O_3  and  C_4
REMARK    4  A    between atoms: C_6  and  C_11
REMARK    5  A    between atoms: C_9  and  O_10
REMARK    6  A    between atoms: C_12  and  C_13
REMARK    7  A    between atoms: C_12  and  C_15
REMARK    8  A    between atoms: N_17  and  C_18
REMARK                            x       y       z     vdW  Elec       q    Type
REMARK                         _______ _______ _______ _____ _____    ______ ____
ROOT
ATOM      1  C   UNL     1       2.483   1.079  -0.094  0.00  0.00    +0.032 C 
ATOM      2  C   UNL     1       2.503  -0.292   0.046  0.00  0.00    +0.114 C 
ENDROOT
BRANCH   1   5
ATOM      3  C   UNL     1      -0.144   3.706  -0.581  0.00  0.00    +0.162 A 
ATOM      4  C   UNL     1       1.053   3.026  -0.673  0.00  0.00    +0.057 A 
ATOM      5  C   UNL     1       1.215   1.806  -0.001  0.00  0.00    -0.020 A 
ATOM      6  C   UNL     1       0.159   1.284   0.759  0.00  0.00    +0.012 A 
ATOM      7  C   UNL     1      -1.033   1.967   0.840  0.00  0.00    +0.050 A 
ATOM      8  C   UNL     1      -1.190   3.179   0.179  0.00  0.00    +0.158 A 
BRANCH   8   9
ATOM      9  O   UNL     1      -2.366   3.851   0.267  0.00  0.00    -0.503 OA
ATOM     10  H   UNL     1      -3.006   3.615  -0.418  0.00  0.00    +0.292 HD
ENDBRANCH   8   9
BRANCH   3  11
ATOM     11  O   UNL     1      -0.305   4.890  -1.230  0.00  0.00    -0.489 OA
BRANCH  11  13
ATOM     12  C   UNL     1       0.440   6.704  -2.643  0.00  0.00    +0.048 C 
ATOM     13  C   UNL     1       0.807   5.370  -1.989  0.00  0.00    +0.226 C 
ENDBRANCH  11  13
ENDBRANCH   3  11
ENDBRANCH   1   5
BRANCH   2  14
ATOM     14  C   UNL     1       3.788  -1.003   0.137  0.00  0.00    +0.259 C 
ATOM     15  O   UNL     1       4.832  -0.381   0.088  0.00  0.00    -0.269 OA
ATOM     16  N   UNL     1       3.808  -2.344   0.274  0.00  0.00    -0.281 N 
ATOM     17  H   UNL     1       2.979  -2.847   0.236  0.00  0.00    +0.155 HD
BRANCH  16  18
ATOM     18  C   UNL     1       5.023  -3.009   0.470  0.00  0.00    +0.035 A 
ATOM     19  C   UNL     1       5.164  -4.332   0.070  0.00  0.00    +0.026 A 
ATOM     20  C   UNL     1       6.366  -4.985   0.258  0.00  0.00    +0.041 A 
ATOM     21  C   UNL     1       7.427  -4.327   0.857  0.00  0.00    +0.142 A 
ATOM     22  C   UNL     1       7.287  -3.009   1.262  0.00  0.00    +0.078 A 
ATOM     23  C   UNL     1       6.088  -2.349   1.069  0.00  0.00    +0.046 A 
ATOM     24 CL   UNL     1       8.619  -2.186   2.012  0.00  0.00    -0.081 Cl
ATOM     25  F   UNL     1       8.600  -4.969   1.045  0.00  0.00    -0.204 F 
ENDBRANCH  16  18
ENDBRANCH   2  14
BRANCH   2  26
ATOM     26  C   UNL     1       1.274  -1.024   0.103  0.00  0.00    +0.104 C 
ATOM     27  N   UNL     1       0.299  -1.605   0.149  0.00  0.00    -0.191 NA
ENDBRANCH   2  26
TORSDOF 7
