REMARK  Name = ZINC55300940
REMARK  6 active torsions:
REMARK  status: ('A' for Active; 'I' for Inactive)
REMARK    1  A    between atoms: C_1  and  N_2
REMARK    2  A    between atoms: N_2  and  C_3
REMARK    3  A    between atoms: C_3  and  C_5
REMARK    4  A    between atoms: C_3  and  C_14
REMARK    5  A    between atoms: C_8  and  O_12
REMARK    6  A    between atoms: O_12  and  C_13
REMARK                            x       y       z     vdW  Elec       q    Type
REMARK                         _______ _______ _______ _____ _____    ______ ____
ROOT
ATOM      1  C   UNL     1       0.690  -0.478  -1.207  0.00  0.00    -0.009 C 
ENDROOT
BRANCH   1   2
ATOM      2  C   UNL     1       2.137  -0.060  -1.158  0.00  0.00    -0.045 A 
ATOM      3  C   UNL     1       2.748   0.172   0.061  0.00  0.00    +0.007 A 
ATOM      4  C   UNL     1       4.074   0.555   0.108  0.00  0.00    +0.046 A 
ATOM      5  C   UNL     1       4.794   0.708  -1.068  0.00  0.00    +0.121 A 
ATOM      6  C   UNL     1       4.180   0.474  -2.290  0.00  0.00    +0.061 A 
ATOM      7  C   UNL     1       2.853   0.086  -2.332  0.00  0.00    +0.023 A 
ATOM      8 BR   UNL     1       2.017  -0.239  -3.996  0.00  0.00    -0.050 Br
BRANCH   5   9
ATOM      9  O   UNL     1       6.098   1.085  -1.023  0.00  0.00    -0.495 OA
ATOM     10  C   UNL     1       6.777   1.222  -2.273  0.00  0.00    +0.277 C 
ENDBRANCH   5   9
ENDBRANCH   1   2
BRANCH   1  11
ATOM     11  C   UNL     1       0.602  -2.004  -1.278  0.00  0.00    +0.134 C 
ATOM     12  C   UNL     1       1.211  -2.490  -2.597  0.00  0.00    +0.190 C 
ATOM     13  O   UNL     1       1.226  -3.921  -2.607  0.00  0.00    -0.375 OA
ATOM     14  C   UNL     1       1.952  -4.493  -1.515  0.00  0.00    +0.188 C 
ATOM     15  C   UNL     1       1.343  -4.007  -0.197  0.00  0.00    +0.188 C 
ATOM     16  O   UNL     1       1.326  -2.576  -0.186  0.00  0.00    -0.373 OA
ENDBRANCH   1  11
BRANCH   1  18
ATOM     17  C   UNL     1      -0.018   1.465   0.010  0.00  0.00    -0.100 C 
ATOM     18  N   UNL     1       0.002  -0.004   0.002  0.00  0.00    +0.383 N 
ATOM     19  H   UNL     1       0.490  -0.338   0.820  0.00  0.00    -0.085 HD
ATOM     20  H   UNL     1      -0.945  -0.353   0.009  0.00  0.00    -0.085 HD
ENDBRANCH   1  18
TORSDOF 4
