REMARK  Name = ZINC40278213
REMARK  7 active torsions:
REMARK  status: ('A' for Active; 'I' for Inactive)
REMARK    1  A    between atoms: C_1  and  O_2
REMARK    2  A    between atoms: O_2  and  C_3
REMARK    3  A    between atoms: C_6  and  C_11
REMARK    4  A    between atoms: C_8  and  O_9
REMARK    5  A    between atoms: O_9  and  C_10
REMARK    6  A    between atoms: C_11  and  C_12
REMARK    7  A    between atoms: C_12  and  C_14
REMARK                            x       y       z     vdW  Elec       q    Type
REMARK                         _______ _______ _______ _____ _____    ______ ____
ROOT
ATOM      1  C   UNL     1       0.606  -0.608  -1.056  0.00  0.00    +0.161 A 
ATOM      2  C   UNL     1       1.173   0.159  -2.062  0.00  0.00    +0.049 A 
ATOM      3  C   UNL     1       1.787  -0.456  -3.137  0.00  0.00    +0.007 A 
ATOM      4  C   UNL     1       1.837  -1.836  -3.212  0.00  0.00    -0.042 A 
ATOM      5  C   UNL     1       1.273  -2.606  -2.212  0.00  0.00    +0.053 A 
ATOM      6  C   UNL     1       0.662  -1.996  -1.129  0.00  0.00    +0.162 A 
ENDROOT
BRANCH   1   8
ATOM      7  C   UNL     1      -0.017   1.425   0.010  0.00  0.00    +0.277 C 
ATOM      8  O   UNL     1       0.002  -0.004   0.002  0.00  0.00    -0.491 OA
ENDBRANCH   1   8
BRANCH   6   9
ATOM      9  O   UNL     1       0.112  -2.753  -0.142  0.00  0.00    -0.491 OA
ATOM     10  C   UNL     1       0.206  -4.171  -0.283  0.00  0.00    +0.277 C 
ENDBRANCH   6   9
BRANCH   4  11
ATOM     11  C   UNL     1       2.507  -2.501  -4.386  0.00  0.00    +0.059 C 
BRANCH  11  12
ATOM     12  C   UNL     1       3.989  -2.719  -4.072  0.00  0.00    +0.121 C 
ATOM     13 CL   UNL     1       4.808  -1.122  -3.897  0.00  0.00    -0.116 Cl
BRANCH  12  14
ATOM     14  C   UNL     1       4.632  -3.493  -5.194  0.00  0.00    +0.009 A 
ATOM     15  C   UNL     1       5.167  -4.738  -5.174  0.00  0.00    +0.014 A 
ATOM     16  C   UNL     1       5.709  -5.254  -6.337  0.00  0.00    +0.023 A 
ATOM     17  C   UNL     1       5.689  -4.497  -7.463  0.00  0.00    +0.055 A 
ATOM     18  S   UNL     1       4.880  -3.011  -6.894  0.00  0.00    -0.085 S 
ATOM     19 BR   UNL     1       6.343  -4.912  -9.188  0.00  0.00    -0.043 Br
ENDBRANCH  12  14
ENDBRANCH  11  12
ENDBRANCH   4  11
TORSDOF 5
