REMARK  Name = ZINC52627265
REMARK  11 active torsions:
REMARK  status: ('A' for Active; 'I' for Inactive)
REMARK    1  A    between atoms: C_1  and  C_2
REMARK    2  A    between atoms: C_2  and  O_3
REMARK    3  A    between atoms: O_3  and  C_4
REMARK    4  A    between atoms: C_7  and  S_10
REMARK    5  A    between atoms: S_10  and  N_13
REMARK    6  A    between atoms: N_13  and  C_14
REMARK    7  A    between atoms: N_13  and  C_30
REMARK    8  A    between atoms: C_14  and  C_15
REMARK    9  A    between atoms: C_15  and  N_17
REMARK   10  A    between atoms: N_18  and  C_19
REMARK   11  A    between atoms: C_27  and  O_29
REMARK                            x       y       z     vdW  Elec       q    Type
REMARK                         _______ _______ _______ _____ _____    ______ ____
ROOT
ATOM      1  N   UNL     1       2.570  -6.773   1.047  0.00  0.00    -0.194 N 
ENDROOT
BRANCH   1   2
ATOM      2  C   UNL     1       2.544  -7.229  -0.274  0.00  0.00    +0.052 A 
ATOM      3  C   UNL     1       3.424  -6.701  -1.210  0.00  0.00    +0.026 A 
ATOM      4  C   UNL     1       3.397  -7.153  -2.514  0.00  0.00    +0.022 A 
ATOM      5  C   UNL     1       2.492  -8.131  -2.890  0.00  0.00    +0.041 A 
ATOM      6  C   UNL     1       1.614  -8.658  -1.960  0.00  0.00    +0.022 A 
ATOM      7  C   UNL     1       1.641  -8.214  -0.652  0.00  0.00    +0.026 A 
ATOM      8 CL   UNL     1       2.459  -8.696  -4.531  0.00  0.00    -0.084 Cl
ENDBRANCH   1   2
BRANCH   1   9
ATOM      9  S   UNL     1       1.219  -6.086   1.713  0.00  0.00    +0.075 S 
ATOM     10  O   UNL     1       1.270  -6.356   3.107  0.00  0.00    -0.150 OA
ATOM     11  O   UNL     1       0.121  -6.479   0.900  0.00  0.00    -0.150 OA
BRANCH   9  15
ATOM     12  C   UNL     1       1.631  -1.600   1.250  0.00  0.00    +0.121 A 
ATOM     13  C   UNL     1       1.014  -2.347   0.257  0.00  0.00    +0.047 A 
ATOM     14  C   UNL     1       0.889  -3.715   0.401  0.00  0.00    +0.032 A 
ATOM     15  C   UNL     1       1.379  -4.340   1.532  0.00  0.00    +0.109 A 
ATOM     16  C   UNL     1       1.994  -3.598   2.523  0.00  0.00    +0.032 A 
ATOM     17  C   UNL     1       2.127  -2.230   2.382  0.00  0.00    +0.047 A 
BRANCH  12  18
ATOM     18  O   UNL     1       1.755  -0.254   1.111  0.00  0.00    -0.492 OA
BRANCH  18  20
ATOM     19  C   UNL     1       1.453   1.839  -0.059  0.00  0.00    +0.048 C 
ATOM     20  C   UNL     1       1.221   0.327  -0.081  0.00  0.00    +0.225 C 
ENDBRANCH  18  20
ENDBRANCH  12  18
ENDBRANCH   9  15
ENDBRANCH   1   9
BRANCH   1  21
ATOM     21  C   UNL     1       3.793  -6.904   1.843  0.00  0.00    +0.230 C 
BRANCH  21  22
ATOM     22  C   UNL     1       3.842  -8.275   2.466  0.00  0.00    +0.273 C 
ATOM     23  O   UNL     1       2.944  -9.065   2.266  0.00  0.00    -0.270 OA
BRANCH  22  24
ATOM     24  N   UNL     1       4.885  -8.623   3.247  0.00  0.00    -0.078 NA
ATOM     25  N   UNL     1       4.927  -9.796   3.781  0.00  0.00    -0.157 NA
BRANCH  25  26
ATOM     26  C   UNL     1       5.960 -10.142   4.556  0.00  0.00    +0.120 C 
ATOM     27  C   UNL     1       7.057  -9.361   4.888  0.00  0.00    +0.043 A 
ATOM     28  C   UNL     1       7.454  -8.042   4.564  0.00  0.00    +0.122 A 
ATOM     29  N   UNL     1       8.570  -7.554   5.032  0.00  0.00    -0.262 NA
ATOM     30  C   UNL     1       9.406  -8.219   5.823  0.00  0.00    +0.113 A 
ATOM     31  C   UNL     1       9.178  -9.491   6.228  0.00  0.00    +0.045 A 
ATOM     32  C   UNL     1       7.949 -10.156   5.767  0.00  0.00    +0.049 A 
ATOM     33  N   UNL     1       7.452 -11.342   5.973  0.00  0.00    -0.354 N 
ATOM     34  C   UNL     1       6.176 -11.464   5.259  0.00  0.00    +0.262 C 
ATOM     35  H   UNL     1       7.860 -12.034   6.516  0.00  0.00    +0.162 HD
BRANCH  34  36
ATOM     36  O   UNL     1       5.114 -11.709   6.183  0.00  0.00    -0.367 OA
ATOM     37  H   UNL     1       5.196 -12.543   6.666  0.00  0.00    +0.212 HD
ENDBRANCH  34  36
ENDBRANCH  25  26
ENDBRANCH  22  24
ENDBRANCH  21  22
ENDBRANCH   1  21
TORSDOF 10
