REMARK  Name = ZINC13727962
REMARK  5 active torsions:
REMARK  status: ('A' for Active; 'I' for Inactive)
REMARK    1  A    between atoms: C_1  and  C_2
REMARK    2  A    between atoms: N_8  and  C_11
REMARK    3  A    between atoms: C_11  and  C_12
REMARK    4  A    between atoms: C_12  and  C_14
REMARK    5  A    between atoms: C_18  and  C_20
REMARK                            x       y       z     vdW  Elec       q    Type
REMARK                         _______ _______ _______ _____ _____    ______ ____
ROOT
ATOM      1  C   UNL     1      -2.518  -2.702   0.012  0.00  0.00    +0.066 C 
ATOM      2  C   UNL     1      -1.191  -1.987   0.002  0.00  0.00    +0.052 A 
ATOM      3  C   UNL     1       0.015  -2.723  -0.014  0.00  0.00    +0.057 A 
ATOM      4  C   UNL     1       0.195  -4.182  -0.024  0.00  0.00    +0.118 A 
ATOM      5  C   UNL     1       1.515  -4.635  -0.040  0.00  0.00    +0.108 A 
ATOM      6  C   UNL     1       1.790  -6.011  -0.052  0.00  0.00    +0.285 A 
ATOM      7  O   UNL     1       2.936  -6.428  -0.065  0.00  0.00    -0.265 OA
ATOM      8  N   UNL     1       0.733  -6.860  -0.047  0.00  0.00    -0.206 N 
ATOM      9  N   UNL     1      -0.464  -6.396  -0.033  0.00  0.00    -0.062 NA
ATOM     10  N   UNL     1      -0.762  -5.153  -0.021  0.00  0.00    -0.129 NA
ATOM     11  S   UNL     1       2.500  -3.164  -0.040  0.00  0.00    -0.061 S 
ATOM     12  C   UNL     1       1.201  -1.956  -0.021  0.00  0.00    +0.115 A 
ATOM     13  N   UNL     1       1.167  -0.640  -0.018  0.00  0.00    -0.220 NA
ATOM     14  C   UNL     1       0.002  -0.004   0.002  0.00  0.00    +0.161 A 
ATOM     15  N   UNL     1      -1.147  -0.673   0.009  0.00  0.00    -0.232 NA
ENDROOT
BRANCH  14  16
ATOM     16  C   UNL     1      -0.018   1.478   0.010  0.00  0.00    +0.019 A 
ATOM     17  C   UNL     1      -1.234   2.161   0.020  0.00  0.00    +0.013 A 
ATOM     18  C   UNL     1      -1.247   3.541   0.032  0.00  0.00    +0.021 A 
ATOM     19  C   UNL     1      -0.056   4.247   0.024  0.00  0.00    +0.041 A 
ATOM     20  C   UNL     1       1.154   3.573   0.010  0.00  0.00    +0.021 A 
ATOM     21  C   UNL     1       1.179   2.194   0.003  0.00  0.00    +0.013 A 
ATOM     22 CL   UNL     1      -0.079   5.982   0.034  0.00  0.00    -0.084 Cl
ENDBRANCH  14  16
BRANCH   8  23
ATOM     23  C   UNL     1       0.958  -8.307  -0.059  0.00  0.00    +0.179 C 
BRANCH  23  24
ATOM     24  C   UNL     1       1.048  -8.813   1.358  0.00  0.00    -0.058 C 
ATOM     25  C   UNL     1      -0.016  -9.297   1.950  0.00  0.00    +0.009 C 
ATOM     26  C   UNL     1       2.362  -8.761   2.095  0.00  0.00    +0.040 C 
ENDBRANCH  23  24
ENDBRANCH   8  23
TORSDOF 3
