REMARK  Name = ZINC35485232
REMARK  4 active torsions:
REMARK  status: ('A' for Active; 'I' for Inactive)
REMARK    1  A    between atoms: C_3  and  C_6
REMARK    2  A    between atoms: C_6  and  N_7
REMARK    3  A    between atoms: C_11  and  C_12
REMARK    4  A    between atoms: C_15  and  C_17
REMARK                            x       y       z     vdW  Elec       q    Type
REMARK                         _______ _______ _______ _____ _____    ______ ____
ROOT
ATOM      1  N   UNL     1       4.101   0.607   1.347  0.00  0.00    -0.248 N 
ATOM      2  C   UNL     1       4.344   1.752   1.962  0.00  0.00    +0.259 C 
ATOM      3  O   UNL     1       4.162   2.823   1.412  0.00  0.00    -0.269 OA
ATOM      4  C   UNL     1       4.846   1.668   3.343  0.00  0.00    +0.080 C 
ATOM      5  C   UNL     1       5.178   2.669   4.210  0.00  0.00    +0.066 C 
ATOM      6  S   UNL     1       4.900  -0.104   3.574  0.00  0.00    -0.061 S 
ATOM      7  C   UNL     1       4.299  -0.578   1.961  0.00  0.00    +0.121 C 
ATOM      8  S   UNL     1       4.039  -2.153   1.343  0.00  0.00    -0.027 S 
ENDROOT
BRANCH   5   9
ATOM      9  C   UNL     1       5.645   2.355   5.505  0.00  0.00    +0.130 A 
ATOM     10  C   UNL     1       6.010   3.266   6.481  0.00  0.00    +0.050 A 
ATOM     11  C   UNL     1       6.406   2.523   7.596  0.00  0.00    +0.050 A 
ATOM     12  C   UNL     1       6.272   1.203   7.270  0.00  0.00    +0.136 A 
ATOM     13  O   UNL     1       5.809   1.114   6.010  0.00  0.00    -0.455 OA
BRANCH  12  14
ATOM     14  C   UNL     1       6.580   0.064   8.155  0.00  0.00    +0.020 A 
ATOM     15  C   UNL     1       7.047   0.289   9.453  0.00  0.00    +0.031 A 
ATOM     16  C   UNL     1       7.333  -0.781  10.276  0.00  0.00    +0.043 A 
ATOM     17  C   UNL     1       7.158  -2.077   9.818  0.00  0.00    +0.040 A 
ATOM     18  C   UNL     1       6.696  -2.307   8.533  0.00  0.00    +0.043 A 
ATOM     19  C   UNL     1       6.400  -1.246   7.702  0.00  0.00    +0.031 A 
ATOM     20 CL   UNL     1       6.480  -3.935   7.969  0.00  0.00    -0.083 Cl
ATOM     21 CL   UNL     1       7.913  -0.503  11.888  0.00  0.00    -0.083 Cl
ENDBRANCH  12  14
ENDBRANCH   5   9
BRANCH   1  22
ATOM     22  C   UNL     1       3.599   0.625  -0.029  0.00  0.00    +0.189 C 
BRANCH  22  25
ATOM     23  C   UNL     1      -0.016   1.341   0.009  0.00  0.00    +0.041 A 
ATOM     24  C   UNL     1       1.331   1.769  -0.001  0.00  0.00    +0.046 A 
ATOM     25  C   UNL     1       2.092   0.660  -0.014  0.00  0.00    +0.122 A 
ATOM     26  O   UNL     1       1.282  -0.411  -0.012  0.00  0.00    -0.466 OA
ATOM     27  C   UNL     1       0.002  -0.004   0.002  0.00  0.00    +0.195 A 
ENDBRANCH  22  25
ENDBRANCH   1  22
TORSDOF 4
