REMARK  Name = ZINC11615753
REMARK  8 active torsions:
REMARK  status: ('A' for Active; 'I' for Inactive)
REMARK    1  A    between atoms: C_1  and  C_2
REMARK    2  A    between atoms: C_5  and  S_9
REMARK    3  A    between atoms: C_6  and  C_8
REMARK    4  A    between atoms: S_9  and  N_12
REMARK    5  A    between atoms: N_12  and  C_13
REMARK    6  A    between atoms: C_19  and  C_28
REMARK    7  A    between atoms: C_20  and  C_22
REMARK    8  A    between atoms: N_30  and  O_31
REMARK                            x       y       z     vdW  Elec       q    Type
REMARK                         _______ _______ _______ _____ _____    ______ ____
ROOT
ATOM      1  C   UNL     1       3.829   2.285  -1.958  0.00  0.00    +0.049 A 
ATOM      2  C   UNL     1       4.718   2.966  -1.129  0.00  0.00    +0.028 A 
ATOM      3  C   UNL     1       5.236   4.185  -1.508  0.00  0.00    +0.049 A 
ATOM      4  C   UNL     1       4.875   4.749  -2.726  0.00  0.00    +0.137 A 
ATOM      5  C   UNL     1       3.980   4.064  -3.561  0.00  0.00    +0.035 A 
ATOM      6  C   UNL     1       3.463   2.830  -3.177  0.00  0.00    +0.037 A 
ATOM      7  C   UNL     1       3.811   4.920  -4.751  0.00  0.00    +0.092 A 
ATOM      8  C   UNL     1       4.609   6.029  -4.527  0.00  0.00    +0.148 A 
ATOM      9  O   UNL     1       5.219   5.903  -3.337  0.00  0.00    -0.454 OA
ENDROOT
BRANCH   8  10
ATOM     10  C   UNL     1       4.766   7.169  -5.449  0.00  0.00    +0.018 A 
ATOM     11  C   UNL     1       4.081   7.186  -6.667  0.00  0.00    +0.011 A 
ATOM     12  C   UNL     1       4.227   8.258  -7.522  0.00  0.00    +0.001 A 
ATOM     13  C   UNL     1       5.058   9.310  -7.181  0.00  0.00    +0.000 A 
ATOM     14  C   UNL     1       5.744   9.298  -5.980  0.00  0.00    +0.001 A 
ATOM     15  C   UNL     1       5.603   8.235  -5.112  0.00  0.00    +0.011 A 
ENDBRANCH   8  10
BRANCH   7  16
ATOM     16  C   UNL     1       2.972   4.652  -5.925  0.00  0.00    +0.271 C 
ATOM     17  O   UNL     1       3.433   4.054  -6.879  0.00  0.00    -0.268 OA
ATOM     18  N   UNL     1       1.691   5.070  -5.947  0.00  0.00    -0.193 N 
ATOM     19  H   UNL     1       1.323   5.547  -5.187  0.00  0.00    +0.183 HD
BRANCH  18  20
ATOM     20  O   UNL     1       0.881   4.812  -7.080  0.00  0.00    -0.295 OA
ATOM     21  H   UNL     1      -0.022   5.149  -7.004  0.00  0.00    +0.241 HD
ENDBRANCH  18  20
ENDBRANCH   7  16
BRANCH   1  22
ATOM     22  N   UNL     1       3.312   1.048  -1.562  0.00  0.00    -0.216 N 
ATOM     23  H   UNL     1       3.296   0.306  -2.187  0.00  0.00    +0.174 HD
BRANCH  22  24
ATOM     24  S   UNL     1       2.725   0.849  -0.026  0.00  0.00    +0.073 S 
ATOM     25  O   UNL     1       3.732   1.323   0.857  0.00  0.00    -0.150 OA
ATOM     26  O   UNL     1       2.212  -0.474   0.044  0.00  0.00    -0.150 OA
BRANCH  24  31
ATOM     27  C   UNL     1      -1.991   4.564   0.579  0.00  0.00    +0.044 C 
ATOM     28  C   UNL     1      -0.813   3.636   0.428  0.00  0.00    -0.050 A 
ATOM     29  C   UNL     1       0.313   3.815   1.210  0.00  0.00    +0.005 A 
ATOM     30  C   UNL     1       1.395   2.967   1.068  0.00  0.00    +0.029 A 
ATOM     31  C   UNL     1       1.348   1.934   0.150  0.00  0.00    +0.111 A 
ATOM     32  C   UNL     1       0.221   1.752  -0.628  0.00  0.00    -0.024 A 
ATOM     33  C   UNL     1      -0.860   2.603  -0.490  0.00  0.00    +0.008 A 
ATOM     34  C   UNL     1       0.169   0.626  -1.628  0.00  0.00    +0.046 C 
ENDBRANCH  24  31
ENDBRANCH  22  24
ENDBRANCH   1  22
TORSDOF 6
