REMARK  Name = ZINC63526729
REMARK  7 active torsions:
REMARK  status: ('A' for Active; 'I' for Inactive)
REMARK    1  A    between atoms: C_1  and  O_2
REMARK    2  A    between atoms: O_2  and  C_3
REMARK    3  A    between atoms: C_9  and  C_12
REMARK    4  A    between atoms: C_12  and  C_13
REMARK    5  A    between atoms: C_13  and  N_14
REMARK    6  A    between atoms: N_14  and  C_15
REMARK    7  A    between atoms: N_20  and  C_23
REMARK                            x       y       z     vdW  Elec       q    Type
REMARK                         _______ _______ _______ _____ _____    ______ ____
ROOT
ATOM      1  N   UNL     1       1.792  -6.758  -0.033  0.00  0.00    +0.387 N 
ATOM      2  H   UNL     1       1.540  -7.511   0.589  0.00  0.00    -0.085 HD
ATOM      3  H   UNL     1       0.992  -6.502  -0.592  0.00  0.00    -0.085 HD
ENDROOT
BRANCH   1   4
ATOM      4  C   UNL     1       2.885  -7.194  -0.913  0.00  0.00    +0.026 C 
ATOM      5  C   UNL     1       2.477  -8.455  -1.701  0.00  0.00    +0.090 C 
ATOM      6  C   UNL     1       2.544  -8.008  -3.145  0.00  0.00    +0.225 C 
ATOM      7  O   UNL     1       2.296  -8.702  -4.107  0.00  0.00    -0.275 OA
ATOM      8  N   UNL     1       2.921  -6.724  -3.192  0.00  0.00    -0.209 N 
ATOM      9  C   UNL     1       3.142  -6.165  -1.992  0.00  0.00    +0.213 C 
ATOM     10  O   UNL     1       3.490  -5.019  -1.801  0.00  0.00    -0.277 OA
BRANCH   8  11
ATOM     11  C   UNL     1       3.074  -6.021  -4.396  0.00  0.00    +0.079 A 
ATOM     12  C   UNL     1       2.001  -5.328  -4.938  0.00  0.00    +0.027 A 
ATOM     13  C   UNL     1       2.155  -4.636  -6.124  0.00  0.00    +0.002 A 
ATOM     14  C   UNL     1       3.377  -4.634  -6.772  0.00  0.00    +0.003 A 
ATOM     15  C   UNL     1       4.449  -5.323  -6.236  0.00  0.00    +0.040 A 
ATOM     16  C   UNL     1       4.303  -6.013  -5.046  0.00  0.00    +0.145 A 
ATOM     17  F   UNL     1       5.352  -6.682  -4.519  0.00  0.00    -0.204 F 
ENDBRANCH   8  11
ENDBRANCH   1   4
BRANCH   1  18
ATOM     18  C   UNL     1       2.230  -5.598   0.754  0.00  0.00    -0.077 C 
BRANCH  18  19
ATOM     19  C   UNL     1       1.092  -5.144   1.671  0.00  0.00    +0.014 C 
BRANCH  19  26
ATOM     20  C   UNL     1       0.626  -0.619   1.042  0.00  0.00    +0.121 A 
ATOM     21  C   UNL     1       1.202   0.173   2.051  0.00  0.00    +0.047 A 
ATOM     22  C   UNL     1       1.839  -0.358   3.116  0.00  0.00    +0.029 A 
ATOM     23  C   UNL     1       1.947  -1.815   3.248  0.00  0.00    +0.043 A 
ATOM     24  N   UNL     1       2.500  -2.573   4.161  0.00  0.00    -0.380 N 
ATOM     25  C   UNL     1       2.308  -3.978   3.782  0.00  0.00    +0.144 C 
ATOM     26  C   UNL     1       1.541  -3.954   2.479  0.00  0.00    -0.043 C 
ATOM     27  C   UNL     1       1.340  -2.650   2.185  0.00  0.00    +0.002 A 
ATOM     28  C   UNL     1       0.667  -1.972   1.072  0.00  0.00    +0.055 A 
ATOM     29  H   UNL     1       2.961  -2.259   4.955  0.00  0.00    +0.160 HD
BRANCH  20  31
ATOM     30  C   UNL     1      -0.017   1.425   0.010  0.00  0.00    +0.277 C 
ATOM     31  O   UNL     1       0.002  -0.004   0.002  0.00  0.00    -0.495 OA
ENDBRANCH  20  31
ENDBRANCH  19  26
ENDBRANCH  18  19
ENDBRANCH   1  18
TORSDOF 6
