REMARK  Name = ZINC15769729
REMARK  4 active torsions:
REMARK  status: ('A' for Active; 'I' for Inactive)
REMARK    1  A    between atoms: C_4  and  C_7
REMARK    2  A    between atoms: C_9  and  C_27
REMARK    3  A    between atoms: C_22  and  C_24
REMARK    4  A    between atoms: C_27  and  C_29
REMARK                            x       y       z     vdW  Elec       q    Type
REMARK                         _______ _______ _______ _____ _____    ______ ____
ROOT
ATOM      1  C   UNL     1       3.591  -0.676  -0.077  0.00  0.00    +0.061 C 
ATOM      2  C   UNL     1       3.748  -1.752  -1.184  0.00  0.00    +0.098 C 
ATOM      3  C   UNL     1       4.734  -2.764  -0.577  0.00  0.00    +0.116 C 
ATOM      4  C   UNL     1       6.115  -2.587  -1.155  0.00  0.00    -0.019 A 
ATOM      5  C   UNL     1       6.294  -2.242  -2.474  0.00  0.00    +0.006 A 
ATOM      6  C   UNL     1       7.573  -2.082  -2.980  0.00  0.00    +0.000 A 
ATOM      7  C   UNL     1       8.675  -2.268  -2.162  0.00  0.00    +0.001 A 
ATOM      8  C   UNL     1       8.508  -2.616  -0.838  0.00  0.00    +0.008 A 
ATOM      9  C   UNL     1       7.222  -2.781  -0.320  0.00  0.00    -0.019 A 
ATOM     10  C   UNL     1       7.035  -3.163   1.095  0.00  0.00    +0.023 C 
ATOM     11  C   UNL     1       5.830  -2.982   1.674  0.00  0.00    +0.072 C 
ATOM     12  N   UNL     1       4.821  -2.472   0.869  0.00  0.00    -0.316 N 
ATOM     13  C   UNL     1       3.759  -1.522   1.215  0.00  0.00    +0.167 C 
ENDROOT
BRANCH   1  17
ATOM     14  C   UNL     1      -0.281   1.123  -0.234  0.00  0.00    +0.000 A 
ATOM     15  C   UNL     1       0.827   1.892   0.069  0.00  0.00    +0.000 A 
ATOM     16  C   UNL     1       2.080   1.310   0.120  0.00  0.00    +0.004 A 
ATOM     17  C   UNL     1       2.225  -0.042  -0.132  0.00  0.00    -0.041 A 
ATOM     18  C   UNL     1       1.117  -0.811  -0.435  0.00  0.00    +0.004 A 
ATOM     19  C   UNL     1      -0.136  -0.229  -0.487  0.00  0.00    +0.000 A 
ENDBRANCH   1  17
BRANCH  13  20
ATOM     20  C   UNL     1       2.482  -2.251   1.542  0.00  0.00    +0.232 C 
ATOM     21  O   UNL     1       2.361  -3.422   1.253  0.00  0.00    -0.274 OA
ATOM     22  N   UNL     1       1.473  -1.601   2.156  0.00  0.00    -0.328 N 
ATOM     23  H   UNL     1       1.569  -0.664   2.387  0.00  0.00    +0.145 HD
ATOM     24  H   UNL     1       0.651  -2.070   2.366  0.00  0.00    +0.145 HD
ENDBRANCH  13  20
BRANCH   2  25
ATOM     25  C   UNL     1       4.316  -1.142  -2.439  0.00  0.00    +0.204 C 
ATOM     26  O   UNL     1       5.199  -0.312  -2.364  0.00  0.00    -0.288 OA
BRANCH  25  27
ATOM     27  C   UNL     1       3.821  -1.535  -3.703  0.00  0.00    +0.170 A 
ATOM     28  C   UNL     1       4.251  -1.064  -4.927  0.00  0.00    +0.053 A 
ATOM     29  C   UNL     1       3.487  -1.725  -5.899  0.00  0.00    +0.042 A 
ATOM     30  C   UNL     1       2.640  -2.554  -5.246  0.00  0.00    +0.196 A 
ATOM     31  O   UNL     1       2.846  -2.442  -3.929  0.00  0.00    -0.460 OA
ENDBRANCH  25  27
ENDBRANCH   2  25
TORSDOF 4
