REMARK  Name = ZINC40347876
REMARK  5 active torsions:
REMARK  status: ('A' for Active; 'I' for Inactive)
REMARK    1  A    between atoms: C_1  and  C_2
REMARK    2  A    between atoms: C_3  and  N_22
REMARK    3  A    between atoms: C_7  and  S_8
REMARK    4  A    between atoms: S_8  and  N_11
REMARK    5  A    between atoms: C_19  and  C_21
REMARK                            x       y       z     vdW  Elec       q    Type
REMARK                         _______ _______ _______ _____ _____    ______ ____
ROOT
ATOM      1  S   UNL     1       0.262   0.175   2.711  0.00  0.00    +0.062 S 
ATOM      2  O   UNL     1      -0.853   1.056   2.707  0.00  0.00    -0.153 OA
ATOM      3  O   UNL     1       0.494  -0.755   3.760  0.00  0.00    -0.153 OA
ENDROOT
BRANCH   1   4
ATOM      4  N   UNL     1       1.615   1.125   2.612  0.00  0.00    -0.169 NA
ATOM      5  C   UNL     1       2.939   0.573   2.938  0.00  0.00    +0.115 C 
ATOM      6  C   UNL     1       3.793   0.582   1.662  0.00  0.00    +0.060 C 
ATOM      7  C   UNL     1       3.588   1.884   0.958  0.00  0.00    -0.004 A 
ATOM      8  C   UNL     1       2.589   2.789   1.148  0.00  0.00    -0.019 A 
ATOM      9  C   UNL     1       2.620   3.931   0.349  0.00  0.00    +0.013 A 
ATOM     10  C   UNL     1       3.613   4.099  -0.553  0.00  0.00    +0.046 A 
ATOM     11  S   UNL     1       4.579   2.615  -0.318  0.00  0.00    -0.101 S 
ATOM     12  C   UNL     1       1.511   2.528   2.192  0.00  0.00    +0.107 C 
ATOM     13  C   UNL     1       1.729   3.447   3.396  0.00  0.00    +0.031 C 
ENDBRANCH   1   4
BRANCH   1  20
ATOM     14  C   UNL     1      -0.215   1.378  -0.021  0.00  0.00    +0.047 C 
ATOM     15  C   UNL     1      -0.051  -0.119   0.017  0.00  0.00    -0.004 A 
ATOM     16  C   UNL     1      -0.117  -0.856  -1.159  0.00  0.00    +0.029 A 
ATOM     17  C   UNL     1       0.035  -2.236  -1.119  0.00  0.00    +0.023 A 
ATOM     18  C   UNL     1       0.252  -2.871   0.089  0.00  0.00    +0.004 A 
ATOM     19  C   UNL     1       0.317  -2.134   1.257  0.00  0.00    +0.029 A 
ATOM     20  C   UNL     1       0.171  -0.759   1.220  0.00  0.00    +0.110 A 
BRANCH  16  21
ATOM     21  N   UNL     1      -0.337  -0.211  -2.378  0.00  0.00    -0.358 N 
ATOM     22  H   UNL     1      -0.443   0.752  -2.404  0.00  0.00    +0.142 HD
ATOM     23  H   UNL     1      -0.383  -0.727  -3.198  0.00  0.00    +0.142 HD
ENDBRANCH  16  21
ENDBRANCH   1  20
TORSDOF 3
