REMARK  Name = ZINC16011540
REMARK  4 active torsions:
REMARK  status: ('A' for Active; 'I' for Inactive)
REMARK    1  A    between atoms: C_12  and  C_15
REMARK    2  A    between atoms: C_15  and  C_16
REMARK    3  A    between atoms: C_19  and  O_22
REMARK    4  A    between atoms: N_25  and  C_28
REMARK                            x       y       z     vdW  Elec       q    Type
REMARK                         _______ _______ _______ _____ _____    ______ ____
ROOT
ATOM      1  C   UNL     1      -0.235   1.043   0.962  0.00  0.00    +0.000 A 
ATOM      2  C   UNL     1       0.928   1.767   1.152  0.00  0.00    +0.002 A 
ATOM      3  C   UNL     1       2.157   1.149   1.054  0.00  0.00    +0.023 A 
ATOM      4  C   UNL     1       2.237  -0.211   0.763  0.00  0.00    +0.039 A 
ATOM      5  C   UNL     1       1.060  -0.929   0.574  0.00  0.00    +0.003 A 
ATOM      6  C   UNL     1      -0.165  -0.308   0.672  0.00  0.00    +0.008 A 
ATOM      7  C   UNL     1       1.483  -2.341   0.281  0.00  0.00    +0.136 C 
ATOM      8  C   UNL     1       0.973  -2.808  -1.088  0.00  0.00    +0.123 C 
ATOM      9  C   UNL     1       0.635  -4.311  -0.888  0.00  0.00    +0.108 C 
ATOM     10  C   UNL     1       1.009  -4.610   0.579  0.00  0.00    +0.072 C 
ATOM     11  N   UNL     1       0.925  -3.287   1.265  0.00  0.00    -0.295 NA
ATOM     12  C   UNL     1      -0.866  -4.357  -1.057  0.00  0.00    +0.232 C 
ATOM     13  O   UNL     1      -1.551  -5.353  -0.965  0.00  0.00    -0.274 OA
ATOM     14  N   UNL     1      -1.321  -3.127  -1.322  0.00  0.00    -0.210 N 
ATOM     15  C   UNL     1      -0.367  -2.169  -1.375  0.00  0.00    +0.233 C 
ATOM     16  O   UNL     1      -0.547  -0.993  -1.608  0.00  0.00    -0.274 OA
ATOM     17  C   UNL     1       2.986  -2.317   0.330  0.00  0.00    +0.243 C 
ATOM     18  O   UNL     1       3.731  -3.257   0.150  0.00  0.00    -0.273 OA
ATOM     19  N   UNL     1       3.343  -1.050   0.613  0.00  0.00    -0.283 N 
ATOM     20  H   UNL     1       1.471  -3.289   2.114  0.00  0.00    +0.124 HD
ATOM     21  H   UNL     1       4.263  -0.754   0.703  0.00  0.00    +0.155 HD
ENDROOT
BRANCH  14  22
ATOM     22  C   UNL     1      -2.680  -2.851  -1.536  0.00  0.00    +0.044 A 
ATOM     23  C   UNL     1      -3.587  -2.973  -0.493  0.00  0.00    +0.027 A 
ATOM     24  C   UNL     1      -4.924  -2.701  -0.705  0.00  0.00    +0.040 A 
ATOM     25  C   UNL     1      -5.360  -2.306  -1.959  0.00  0.00    +0.124 A 
ATOM     26  C   UNL     1      -4.457  -2.184  -3.002  0.00  0.00    +0.040 A 
ATOM     27  C   UNL     1      -3.118  -2.450  -2.791  0.00  0.00    +0.027 A 
ATOM     28  F   UNL     1      -6.669  -2.041  -2.165  0.00  0.00    -0.205 F 
ENDBRANCH  14  22
BRANCH  10  29
ATOM     29  C   UNL     1       0.001  -5.581   1.198  0.00  0.00    +0.054 C 
BRANCH  29  30
ATOM     30  C   UNL     1       0.450  -5.954   2.587  0.00  0.00    -0.046 A 
ATOM     31  C   UNL     1       1.276  -7.047   2.774  0.00  0.00    +0.007 A 
ATOM     32  C   UNL     1       1.690  -7.392   4.046  0.00  0.00    +0.045 A 
ATOM     33  C   UNL     1       1.275  -6.641   5.136  0.00  0.00    +0.117 A 
ATOM     34  C   UNL     1       0.447  -5.544   4.946  0.00  0.00    +0.045 A 
ATOM     35  C   UNL     1       0.041  -5.200   3.671  0.00  0.00    +0.007 A 
BRANCH  33  36
ATOM     36  O   UNL     1       1.680  -6.978   6.389  0.00  0.00    -0.507 OA
ATOM     37  H   UNL     1       2.506  -6.556   6.663  0.00  0.00    +0.292 HD
ENDBRANCH  33  36
ENDBRANCH  29  30
ENDBRANCH  10  29
TORSDOF 4
