REMARK  Name = ZINC22473119
REMARK  10 active torsions:
REMARK  status: ('A' for Active; 'I' for Inactive)
REMARK    1  A    between atoms: C_1  and  C_2
REMARK    2  A    between atoms: C_5  and  C_11
REMARK    3  A    between atoms: C_7  and  N_8
REMARK    4  A    between atoms: N_13  and  C_14
REMARK    5  A    between atoms: N_13  and  C_29
REMARK    6  A    between atoms: C_14  and  C_15
REMARK    7  A    between atoms: C_15  and  C_16
REMARK    8  A    between atoms: C_16  and  N_17
REMARK    9  A    between atoms: C_20  and  O_21
REMARK   10  A    between atoms: C_29  and  C_30
REMARK                            x       y       z     vdW  Elec       q    Type
REMARK                         _______ _______ _______ _____ _____    ______ ____
ROOT
ATOM      1  C   UNL     1      -2.255   3.997   0.665  0.00  0.00    +0.247 C 
ATOM      2  O   UNL     1      -1.163   3.635   1.058  0.00  0.00    -0.270 OA
ATOM      3  N   UNL     1      -3.122   3.097   0.162  0.00  0.00    -0.293 N 
ENDROOT
BRANCH   1   8
ATOM      4  C   UNL     1      -3.717   9.556   0.950  0.00  0.00    +0.046 C 
ATOM      5  C   UNL     1      -3.334   8.100   0.875  0.00  0.00    -0.020 A 
ATOM      6  C   UNL     1      -3.867   7.297  -0.119  0.00  0.00    +0.006 A 
ATOM      7  C   UNL     1      -3.525   5.963  -0.189  0.00  0.00    +0.013 A 
ATOM      8  C   UNL     1      -2.630   5.425   0.738  0.00  0.00    +0.039 A 
ATOM      9  C   UNL     1      -2.097   6.240   1.737  0.00  0.00    +0.046 A 
ATOM     10  C   UNL     1      -2.452   7.572   1.800  0.00  0.00    +0.130 A 
BRANCH  10  11
ATOM     11  N   UNL     1      -1.887   8.438   2.859  0.00  0.00    +0.057 N 
ATOM     12  O   UNL     1      -1.046   7.996   3.623  0.00  0.00    -0.126 OA
ATOM     13  O   UNL     1      -2.262   9.591   2.968  0.00  0.00    -0.126 OA
ENDBRANCH  10  11
ENDBRANCH   1   8
BRANCH   3  14
ATOM     14  C   UNL     1      -4.460   3.523  -0.256  0.00  0.00    +0.110 C 
BRANCH  14  15
ATOM     15  C   UNL     1      -4.545   3.515  -1.783  0.00  0.00    +0.040 C 
BRANCH  15  16
ATOM     16  C   UNL     1      -5.942   3.961  -2.219  0.00  0.00    +0.114 C 
BRANCH  16  17
ATOM     17  N   UNL     1      -6.023   3.953  -3.682  0.00  0.00    -0.384 N 
ATOM     18  C   UNL     1      -7.193   4.320  -4.309  0.00  0.00    +0.053 A 
ATOM     19  C   UNL     1      -8.295   4.696  -3.584  0.00  0.00    +0.113 A 
ATOM     20  C   UNL     1      -9.471   5.063  -4.251  0.00  0.00    +0.286 A 
ATOM     21  O   UNL     1      -9.558   5.060  -5.591  0.00  0.00    -0.425 OA
ATOM     22  C   UNL     1      -8.514   4.702  -6.369  0.00  0.00    +0.141 A 
ATOM     23  C   UNL     1      -7.297   4.327  -5.778  0.00  0.00    +0.041 A 
ATOM     24  C   UNL     1      -6.214   3.963  -6.578  0.00  0.00    +0.013 A 
ATOM     25  C   UNL     1      -6.345   3.980  -7.950  0.00  0.00    +0.001 A 
ATOM     26  C   UNL     1      -7.545   4.357  -8.534  0.00  0.00    +0.004 A 
ATOM     27  C   UNL     1      -8.627   4.707  -7.753  0.00  0.00    +0.047 A 
ATOM     28  H   UNL     1      -5.149   3.655  -4.280  0.00  0.00    +0.160 HD
BRANCH  20  29
ATOM     29  O   UNL     1     -10.444   5.395  -3.595  0.00  0.00    -0.480 OA
ATOM     30  H   UNL     1     -11.375   5.687  -4.102  0.00  0.00    +0.295 HD
ENDBRANCH  20  29
ENDBRANCH  16  17
ENDBRANCH  15  16
ENDBRANCH  14  15
ENDBRANCH   3  14
BRANCH   3  31
ATOM     31  C   UNL     1      -2.727   1.692   0.032  0.00  0.00    +0.143 C 
BRANCH  31  32
ATOM     32  C   UNL     1      -3.196   0.925   1.241  0.00  0.00    -0.030 A 
ATOM     33  C   UNL     1      -2.418   0.890   2.383  0.00  0.00    +0.005 A 
ATOM     34  C   UNL     1      -2.850   0.191   3.494  0.00  0.00    +0.000 A 
ATOM     35  C   UNL     1      -4.057  -0.483   3.460  0.00  0.00    +0.000 A 
ATOM     36  C   UNL     1      -4.833  -0.453   2.316  0.00  0.00    +0.000 A 
ATOM     37  C   UNL     1      -4.403   0.251   1.207  0.00  0.00    +0.005 A 
ENDBRANCH  31  32
ENDBRANCH   3  31
TORSDOF 9
