REMARK  Name = ZINC55104327
REMARK  11 active torsions:
REMARK  status: ('A' for Active; 'I' for Inactive)
REMARK    1  A    between atoms: C_1  and  N_2
REMARK    2  A    between atoms: C_7  and  S_15
REMARK    3  A    between atoms: S_15  and  N_18
REMARK    4  A    between atoms: N_18  and  C_19
REMARK    5  A    between atoms: C_19  and  C_20
REMARK    6  A    between atoms: C_20  and  C_22
REMARK    7  A    between atoms: C_20  and  N_32
REMARK    8  A    between atoms: C_25  and  O_30
REMARK    9  A    between atoms: C_26  and  O_28
REMARK   10  A    between atoms: O_28  and  C_29
REMARK   11  A    between atoms: O_30  and  C_31
REMARK                            x       y       z     vdW  Elec       q    Type
REMARK                         _______ _______ _______ _____ _____    ______ ____
ROOT
ATOM      1  N   UNL     1      -2.644  -7.525  -1.793  0.00  0.00    -0.191 NA
ATOM      2  H   UNL     1      -3.064  -8.377  -1.990  0.00  0.00    +0.148 HD
ENDROOT
BRANCH   1   3
ATOM      3  S   UNL     1      -1.487  -7.425  -0.612  0.00  0.00    +0.058 S 
ATOM      4  O   UNL     1      -0.390  -6.721  -1.177  0.00  0.00    -0.153 OA
ATOM      5  O   UNL     1      -1.355  -8.728  -0.062  0.00  0.00    -0.153 OA
BRANCH   3  12
ATOM      6  C   UNL     1      -5.370  -6.377   5.904  0.00  0.00    +0.157 C 
ATOM      7  N   UNL     1      -4.599  -5.853   4.774  0.00  0.00    -0.264 N 
ATOM      8  C   UNL     1      -4.136  -6.707   3.835  0.00  0.00    +0.264 A 
ATOM      9  O   UNL     1      -4.351  -7.901   3.917  0.00  0.00    -0.267 OA
ATOM     10  C   UNL     1      -3.363  -6.154   2.708  0.00  0.00    +0.065 A 
ATOM     11  C   UNL     1      -2.853  -6.968   1.700  0.00  0.00    +0.043 A 
ATOM     12  C   UNL     1      -2.137  -6.402   0.667  0.00  0.00    +0.106 A 
ATOM     13  C   UNL     1      -1.924  -5.032   0.628  0.00  0.00    +0.030 A 
ATOM     14  C   UNL     1      -2.425  -4.214   1.621  0.00  0.00    +0.028 A 
ATOM     15  C   UNL     1      -3.147  -4.765   2.668  0.00  0.00    +0.056 A 
ATOM     16  N   UNL     1      -3.668  -3.979   3.685  0.00  0.00    -0.307 N 
ATOM     17  H   UNL     1      -3.528  -3.019   3.671  0.00  0.00    +0.170 HD
ATOM     18  C   UNL     1      -4.370  -4.533   4.689  0.00  0.00    +0.330 A 
ATOM     19  O   UNL     1      -4.814  -3.808   5.558  0.00  0.00    -0.246 OA
ENDBRANCH   3  12
ENDBRANCH   1   3
BRANCH   1  20
ATOM     20  C   UNL     1      -3.033  -6.327  -2.542  0.00  0.00    +0.095 C 
BRANCH  20  21
ATOM     21  C   UNL     1      -3.824  -6.738  -3.785  0.00  0.00    -0.022 C 
BRANCH  21  22
ATOM     22  N   UNL     1      -4.270  -5.535  -4.500  0.00  0.00    +0.385 N 
ATOM     23  C   UNL     1      -5.147  -4.745  -3.627  0.00  0.00    -0.078 C 
ATOM     24  C   UNL     1      -5.550  -3.451  -4.338  0.00  0.00    -0.019 C 
ATOM     25  C   UNL     1      -6.292  -3.795  -5.632  0.00  0.00    -0.004 C 
ATOM     26  C   UNL     1      -5.396  -4.681  -6.503  0.00  0.00    -0.019 C 
ATOM     27  C   UNL     1      -4.999  -5.929  -5.712  0.00  0.00    -0.078 C 
ATOM     28  H   UNL     1      -3.467  -4.980  -4.758  0.00  0.00    -0.081 HD
ENDBRANCH  21  22
BRANCH  21  29
ATOM     29  C   UNL     1      -2.946  -7.563  -4.690  0.00  0.00    -0.056 A 
ATOM     30  C   UNL     1      -2.027  -6.941  -5.515  0.00  0.00    +0.006 A 
ATOM     31  C   UNL     1      -1.219  -7.693  -6.346  0.00  0.00    +0.049 A 
ATOM     32  C   UNL     1      -1.329  -9.075  -6.354  0.00  0.00    +0.161 A 
ATOM     33  C   UNL     1      -2.253  -9.701  -5.524  0.00  0.00    +0.162 A 
ATOM     34  C   UNL     1      -3.057  -8.941  -4.689  0.00  0.00    +0.051 A 
BRANCH  33  35
ATOM     35  O   UNL     1      -2.364 -11.056  -5.528  0.00  0.00    -0.491 OA
ATOM     36  C   UNL     1      -3.334 -11.630  -4.650  0.00  0.00    +0.277 C 
ENDBRANCH  33  35
BRANCH  32  37
ATOM     37  O   UNL     1      -0.535  -9.816  -7.172  0.00  0.00    -0.491 OA
ATOM     38  C   UNL     1       0.391  -9.106  -7.997  0.00  0.00    +0.277 C 
ENDBRANCH  32  37
ENDBRANCH  21  29
ENDBRANCH  20  21
ENDBRANCH   1  20
TORSDOF 8
