REMARK  Name = ZINC23331239
REMARK  14 active torsions:
REMARK  status: ('A' for Active; 'I' for Inactive)
REMARK    1  A    between atoms: C_1  and  C_2
REMARK    2  A    between atoms: C_2  and  C_3
REMARK    3  A    between atoms: C_2  and  N_4
REMARK    4  A    between atoms: N_4  and  C_5
REMARK    5  A    between atoms: N_4  and  C_33
REMARK    6  A    between atoms: C_5  and  C_6
REMARK    7  A    between atoms: C_6  and  S_7
REMARK    8  A    between atoms: S_7  and  C_8
REMARK    9  A    between atoms: C_12  and  S_24
REMARK   10  A    between atoms: N_16  and  C_17
REMARK   11  A    between atoms: C_17  and  C_18
REMARK   12  A    between atoms: S_24  and  N_27
REMARK   13  A    between atoms: C_33  and  C_34
REMARK   14  A    between atoms: C_33  and  C_35
REMARK                            x       y       z     vdW  Elec       q    Type
REMARK                         _______ _______ _______ _____ _____    ______ ____
ROOT
ATOM      1  C   UNL     1       8.712   4.112  -1.001  0.00  0.00    +0.170 A 
ATOM      2  N   UNL     1       7.475   4.414  -0.690  0.00  0.00    -0.222 NA
ATOM      3  C   UNL     1       6.984   3.489   0.176  0.00  0.00    +0.092 A 
ATOM      4  C   UNL     1       5.750   3.331   0.813  0.00  0.00    +0.058 A 
ATOM      5  C   UNL     1       5.548   2.263   1.657  0.00  0.00    +0.108 A 
ATOM      6  C   UNL     1       6.563   1.345   1.885  0.00  0.00    +0.030 A 
ATOM      7  C   UNL     1       7.784   1.483   1.260  0.00  0.00    +0.030 A 
ATOM      8  C   UNL     1       8.005   2.553   0.406  0.00  0.00    +0.070 A 
ATOM      9  N   UNL     1       9.088   2.970  -0.351  0.00  0.00    -0.316 N 
ENDROOT
BRANCH   5  10
ATOM     10  S   UNL     1       3.993   2.064   2.460  0.00  0.00    +0.061 S 
ATOM     11  O   UNL     1       3.396   3.353   2.514  0.00  0.00    -0.153 OA
ATOM     12  O   UNL     1       4.233   1.287   3.625  0.00  0.00    -0.153 OA
BRANCH  10  13
ATOM     13  N   UNL     1       3.042   1.144   1.465  0.00  0.00    -0.172 NA
ATOM     14  C   UNL     1       2.183   1.769   0.446  0.00  0.00    +0.137 C 
ATOM     15  C   UNL     1       0.767   1.200   0.592  0.00  0.00    +0.177 C 
ATOM     16  O   UNL     1       0.831  -0.229   0.579  0.00  0.00    -0.377 OA
ATOM     17  C   UNL     1       1.574  -0.791   1.663  0.00  0.00    +0.177 C 
ATOM     18  C   UNL     1       3.031  -0.324   1.573  0.00  0.00    +0.137 C 
ENDBRANCH  10  13
ENDBRANCH   5  10
BRANCH   1  19
ATOM     19  S   UNL     1       9.736   5.039  -2.094  0.00  0.00    -0.090 S 
BRANCH  19  20
ATOM     20  C   UNL     1       8.591   6.365  -2.549  0.00  0.00    +0.059 C 
BRANCH  20  21
ATOM     21  C   UNL     1       9.281   7.323  -3.522  0.00  0.00    -0.067 C 
BRANCH  21  22
ATOM     22  N   UNL     1       8.313   8.321  -3.997  0.00  0.00    +0.383 N 
ATOM     23  H   UNL     1       7.394   7.790  -4.284  0.00  0.00    -0.081 HD
BRANCH  22  25
ATOM     24  C   UNL     1       6.765   8.746  -2.147  0.00  0.00    -0.014 C 
ATOM     25  C   UNL     1       7.971   9.271  -2.929  0.00  0.00    -0.075 C 
ATOM     26  C   UNL     1       9.163   9.427  -1.984  0.00  0.00    -0.014 C 
ENDBRANCH  22  25
BRANCH  22  27
ATOM     27  C   UNL     1       8.819   9.023  -5.184  0.00  0.00    -0.075 C 
ATOM     28  C   UNL     1       7.692   9.850  -5.806  0.00  0.00    -0.014 C 
ATOM     29  C   UNL     1       9.967   9.949  -4.778  0.00  0.00    -0.014 C 
ENDBRANCH  22  27
ENDBRANCH  21  22
ENDBRANCH  20  21
ENDBRANCH  19  20
ENDBRANCH   1  19
BRANCH   9  30
ATOM     30  C   UNL     1      10.393   2.311  -0.438  0.00  0.00    +0.156 C 
BRANCH  30  31
ATOM     31  C   UNL     1      10.375   1.292  -1.580  0.00  0.00    +0.138 C 
ATOM     32  C   UNL     1      11.764   0.622  -1.724  0.00  0.00    +0.035 C 
ATOM     33  C   UNL     1      11.374  -0.722  -2.399  0.00  0.00    +0.031 C 
ATOM     34  C   UNL     1       9.998  -1.019  -1.765  0.00  0.00    +0.160 C 
ATOM     35  O   UNL     1       9.470   0.219  -1.276  0.00  0.00    -0.375 OA
ENDBRANCH  30  31
ENDBRANCH   9  30
TORSDOF 10
