REMARK  Name = ZINC12252062
REMARK  3 active torsions:
REMARK  status: ('A' for Active; 'I' for Inactive)
REMARK    1  A    between atoms: C_3  and  N_16
REMARK    2  A    between atoms: C_6  and  N_7
REMARK    3  A    between atoms: C_8  and  C_10
REMARK                            x       y       z     vdW  Elec       q    Type
REMARK                         _______ _______ _______ _____ _____    ______ ____
ROOT
ATOM      1  C   UNL     1       1.176   2.103  -0.013  0.00  0.00    +0.025 A 
ATOM      2  C   UNL     1       2.383   1.433  -0.035  0.00  0.00    +0.026 A 
ATOM      3  C   UNL     1       2.406   0.045  -0.040  0.00  0.00    +0.051 A 
ATOM      4  C   UNL     1       1.216  -0.670  -0.024  0.00  0.00    +0.026 A 
ATOM      5  C   UNL     1       0.009   0.000  -0.002  0.00  0.00    +0.025 A 
ATOM      6  C   UNL     1      -0.015   1.389   0.003  0.00  0.00    +0.034 A 
ENDROOT
BRANCH   3   7
ATOM      7  N   UNL     1       3.630  -0.634  -0.061  0.00  0.00    -0.207 N 
ATOM      8  C   UNL     1       3.898  -1.997   0.433  0.00  0.00    +0.133 C 
ATOM      9  C   UNL     1       5.047  -2.649  -0.363  0.00  0.00    +0.045 C 
ATOM     10  C   UNL     1       6.151  -1.553  -0.446  0.00  0.00    +0.190 C 
ATOM     11  S   UNL     1       5.092  -0.063  -0.648  0.00  0.00    +0.046 S 
ATOM     12  O   UNL     1       4.868   0.212  -2.024  0.00  0.00    -0.155 OA
ATOM     13  O   UNL     1       5.488   0.962   0.253  0.00  0.00    -0.155 OA
ENDBRANCH   3   7
BRANCH   6  14
ATOM     14  N   UNL     1      -1.239   2.068   0.019  0.00  0.00    -0.281 N 
ATOM     15  C   UNL     1      -1.357   3.228   0.696  0.00  0.00    +0.255 C 
ATOM     16  O   UNL     1      -0.380   3.728   1.222  0.00  0.00    -0.269 OA
ATOM     17  H   UNL     1      -2.002   1.704  -0.457  0.00  0.00    +0.155 HD
BRANCH  15  18
ATOM     18  C   UNL     1      -2.661   3.887   0.797  0.00  0.00    +0.076 A 
ATOM     19  C   UNL     1      -2.995   5.070   1.439  0.00  0.00    +0.022 A 
ATOM     20  C   UNL     1      -4.308   5.465   1.378  0.00  0.00    +0.028 A 
ATOM     21  C   UNL     1      -5.203   4.693   0.705  0.00  0.00    +0.079 A 
ATOM     22  S   UNL     1      -4.233   3.380   0.121  0.00  0.00    -0.072 S 
ATOM     23 CL   UNL     1      -6.903   4.961   0.478  0.00  0.00    -0.076 Cl
ENDBRANCH  15  18
ENDBRANCH   6  14
TORSDOF 3
