REMARK  Name = ZINC57924777
REMARK  3 active torsions:
REMARK  status: ('A' for Active; 'I' for Inactive)
REMARK    1  A    between atoms: C_1  and  C_2
REMARK    2  A    between atoms: N_12  and  C_13
REMARK    3  A    between atoms: C_13  and  C_14
REMARK                            x       y       z     vdW  Elec       q    Type
REMARK                         _______ _______ _______ _____ _____    ______ ____
ROOT
ATOM      1  C   UNL     1      -0.019   1.526   0.010  0.00  0.00    +0.029 C 
ATOM      2  C   UNL     1       0.002  -0.004   0.002  0.00  0.00    +0.088 C 
ATOM      3  C   UNL     1      -1.436  -0.542   0.028  0.00  0.00    +0.123 C 
ATOM      4  N   UNL     1      -2.064  -0.114   1.287  0.00  0.00    -0.341 N 
ATOM      5  C   UNL     1      -1.338  -0.242   2.483  0.00  0.00    +0.052 A 
ATOM      6  C   UNL     1      -1.991  -0.180   3.704  0.00  0.00    +0.074 A 
ATOM      7  C   UNL     1      -1.270  -0.305   4.882  0.00  0.00    +0.168 A 
ATOM      8  C   UNL     1       0.108  -0.493   4.838  0.00  0.00    +0.168 A 
ATOM      9  C   UNL     1       0.762  -0.556   3.617  0.00  0.00    +0.074 A 
ATOM     10  C   UNL     1       0.042  -0.432   2.440  0.00  0.00    +0.055 A 
ATOM     11  N   UNL     1       0.700  -0.497   1.199  0.00  0.00    -0.319 N 
ATOM     12  O   UNL     1       0.577  -0.586   6.119  0.00  0.00    -0.453 OA
ATOM     13  C   UNL     1      -0.466  -0.044   6.950  0.00  0.00    +0.466 C 
ATOM     14  O   UNL     1      -1.666  -0.280   6.190  0.00  0.00    -0.453 OA
ATOM     15  H   UNL     1      -2.963   0.251   1.291  0.00  0.00    +0.146 HD
ENDROOT
BRANCH  11  16
ATOM     16  C   UNL     1       2.054  -1.048   1.099  0.00  0.00    +0.147 C 
BRANCH  16  17
ATOM     17  C   UNL     1       3.060   0.059   1.283  0.00  0.00    +0.007 A 
ATOM     18  C   UNL     1       3.639   0.506   2.424  0.00  0.00    +0.013 A 
ATOM     19  C   UNL     1       4.547   1.546   2.353  0.00  0.00    +0.008 A 
ATOM     20  C   UNL     1       4.831   2.088   1.144  0.00  0.00    +0.045 A 
ATOM     21  S   UNL     1       3.805   1.117   0.052  0.00  0.00    -0.100 S 
ENDBRANCH  16  17
ENDBRANCH  11  16
TORSDOF 2
