REMARK  Name = ZINC12207549
REMARK  3 active torsions:
REMARK  status: ('A' for Active; 'I' for Inactive)
REMARK    1  A    between atoms: C_8  and  N_55
REMARK    2  A    between atoms: C_13  and  N_16
REMARK    3  A    between atoms: C_17  and  C_19
REMARK                            x       y       z     vdW  Elec       q    Type
REMARK                         _______ _______ _______ _____ _____    ______ ____
ROOT
ATOM      1  C   UNL     1      -0.013   1.086   0.008  0.00  0.00    -0.078 C 
ATOM      2  C   UNL     1      -0.752   1.593  -1.232  0.00  0.00    -0.017 C 
ATOM      3  C   UNL     1      -2.194   1.077  -1.207  0.00  0.00    +0.018 C 
ATOM      4  C   UNL     1      -2.872   1.544   0.085  0.00  0.00    +0.057 C 
ATOM      5  C   UNL     1      -2.071   1.038   1.287  0.00  0.00    -0.056 C 
ATOM      6  N   UNL     1      -0.701   1.589   1.216  0.00  0.00    +0.383 N 
ATOM      7  H   UNL     1      -0.756   2.613   1.166  0.00  0.00    -0.081 HD
ENDROOT
BRANCH   6  15
ATOM      8  C   UNL     1       3.149   2.757   5.690  0.00  0.00    +0.000 A 
ATOM      9  C   UNL     1       1.994   2.855   6.444  0.00  0.00    +0.000 A 
ATOM     10  C   UNL     1       0.768   2.605   5.861  0.00  0.00    +0.004 A 
ATOM     11  C   UNL     1       0.690   2.255   4.523  0.00  0.00    -0.046 A 
ATOM     12  C   UNL     1       1.845   2.156   3.770  0.00  0.00    -0.046 A 
ATOM     13  C   UNL     1       3.074   2.408   4.356  0.00  0.00    +0.004 A 
ATOM     14  C   UNL     1       1.497   1.764   2.350  0.00  0.00    +0.020 C 
ATOM     15  C   UNL     1       0.059   1.209   2.425  0.00  0.00    -0.060 C 
ATOM     16  C   UNL     1      -0.512   1.935   3.661  0.00  0.00    +0.020 C 
ENDBRANCH   6  15
BRANCH   4  17
ATOM     17  N   UNL     1      -4.234   1.007   0.143  0.00  0.00    -0.309 N 
ATOM     18  C   UNL     1      -5.242   1.660  -0.468  0.00  0.00    +0.262 C 
ATOM     19  O   UNL     1      -5.021   2.694  -1.069  0.00  0.00    -0.269 OA
ATOM     20  H   UNL     1      -4.410   0.183   0.623  0.00  0.00    +0.149 HD
BRANCH  18  21
ATOM     21  C   UNL     1      -6.610   1.122  -0.409  0.00  0.00    +0.124 A 
ATOM     22  C   UNL     1      -7.738   1.666  -0.971  0.00  0.00    +0.005 A 
ATOM     23  C   UNL     1      -8.786   0.796  -0.644  0.00  0.00    +0.067 A 
ATOM     24  N   UNL     1      -8.289  -0.176   0.063  0.00  0.00    -0.178 NA
ATOM     25  N   UNL     1      -7.020  -0.023   0.223  0.00  0.00    -0.272 N 
ATOM     26  H   UNL     1      -6.425  -0.645   0.731  0.00  0.00    +0.189 HD
ATOM     27  C   UNL     1     -10.215   1.027  -1.071  0.00  0.00    +0.057 C 
ATOM     28  C   UNL     1     -10.353   2.491  -1.510  0.00  0.00    +0.007 C 
ATOM     29  C   UNL     1      -9.253   2.838  -2.515  0.00  0.00    +0.005 C 
ATOM     30  C   UNL     1      -7.899   2.912  -1.796  0.00  0.00    +0.039 C 
ENDBRANCH  18  21
ENDBRANCH   4  17
TORSDOF 3
