REMARK  Name = ZINC08761974
REMARK  7 active torsions:
REMARK  status: ('A' for Active; 'I' for Inactive)
REMARK    1  A    between atoms: N_9  and  C_31
REMARK    2  A    between atoms: C_10  and  C_12
REMARK    3  A    between atoms: C_12  and  S_13
REMARK    4  A    between atoms: S_13  and  C_14
REMARK    5  A    between atoms: C_17  and  C_24
REMARK    6  A    between atoms: N_18  and  C_19
REMARK    7  A    between atoms: C_31  and  C_32
REMARK                            x       y       z     vdW  Elec       q    Type
REMARK                         _______ _______ _______ _____ _____    ______ ____
ROOT
ATOM      1  C   UNL     1       6.417   6.597  -0.295  0.00  0.00    +0.151 C 
ENDROOT
BRANCH   1  11
ATOM      2  C   UNL     1       9.015  12.389  -1.032  0.00  0.00    +0.001 A 
ATOM      3  C   UNL     1       7.629  12.478  -1.027  0.00  0.00    +0.002 A 
ATOM      4  C   UNL     1       6.850  11.352  -0.880  0.00  0.00    +0.028 A 
ATOM      5  C   UNL     1       7.459  10.104  -0.736  0.00  0.00    +0.078 A 
ATOM      6  C   UNL     1       8.869  10.017  -0.743  0.00  0.00    +0.065 A 
ATOM      7  C   UNL     1       9.639  11.169  -0.891  0.00  0.00    +0.015 A 
ATOM      8  C   UNL     1       9.479   8.688  -0.588  0.00  0.00    +0.262 A 
ATOM      9  O   UNL     1      10.688   8.544  -0.586  0.00  0.00    -0.267 OA
ATOM     10  N   UNL     1       8.645   7.633  -0.443  0.00  0.00    -0.287 N 
ATOM     11  C   UNL     1       7.298   7.809  -0.454  0.00  0.00    +0.124 A 
ATOM     12  N   UNL     1       6.731   8.970  -0.589  0.00  0.00    -0.233 NA
BRANCH  10  13
ATOM     13  C   UNL     1       9.199   6.286  -0.280  0.00  0.00    +0.222 C 
BRANCH  13  14
ATOM     14  C   UNL     1       9.377   5.649  -1.633  0.00  0.00    +0.230 C 
ATOM     15  O   UNL     1       9.071   6.258  -2.636  0.00  0.00    -0.274 OA
ATOM     16  N   UNL     1       9.876   4.400  -1.730  0.00  0.00    -0.328 N 
ATOM     17  H   UNL     1      10.121   3.913  -0.928  0.00  0.00    +0.145 HD
ATOM     18  H   UNL     1       9.991   3.990  -2.601  0.00  0.00    +0.145 HD
ENDBRANCH  13  14
ENDBRANCH  10  13
ENDBRANCH   1  11
BRANCH   1  19
ATOM     19  S   UNL     1       4.679   7.104  -0.336  0.00  0.00    -0.078 S 
BRANCH  19  20
ATOM     20  C   UNL     1       3.898   5.538  -0.135  0.00  0.00    +0.193 A 
ATOM     21  N   UNL     1       4.501   4.378  -0.000  0.00  0.00    -0.122 NA
ATOM     22  N   UNL     1       3.631   3.441   0.130  0.00  0.00    -0.128 NA
ATOM     23  C   UNL     1       2.420   3.944   0.079  0.00  0.00    +0.167 A 
ATOM     24  N   UNL     1       2.554   5.303  -0.090  0.00  0.00    -0.299 N 
BRANCH  23  25
ATOM     25  C   UNL     1       1.151   3.193   0.187  0.00  0.00    +0.038 A 
ATOM     26  C   UNL     1       0.148   3.632   1.053  0.00  0.00    +0.013 A 
ATOM     27  C   UNL     1      -1.033   2.926   1.149  0.00  0.00    +0.001 A 
ATOM     28  C   UNL     1      -1.224   1.783   0.394  0.00  0.00    +0.001 A 
ATOM     29  C   UNL     1      -0.237   1.345  -0.471  0.00  0.00    +0.021 A 
ATOM     30  C   UNL     1       0.951   2.041  -0.577  0.00  0.00    +0.052 A 
ATOM     31 CL   UNL     1       2.191   1.486  -1.657  0.00  0.00    -0.083 Cl
ENDBRANCH  23  25
BRANCH  24  32
ATOM     32  C   UNL     1       1.478   6.292  -0.198  0.00  0.00    +0.091 C 
ATOM     33  C   UNL     1       1.585   7.044  -1.541  0.00  0.00    +0.025 C 
ATOM     34  C   UNL     1       1.177   8.498  -1.195  0.00  0.00    +0.002 C 
ATOM     35  C   UNL     1       1.809   8.707   0.204  0.00  0.00    +0.002 C 
ATOM     36  C   UNL     1       1.620   7.348   0.911  0.00  0.00    +0.025 C 
ENDBRANCH  24  32
ENDBRANCH  19  20
ENDBRANCH   1  19
TORSDOF 7
