REMARK  Name = ZINC39198990
REMARK  10 active torsions:
REMARK  status: ('A' for Active; 'I' for Inactive)
REMARK    1  A    between atoms: C_1  and  C_2
REMARK    2  A    between atoms: C_2  and  C_3
REMARK    3  A    between atoms: C_3  and  C_31
REMARK    4  A    between atoms: N_6  and  C_10
REMARK    5  A    between atoms: C_10  and  C_11
REMARK    6  A    between atoms: N_13  and  C_14
REMARK    7  A    between atoms: C_14  and  C_15
REMARK    8  A    between atoms: C_15  and  N_16
REMARK    9  A    between atoms: C_20  and  C_21
REMARK   10  A    between atoms: C_31  and  C_32
REMARK                            x       y       z     vdW  Elec       q    Type
REMARK                         _______ _______ _______ _____ _____    ______ ____
ROOT
ATOM      1  C   UNL     1       4.687   2.814   3.089  0.00  0.00    +0.231 C 
ATOM      2  O   UNL     1       3.756   2.844   2.312  0.00  0.00    -0.274 OA
ATOM      3  N   UNL     1       5.400   3.933   3.328  0.00  0.00    -0.312 N 
ATOM      4  H   UNL     1       6.145   3.909   3.949  0.00  0.00    +0.149 HD
ENDROOT
BRANCH   1   5
ATOM      5  C   UNL     1       5.046   1.528   3.787  0.00  0.00    +0.213 C 
BRANCH   5   9
ATOM      6  C   UNL     1       3.145  -1.268   2.248  0.00  0.00    +0.112 C 
ATOM      7  C   UNL     1       4.343  -0.340   2.305  0.00  0.00    +0.247 C 
ATOM      8  O   UNL     1       5.296  -0.328   1.555  0.00  0.00    -0.273 OA
ATOM      9  N   UNL     1       4.128   0.469   3.361  0.00  0.00    -0.215 N 
ATOM     10  C   UNL     1       2.973   0.184   3.973  0.00  0.00    +0.310 C 
ATOM     11  O   UNL     1       2.562   0.777   4.951  0.00  0.00    -0.252 OA
ATOM     12  N   UNL     1       2.317  -0.833   3.386  0.00  0.00    -0.285 N 
ATOM     13  H   UNL     1       1.464  -1.207   3.658  0.00  0.00    +0.151 HD
BRANCH   6  15
ATOM     14  C   UNL     1       2.012   0.384   0.755  0.00  0.00    +0.006 C 
ATOM     15  C   UNL     1       2.388  -1.088   0.931  0.00  0.00    +0.032 C 
ENDBRANCH   6  15
BRANCH   6  16
ATOM     16  C   UNL     1       3.579  -2.724   2.423  0.00  0.00    +0.032 C 
ATOM     17  C   UNL     1       4.223  -2.902   3.800  0.00  0.00    +0.006 C 
ENDBRANCH   6  16
ENDBRANCH   5   9
ENDBRANCH   1   5
BRANCH   3  18
ATOM     18  C   UNL     1       5.051   5.183   2.650  0.00  0.00    +0.123 C 
BRANCH  18  19
ATOM     19  C   UNL     1       6.010   6.290   3.095  0.00  0.00    +0.136 C 
BRANCH  19  20
ATOM     20  N   UNL     1       5.661   7.540   2.416  0.00  0.00    -0.227 N 
ATOM     21  C   UNL     1       6.216   7.819   1.249  0.00  0.00    +0.260 C 
ATOM     22  O   UNL     1       7.011   7.063   0.722  0.00  0.00    -0.269 OA
ATOM     23  C   UNL     1       5.823   9.095   0.617  0.00  0.00    +0.080 C 
ATOM     24  C   UNL     1       6.223   9.636  -0.560  0.00  0.00    +0.028 C 
ATOM     25  S   UNL     1       4.674   9.729   1.831  0.00  0.00    -0.026 S 
ATOM     26  C   UNL     1       4.776   8.378   2.993  0.00  0.00    +0.286 C 
ATOM     27  O   UNL     1       4.190   8.246   4.051  0.00  0.00    -0.262 OA
BRANCH  24  28
ATOM     28  C   UNL     1       7.056   8.853  -1.484  0.00  0.00    -0.024 A 
ATOM     29  C   UNL     1       6.804   7.489  -1.673  0.00  0.00    +0.011 A 
ATOM     30  C   UNL     1       7.588   6.761  -2.540  0.00  0.00    +0.039 A 
ATOM     31  C   UNL     1       8.626   7.377  -3.225  0.00  0.00    +0.123 A 
ATOM     32  C   UNL     1       8.881   8.727  -3.043  0.00  0.00    +0.039 A 
ATOM     33  C   UNL     1       8.100   9.469  -2.183  0.00  0.00    +0.011 A 
ATOM     34  F   UNL     1       9.391   6.656  -4.074  0.00  0.00    -0.205 F 
ENDBRANCH  24  28
ENDBRANCH  19  20
ENDBRANCH  18  19
ENDBRANCH   3  18
TORSDOF 8
