REMARK  Name = ZINC39531096
REMARK  9 active torsions:
REMARK  status: ('A' for Active; 'I' for Inactive)
REMARK    1  A    between atoms: C_1  and  C_2
REMARK    2  A    between atoms: C_2  and  N_3
REMARK    3  A    between atoms: C_5  and  C_8
REMARK    4  A    between atoms: C_8  and  N_9
REMARK    5  A    between atoms: N_17  and  C_19
REMARK    6  A    between atoms: C_19  and  C_20
REMARK    7  A    between atoms: C_23  and  C_26
REMARK    8  A    between atoms: C_26  and  C_27
REMARK    9  A    between atoms: C_26  and  C_28
REMARK                            x       y       z     vdW  Elec       q    Type
REMARK                         _______ _______ _______ _____ _____    ______ ____
ROOT
ATOM      1  N   UNL     1       2.695  -3.735  -3.283  0.00  0.00    -0.298 NA
ATOM      2  C   UNL     1       2.488  -4.456  -2.000  0.00  0.00    +0.085 C 
ATOM      3  C   UNL     1       2.506  -5.952  -2.388  0.00  0.00    +0.021 C 
ATOM      4  C   UNL     1       3.303  -6.011  -3.701  0.00  0.00    -0.030 C 
ATOM      5  C   UNL     1       3.701  -4.555  -4.007  0.00  0.00    +0.089 C 
ATOM      6  C   UNL     1       2.429  -6.563  -4.823  0.00  0.00    +0.004 C 
ATOM      7  C   UNL     1       2.095  -8.028  -4.524  0.00  0.00    -0.018 C 
ATOM      8  C   UNL     1       3.396  -8.812  -4.341  0.00  0.00    -0.078 C 
ATOM      9  N   UNL     1       4.158  -8.252  -3.218  0.00  0.00    +0.383 N 
ATOM     10  C   UNL     1       4.550  -6.870  -3.523  0.00  0.00    -0.070 C 
ATOM     11  H   UNL     1       3.587  -8.264  -2.387  0.00  0.00    -0.081 HD
ENDROOT
BRANCH   1  12
ATOM     12  C   UNL     1       3.198  -2.374  -3.046  0.00  0.00    +0.122 C 
BRANCH  12  15
ATOM     13  N   UNL     1       0.688  -0.476  -1.203  0.00  0.00    -0.271 N 
ATOM     14  C   UNL     1       1.740  -1.321  -1.239  0.00  0.00    +0.113 A 
ATOM     15  C   UNL     1       2.076  -1.506  -2.536  0.00  0.00    +0.004 A 
ATOM     16  C   UNL     1       1.200  -0.749  -3.321  0.00  0.00    +0.139 A 
ATOM     17  N   UNL     1       0.363  -0.136  -2.523  0.00  0.00    -0.179 NA
BRANCH  13  19
ATOM     18  C   UNL     1      -0.019   1.526   0.010  0.00  0.00    +0.029 C 
ATOM     19  C   UNL     1       0.002  -0.004   0.002  0.00  0.00    +0.140 C 
ENDBRANCH  13  19
ENDBRANCH  12  15
ENDBRANCH   1  12
BRANCH   9  20
ATOM     20  C   UNL     1       5.362  -9.063  -2.993  0.00  0.00    -0.043 C 
BRANCH  20  21
ATOM     21  C   UNL     1       4.961 -10.447  -2.552  0.00  0.00    -0.064 A 
ATOM     22  C   UNL     1       4.797 -10.724  -1.208  0.00  0.00    +0.002 A 
ATOM     23  C   UNL     1       4.429 -11.994  -0.804  0.00  0.00    +0.004 A 
ATOM     24  C   UNL     1       4.224 -12.986  -1.744  0.00  0.00    -0.045 A 
ATOM     25  C   UNL     1       4.387 -12.709  -3.088  0.00  0.00    +0.004 A 
ATOM     26  C   UNL     1       4.751 -11.438  -3.493  0.00  0.00    +0.002 A 
BRANCH  24  27
ATOM     27  C   UNL     1       3.824 -14.371  -1.303  0.00  0.00    +0.013 C 
ATOM     28  C   UNL     1       2.472 -14.732  -1.921  0.00  0.00    +0.012 C 
ATOM     29  C   UNL     1       4.880 -15.378  -1.764  0.00  0.00    +0.012 C 
ENDBRANCH  24  27
ENDBRANCH  20  21
ENDBRANCH   9  20
TORSDOF 6
