REMARK  Name = ZINC22854561
REMARK  8 active torsions:
REMARK  status: ('A' for Active; 'I' for Inactive)
REMARK    1  A    between atoms: C_1  and  C_2
REMARK    2  A    between atoms: C_2  and  C_3
REMARK    3  A    between atoms: C_8  and  O_35
REMARK    4  A    between atoms: C_9  and  C_11
REMARK    5  A    between atoms: C_11  and  C_13
REMARK    6  A    between atoms: C_11  and  N_23
REMARK    7  A    between atoms: C_16  and  C_19
REMARK    8  A    between atoms: N_26  and  C_29
REMARK                            x       y       z     vdW  Elec       q    Type
REMARK                         _______ _______ _______ _____ _____    ______ ____
ROOT
ATOM      1  C   UNL     1       0.002  -0.004   0.002  0.00  0.00    +0.129 C 
ENDROOT
BRANCH   1   8
ATOM      2  C   UNL     1       2.167  -2.485  -4.969  0.00  0.00    +0.152 A 
ATOM      3  N   UNL     1       1.359  -1.435  -5.104  0.00  0.00    -0.205 NA
ATOM      4  C   UNL     1       0.984  -1.025  -3.924  0.00  0.00    +0.199 A 
ATOM      5  N   UNL     1       1.548  -1.811  -2.966  0.00  0.00    -0.173 N 
ATOM      6  N   UNL     1       2.315  -2.754  -3.700  0.00  0.00    -0.147 NA
ATOM      7  C   UNL     1       1.260  -1.512  -1.656  0.00  0.00    +0.228 A 
ATOM      8  C   UNL     1       0.448  -0.494  -1.352  0.00  0.00    +0.076 A 
ATOM      9  S   UNL     1       0.036   0.137  -2.971  0.00  0.00    -0.047 S 
BRANCH   2  11
ATOM     10  C   UNL     1       1.889  -4.383  -6.541  0.00  0.00    +0.012 C 
ATOM     11  C   UNL     1       2.810  -3.242  -6.102  0.00  0.00    +0.075 C 
ENDBRANCH   2  11
BRANCH   7  12
ATOM     12  O   UNL     1       1.804  -2.262  -0.659  0.00  0.00    -0.492 OA
ATOM     13  H   UNL     1       1.577  -2.027   0.391  0.00  0.00    +0.294 HD
ENDBRANCH   7  12
ENDBRANCH   1   8
BRANCH   1  14
ATOM     14  C   UNL     1      -1.421  -0.435   0.249  0.00  0.00    -0.025 A 
ATOM     15  C   UNL     1      -2.459   0.206  -0.400  0.00  0.00    +0.006 A 
ATOM     16  C   UNL     1      -3.764  -0.192  -0.178  0.00  0.00    +0.013 A 
ATOM     17  C   UNL     1      -4.031  -1.225   0.702  0.00  0.00    +0.055 A 
ATOM     18  C   UNL     1      -2.993  -1.862   1.355  0.00  0.00    +0.013 A 
ATOM     19  C   UNL     1      -1.688  -1.467   1.129  0.00  0.00    +0.006 A 
BRANCH  17  20
ATOM     20  C   UNL     1      -5.454  -1.655   0.949  0.00  0.00    +0.417 C 
ATOM     21  F   UNL     1      -5.985  -0.922   2.015  0.00  0.00    -0.166 F 
ATOM     22  F   UNL     1      -6.217  -1.426  -0.201  0.00  0.00    -0.166 F 
ATOM     23  F   UNL     1      -5.481  -3.019   1.262  0.00  0.00    -0.166 F 
ENDBRANCH  17  20
ENDBRANCH   1  14
BRANCH   1  24
ATOM     24  N   UNL     1       0.084   1.462   0.043  0.00  0.00    -0.288 NA
ATOM     25  C   UNL     1       1.442   1.923  -0.276  0.00  0.00    +0.104 C 
ATOM     26  C   UNL     1       1.467   3.453  -0.300  0.00  0.00    +0.120 C 
ATOM     27  N   UNL     1       1.033   3.968   1.006  0.00  0.00    -0.327 N 
ATOM     28  C   UNL     1      -0.326   3.507   1.325  0.00  0.00    +0.120 C 
ATOM     29  C   UNL     1      -0.350   1.977   1.350  0.00  0.00    +0.104 C 
BRANCH  27  30
ATOM     30  C   UNL     1       1.111   5.362   1.045  0.00  0.00    +0.030 A 
ATOM     31  C   UNL     1      -0.016   6.114   1.352  0.00  0.00    +0.023 A 
ATOM     32  C   UNL     1       0.066   7.492   1.395  0.00  0.00    +0.002 A 
ATOM     33  C   UNL     1       1.265   8.123   1.123  0.00  0.00    +0.000 A 
ATOM     34  C   UNL     1       2.388   7.378   0.811  0.00  0.00    +0.002 A 
ATOM     35  C   UNL     1       2.314   6.000   0.772  0.00  0.00    +0.023 A 
ENDBRANCH  27  30
ENDBRANCH   1  24
TORSDOF 7
