REMARK  Name = ZINC20926670
REMARK  9 active torsions:
REMARK  status: ('A' for Active; 'I' for Inactive)
REMARK    1  A    between atoms: C_1  and  C_2
REMARK    2  A    between atoms: C_2  and  C_3
REMARK    3  A    between atoms: C_3  and  O_4
REMARK    4  A    between atoms: O_4  and  C_5
REMARK    5  A    between atoms: C_8  and  C_12
REMARK    6  A    between atoms: C_12  and  N_13
REMARK    7  A    between atoms: N_13  and  C_14
REMARK    8  A    between atoms: C_14  and  C_16
REMARK    9  A    between atoms: C_14  and  C_17
REMARK                            x       y       z     vdW  Elec       q    Type
REMARK                         _______ _______ _______ _____ _____    ______ ____
ROOT
ATOM      1  N   UNL     1       2.890  -1.930  -2.534  0.00  0.00    +0.384 N 
ATOM      2  H   UNL     1       1.943  -2.293  -2.960  0.00  0.00    -0.085 HD
ATOM      3  H   UNL     1       2.987  -2.287  -1.499  0.00  0.00    -0.085 HD
ENDROOT
BRANCH   1   4
ATOM      4  C   UNL     1       2.870  -0.461  -2.526  0.00  0.00    -0.068 C 
ATOM      5  C   UNL     1       2.130   0.045  -3.766  0.00  0.00    -0.013 C 
BRANCH   4   6
ATOM      6  C   UNL     1       2.154   0.032  -1.268  0.00  0.00    -0.041 C 
ATOM      7  C   UNL     1       0.718  -0.497  -1.257  0.00  0.00    +0.009 C 
ATOM      8  C   UNL     1       0.002  -0.004   0.002  0.00  0.00    -0.010 C 
ATOM      9  C   UNL     1      -0.019   1.526   0.010  0.00  0.00    +0.007 C 
ATOM     10  C   UNL     1       1.417   2.055  -0.000  0.00  0.00    -0.010 C 
ATOM     11  C   UNL     1       2.133   1.562  -1.259  0.00  0.00    +0.009 C 
ATOM     12  C   UNL     1       2.157   1.548   1.239  0.00  0.00    +0.007 C 
ATOM     13  C   UNL     1       2.178   0.019   1.231  0.00  0.00    -0.010 C 
ATOM     14  C   UNL     1       0.742  -0.511   1.242  0.00  0.00    +0.007 C 
ATOM     15  C   UNL     1       2.894  -0.475  -0.028  0.00  0.00    +0.009 C 
ENDBRANCH   4   6
ENDBRANCH   1   4
BRANCH   1  16
ATOM     16  C   UNL     1       4.013  -2.437  -3.335  0.00  0.00    -0.046 C 
BRANCH  16  20
ATOM     17  C   UNL     1       3.978  -6.711  -3.292  0.00  0.00    +0.148 A 
ATOM     18  C   UNL     1       3.285  -6.020  -4.276  0.00  0.00    +0.061 A 
ATOM     19  C   UNL     1       3.298  -4.638  -4.287  0.00  0.00    +0.020 A 
ATOM     20  C   UNL     1       4.000  -3.944  -3.320  0.00  0.00    -0.062 A 
ATOM     21  C   UNL     1       4.696  -4.630  -2.341  0.00  0.00    +0.020 A 
ATOM     22  C   UNL     1       4.682  -6.012  -2.322  0.00  0.00    +0.061 A 
ATOM     23 BR   UNL     1       5.628  -6.949  -0.979  0.00  0.00    -0.046 Br
ATOM     24 BR   UNL     1       2.324  -6.969  -5.600  0.00  0.00    -0.046 Br
BRANCH  17  25
ATOM     25  O   UNL     1       3.967  -8.070  -3.279  0.00  0.00    -0.490 OA
BRANCH  25  26
ATOM     26  C   UNL     1       4.998  -8.735  -4.013  0.00  0.00    +0.229 C 
BRANCH  26  28
ATOM     27  C   UNL     1       5.926 -10.961  -4.667  0.00  0.00    +0.007 C 
ATOM     28  C   UNL     1       4.822 -10.249  -3.881  0.00  0.00    +0.038 C 
ENDBRANCH  26  28
ENDBRANCH  25  26
ENDBRANCH  17  25
ENDBRANCH  16  20
ENDBRANCH   1  16
TORSDOF 7
