REMARK  Name = ZINC12486286
REMARK  5 active torsions:
REMARK  status: ('A' for Active; 'I' for Inactive)
REMARK    1  A    between atoms: C_1  and  C_2
REMARK    2  A    between atoms: C_2  and  O_3
REMARK    3  A    between atoms: O_3  and  C_4
REMARK    4  A    between atoms: C_10  and  C_22
REMARK    5  A    between atoms: C_13  and  C_15
REMARK                            x       y       z     vdW  Elec       q    Type
REMARK                         _______ _______ _______ _____ _____    ______ ____
ROOT
ATOM      1  C   UNL     1       1.050   7.345  -1.103  0.00  0.00    +0.121 A 
ATOM      2  C   UNL     1       1.864   8.226  -0.409  0.00  0.00    +0.048 A 
ATOM      3  C   UNL     1       2.843   7.743   0.437  0.00  0.00    +0.032 A 
ATOM      4  C   UNL     1       3.027   6.365   0.603  0.00  0.00    +0.075 A 
ATOM      5  C   UNL     1       2.210   5.476  -0.103  0.00  0.00    +0.031 A 
ATOM      6  C   UNL     1       1.223   5.977  -0.951  0.00  0.00    +0.057 A 
ATOM      7  C   UNL     1       2.338   4.003   0.002  0.00  0.00    +0.100 C 
ATOM      8  N   UNL     1       3.475   3.396   0.092  0.00  0.00    -0.180 NA
ATOM      9  N   UNL     1       4.670   4.122   0.188  0.00  0.00    -0.220 N 
ATOM     10  C   UNL     1       4.816   4.975   1.271  0.00  0.00    +0.146 C 
ATOM     11  N   UNL     1       4.011   5.970   1.467  0.00  0.00    -0.230 NA
ATOM     12  H   UNL     1       5.370   4.030  -0.477  0.00  0.00    +0.176 HD
ENDROOT
BRANCH  10  13
ATOM     13  C   UNL     1       5.918   4.743   2.225  0.00  0.00    +0.016 A 
ATOM     14  C   UNL     1       6.088   5.593   3.321  0.00  0.00    +0.012 A 
ATOM     15  C   UNL     1       7.117   5.368   4.211  0.00  0.00    +0.016 A 
ATOM     16  C   UNL     1       7.986   4.308   4.016  0.00  0.00    +0.018 A 
ATOM     17  C   UNL     1       7.826   3.464   2.929  0.00  0.00    +0.016 A 
ATOM     18  C   UNL     1       6.799   3.675   2.034  0.00  0.00    +0.012 A 
ATOM     19 BR   UNL     1       9.399   4.011   5.238  0.00  0.00    -0.050 Br
ENDBRANCH  10  13
BRANCH   7  20
ATOM     20  C   UNL     1       1.103   3.189   0.009  0.00  0.00    +0.021 A 
ATOM     21  C   UNL     1      -0.120   3.753   0.394  0.00  0.00    +0.013 A 
ATOM     22  C   UNL     1      -1.245   2.949   0.383  0.00  0.00    +0.020 A 
ATOM     23  C   UNL     1      -1.128   1.625   0.000  0.00  0.00    +0.111 A 
ATOM     24  N   UNL     1       0.036   1.122  -0.363  0.00  0.00    -0.263 NA
ATOM     25  C   UNL     1       1.136   1.846  -0.369  0.00  0.00    +0.120 A 
ENDBRANCH   7  20
BRANCH   1  26
ATOM     26  O   UNL     1       0.084   7.821  -1.933  0.00  0.00    -0.492 OA
BRANCH  26  28
ATOM     27  C   UNL     1      -1.168   9.584  -3.011  0.00  0.00    +0.048 C 
ATOM     28  C   UNL     1      -0.036   9.240  -2.041  0.00  0.00    +0.225 C 
ENDBRANCH  26  28
ENDBRANCH   1  26
TORSDOF 4
