REMARK  Name = ZINC25560615
REMARK  5 active torsions:
REMARK  status: ('A' for Active; 'I' for Inactive)
REMARK    1  A    between atoms: C_1  and  C_2
REMARK    2  A    between atoms: C_7  and  C_19
REMARK    3  A    between atoms: C_10  and  C_12
REMARK    4  A    between atoms: C_22  and  O_25
REMARK    5  A    between atoms: O_25  and  C_26
REMARK                            x       y       z     vdW  Elec       q    Type
REMARK                         _______ _______ _______ _____ _____    ______ ____
ROOT
ATOM      1  C   UNL     1      -0.018   1.503   0.010  0.00  0.00    +0.090 C 
ATOM      2  C   UNL     1       0.002  -0.004   0.002  0.00  0.00    +0.150 A 
ATOM      3  N   UNL     1       0.008  -0.768  -1.091  0.00  0.00    -0.195 NA
ATOM      4  C   UNL     1       0.025  -2.031  -0.747  0.00  0.00    +0.250 A 
ATOM      5  N   UNL     1       0.039  -2.084   0.621  0.00  0.00    -0.221 N 
ATOM      6  N   UNL     1       0.023  -0.768   1.070  0.00  0.00    -0.153 NA
ATOM      7  C   UNL     1       0.077  -3.345   1.362  0.00  0.00    +0.147 C 
ATOM      8  C   UNL     1      -0.616  -4.415   0.510  0.00  0.00    +0.087 C 
ATOM      9  C   UNL     1      -0.209  -4.306  -0.932  0.00  0.00    +0.055 C 
ATOM     10  N   UNL     1       0.052  -3.161  -1.504  0.00  0.00    -0.215 NA
ENDROOT
BRANCH   9  11
ATOM     11  C   UNL     1      -0.100  -5.536  -1.731  0.00  0.00    -0.004 A 
ATOM     12  C   UNL     1      -0.377  -6.778  -1.151  0.00  0.00    +0.011 A 
ATOM     13  C   UNL     1      -0.273  -7.927  -1.906  0.00  0.00    +0.015 A 
ATOM     14  C   UNL     1       0.107  -7.853  -3.236  0.00  0.00    +0.013 A 
ATOM     15  C   UNL     1       0.383  -6.627  -3.817  0.00  0.00    +0.015 A 
ATOM     16  C   UNL     1       0.277  -5.470  -3.076  0.00  0.00    +0.011 A 
ATOM     17  I   UNL     1       0.263  -9.605  -4.373  0.00  0.00    -0.044 I 
ENDBRANCH   9  11
BRANCH   7  18
ATOM     18  C   UNL     1       1.508  -3.742   1.618  0.00  0.00    -0.022 A 
ATOM     19  C   UNL     1       2.366  -3.952   0.554  0.00  0.00    +0.009 A 
ATOM     20  C   UNL     1       3.678  -4.317   0.786  0.00  0.00    +0.046 A 
ATOM     21  C   UNL     1       4.134  -4.473   2.087  0.00  0.00    +0.127 A 
ATOM     22  C   UNL     1       3.271  -4.261   3.152  0.00  0.00    +0.046 A 
ATOM     23  C   UNL     1       1.961  -3.891   2.915  0.00  0.00    +0.009 A 
BRANCH  21  24
ATOM     24  O   UNL     1       5.424  -4.832   2.318  0.00  0.00    -0.434 OA
BRANCH  24  25
ATOM     25  C   UNL     1       5.824  -4.973   3.682  0.00  0.00    +0.541 C 
ATOM     26  F   UNL     1       5.649  -3.756   4.348  0.00  0.00    -0.166 F 
ATOM     27  F   UNL     1       5.044  -5.958   4.298  0.00  0.00    -0.166 F 
ENDBRANCH  24  25
ENDBRANCH  21  24
ENDBRANCH   7  18
TORSDOF 4
