REMARK  Name = ZINC39570142
REMARK  5 active torsions:
REMARK  status: ('A' for Active; 'I' for Inactive)
REMARK    1  A    between atoms: C_1  and  C_2
REMARK    2  A    between atoms: C_2  and  C_16
REMARK    3  A    between atoms: N_5  and  C_9
REMARK    4  A    between atoms: C_9  and  C_10
REMARK    5  A    between atoms: C_19  and  C_22
REMARK                            x       y       z     vdW  Elec       q    Type
REMARK                         _______ _______ _______ _____ _____    ______ ____
ROOT
ATOM      1  C   UNL     1      -0.019   1.526   0.010  0.00  0.00    +0.047 C 
ATOM      2  C   UNL     1       0.002  -0.004   0.002  0.00  0.00    +0.135 C 
ATOM      3  C   UNL     1       0.815  -0.520  -1.169  0.00  0.00    +0.251 C 
ATOM      4  O   UNL     1       0.595  -0.342  -2.348  0.00  0.00    -0.272 OA
ATOM      5  N   UNL     1       1.833  -1.217  -0.627  0.00  0.00    -0.219 N 
ATOM      6  C   UNL     1       1.777  -1.214   0.710  0.00  0.00    +0.310 C 
ATOM      7  O   UNL     1       2.586  -1.776   1.421  0.00  0.00    -0.252 OA
ATOM      8  N   UNL     1       0.724  -0.519   1.178  0.00  0.00    -0.281 N 
ATOM      9  H   UNL     1       0.487  -0.383   2.109  0.00  0.00    +0.152 HD
ENDROOT
BRANCH   2  10
ATOM     10  C   UNL     1      -1.401  -0.551  -0.040  0.00  0.00    -0.015 A 
ATOM     11  C   UNL     1      -2.002  -0.814  -1.258  0.00  0.00    +0.007 A 
ATOM     12  C   UNL     1      -3.286  -1.315  -1.304  0.00  0.00    +0.019 A 
ATOM     13  C   UNL     1      -3.980  -1.558  -0.117  0.00  0.00    +0.052 A 
ATOM     14  C   UNL     1      -3.368  -1.292   1.109  0.00  0.00    +0.019 A 
ATOM     15  C   UNL     1      -2.081  -0.795   1.140  0.00  0.00    +0.007 A 
BRANCH  13  16
ATOM     16  C   UNL     1      -5.314  -2.078  -0.157  0.00  0.00    +0.099 C 
ATOM     17  N   UNL     1      -6.372  -2.490  -0.189  0.00  0.00    -0.191 NA
ENDBRANCH  13  16
ENDBRANCH   2  10
BRANCH   5  18
ATOM     18  C   UNL     1       2.871  -1.896  -1.406  0.00  0.00    +0.160 C 
BRANCH  18  19
ATOM     19  C   UNL     1       4.020  -0.950  -1.644  0.00  0.00    +0.009 A 
ATOM     20  C   UNL     1       5.127  -0.746  -0.889  0.00  0.00    +0.014 A 
ATOM     21  C   UNL     1       6.061   0.185  -1.307  0.00  0.00    +0.028 A 
ATOM     22  C   UNL     1       5.840   0.866  -2.459  0.00  0.00    +0.078 A 
ATOM     23  S   UNL     1       4.278   0.186  -2.996  0.00  0.00    -0.080 S 
ATOM     24 CL   UNL     1       6.824   2.077  -3.219  0.00  0.00    -0.076 Cl
ENDBRANCH  18  19
ENDBRANCH   5  18
TORSDOF 4
