REMARK  Name = ZINC16184950
REMARK  9 active torsions:
REMARK  status: ('A' for Active; 'I' for Inactive)
REMARK    1  A    between atoms: C_1  and  C_2
REMARK    2  A    between atoms: C_5  and  C_8
REMARK    3  A    between atoms: C_11  and  O_15
REMARK    4  A    between atoms: C_12  and  C_14
REMARK    5  A    between atoms: O_15  and  C_16
REMARK    6  A    between atoms: C_16  and  C_18
REMARK    7  A    between atoms: C_18  and  C_20
REMARK    8  A    between atoms: C_18  and  N_27
REMARK    9  A    between atoms: C_20  and  C_21
REMARK                            x       y       z     vdW  Elec       q    Type
REMARK                         _______ _______ _______ _____ _____    ______ ____
ROOT
ATOM      1  C   UNL     1      -1.283  -0.781   0.036  0.00  0.00    +0.197 C 
ENDROOT
BRANCH   1   2
ATOM      2  N   UNL     1      -1.000  -2.209  -0.094  0.00  0.00    -0.227 N 
ATOM      3  C   UNL     1      -0.174  -2.901   0.765  0.00  0.00    +0.227 C 
ATOM      4  O   UNL     1       0.290  -2.523   1.816  0.00  0.00    -0.275 OA
ATOM      5  C   UNL     1       0.008  -4.220   0.089  0.00  0.00    +0.095 C 
ATOM      6  C   UNL     1       0.409  -5.518   0.765  0.00  0.00    +0.027 C 
ATOM      7  C   UNL     1       0.714  -6.283  -0.581  0.00  0.00    -0.026 C 
ATOM      8  C   UNL     1      -0.325  -6.355  -1.393  0.00  0.00    -0.026 C 
ATOM      9  C   UNL     1      -1.662  -5.715  -0.988  0.00  0.00    +0.027 C 
ATOM     10  C   UNL     1      -1.437  -4.352  -0.450  0.00  0.00    +0.095 C 
ATOM     11  C   UNL     1      -1.535  -3.011  -1.079  0.00  0.00    +0.227 C 
ATOM     12  O   UNL     1      -1.997  -2.722  -2.151  0.00  0.00    -0.275 OA
ATOM     13  C   UNL     1      -1.956  -6.548   0.320  0.00  0.00    +0.001 C 
ATOM     14  C   UNL     1      -0.756  -6.375   1.286  0.00  0.00    +0.001 C 
ATOM     15  C   UNL     1      -2.111  -5.833   1.650  0.00  0.00    +0.009 C 
ENDBRANCH   1   2
BRANCH   1  16
ATOM     16  C   UNL     1       0.001  -0.001  -0.080  0.00  0.00    +0.334 C 
ATOM     17  O   UNL     1       1.047  -0.582  -0.253  0.00  0.00    -0.248 OA
BRANCH  16  18
ATOM     18  O   UNL     1      -0.016   1.338   0.009  0.00  0.00    -0.424 OA
BRANCH  18  22
ATOM     19  C   UNL     1       3.551   3.309  -0.657  0.00  0.00    -0.017 A 
ATOM     20  C   UNL     1       3.173   2.968   0.641  0.00  0.00    +0.012 A 
ATOM     21  C   UNL     1       1.979   2.315   0.861  0.00  0.00    +0.047 A 
ATOM     22  C   UNL     1       1.158   1.987  -0.210  0.00  0.00    +0.135 A 
ATOM     23  C   UNL     1       1.531   2.325  -1.504  0.00  0.00    -0.008 A 
ATOM     24  C   UNL     1       2.722   2.983  -1.729  0.00  0.00    +0.015 A 
ATOM     25  C   UNL     1       0.634   1.972  -2.662  0.00  0.00    +0.047 C 
BRANCH  19  30
ATOM     26  C   UNL     1       8.524   6.059  -1.587  0.00  0.00    +0.044 C 
ATOM     27  C   UNL     1       7.223   5.340  -1.344  0.00  0.00    -0.050 A 
ATOM     28  C   UNL     1       6.852   5.003  -0.054  0.00  0.00    +0.004 A 
ATOM     29  C   UNL     1       5.661   4.344   0.174  0.00  0.00    +0.009 A 
ATOM     30  C   UNL     1       4.832   4.018  -0.897  0.00  0.00    -0.018 A 
ATOM     31  C   UNL     1       5.213   4.354  -2.194  0.00  0.00    +0.009 A 
ATOM     32  C   UNL     1       6.404   5.018  -2.411  0.00  0.00    +0.004 A 
ENDBRANCH  19  30
ENDBRANCH  18  22
ENDBRANCH  16  18
ENDBRANCH   1  16
BRANCH   1  33
ATOM     33  C   UNL     1      -1.924  -0.509   1.398  0.00  0.00    +0.069 C 
BRANCH  33  34
ATOM     34  C   UNL     1      -3.266  -1.190   1.467  0.00  0.00    -0.045 A 
ATOM     35  C   UNL     1      -4.404  -0.517   1.063  0.00  0.00    +0.004 A 
ATOM     36  C   UNL     1      -5.635  -1.144   1.121  0.00  0.00    +0.000 A 
ATOM     37  C   UNL     1      -5.730  -2.439   1.593  0.00  0.00    +0.000 A 
ATOM     38  C   UNL     1      -4.593  -3.111   2.002  0.00  0.00    +0.000 A 
ATOM     39  C   UNL     1      -3.361  -2.486   1.939  0.00  0.00    +0.004 A 
ENDBRANCH  33  34
ENDBRANCH   1  33
TORSDOF 7
