REMARK  Name = ZINC19550719
REMARK  5 active torsions:
REMARK  status: ('A' for Active; 'I' for Inactive)
REMARK    1  A    between atoms: C_1  and  O_2
REMARK    2  A    between atoms: O_2  and  C_3
REMARK    3  A    between atoms: C_8  and  O_9
REMARK    4  A    between atoms: O_9  and  C_10
REMARK    5  A    between atoms: C_20  and  C_25
REMARK                            x       y       z     vdW  Elec       q    Type
REMARK                         _______ _______ _______ _____ _____    ______ ____
ROOT
ATOM      1  C   UNL     1      -2.746   4.010  -5.064  0.00  0.00    +0.162 A 
ATOM      2  C   UNL     1      -2.462   2.682  -4.798  0.00  0.00    +0.053 A 
ATOM      3  C   UNL     1      -1.830   2.326  -3.619  0.00  0.00    -0.037 A 
ATOM      4  C   UNL     1      -1.548   3.277  -2.656  0.00  0.00    -0.019 A 
ATOM      5  C   UNL     1      -1.780   4.614  -2.952  0.00  0.00    +0.055 A 
ATOM      6  C   UNL     1      -2.384   4.984  -4.138  0.00  0.00    +0.162 A 
ATOM      7  C   UNL     1      -0.934   2.918  -1.336  0.00  0.00    +0.121 C 
ATOM      8  C   UNL     1      -1.756   3.379  -0.161  0.00  0.00    -0.005 A 
ATOM      9  C   UNL     1      -2.645   4.426  -0.249  0.00  0.00    +0.007 A 
ATOM     10  C   UNL     1      -3.365   4.832   0.864  0.00  0.00    +0.000 A 
ATOM     11  C   UNL     1      -3.210   4.175   2.069  0.00  0.00    +0.002 A 
ATOM     12  C   UNL     1      -2.334   3.114   2.164  0.00  0.00    +0.023 A 
ATOM     13  C   UNL     1      -1.603   2.710   1.053  0.00  0.00    +0.034 A 
ATOM     14  N   UNL     1      -0.723   1.631   1.177  0.00  0.00    -0.324 N 
ATOM     15  C   UNL     1      -0.013   1.097   0.008  0.00  0.00    +0.176 C 
ATOM     16  N   UNL     1      -0.722   1.484  -1.202  0.00  0.00    -0.269 NA
ATOM     17  C   UNL     1      -0.277   0.830  -2.424  0.00  0.00    +0.092 C 
ATOM     18  C   UNL     1      -1.447   0.879  -3.418  0.00  0.00    +0.051 C 
ATOM     19  H   UNL     1      -0.565   1.183   2.169  0.00  0.00    +0.148 HD
ENDROOT
BRANCH  15  20
ATOM     20  C   UNL     1       1.411   1.590  -0.003  0.00  0.00    +0.025 A 
ATOM     21  C   UNL     1       1.736   2.777   0.626  0.00  0.00    +0.048 A 
ATOM     22  C   UNL     1       3.046   3.227   0.620  0.00  0.00    +0.124 A 
ATOM     23  C   UNL     1       4.027   2.494  -0.025  0.00  0.00    +0.041 A 
ATOM     24  C   UNL     1       3.701   1.310  -0.658  0.00  0.00    +0.041 A 
ATOM     25  C   UNL     1       2.392   0.857  -0.648  0.00  0.00    +0.130 A 
ATOM     26  F   UNL     1       2.074  -0.301  -1.267  0.00  0.00    -0.205 F 
ATOM     27  F   UNL     1       3.364   4.385   1.240  0.00  0.00    -0.205 F 
ENDBRANCH  15  20
BRANCH   1  29
ATOM     28  C   UNL     1      -3.711   3.300  -7.117  0.00  0.00    +0.277 C 
ATOM     29  O   UNL     1      -3.373   4.358  -6.219  0.00  0.00    -0.491 OA
ENDBRANCH   1  29
BRANCH   6  30
ATOM     30  O   UNL     1      -2.637   6.296  -4.395  0.00  0.00    -0.491 OA
ATOM     31  C   UNL     1      -2.238   7.241  -3.400  0.00  0.00    +0.277 C 
ENDBRANCH   6  30
TORSDOF 3
