REMARK  Name = ZINC15068829
REMARK  5 active torsions:
REMARK  status: ('A' for Active; 'I' for Inactive)
REMARK    1  A    between atoms: C_5  and  C_7
REMARK    2  A    between atoms: C_7  and  N_8
REMARK    3  A    between atoms: C_14  and  C_16
REMARK    4  A    between atoms: C_16  and  C_17
REMARK    5  A    between atoms: N_19  and  C_20
REMARK                            x       y       z     vdW  Elec       q    Type
REMARK                         _______ _______ _______ _____ _____    ______ ____
ROOT
ATOM      1  N   UNL     1       2.202  -4.920   0.544  0.00  0.00    -0.285 NA
ATOM      2  C   UNL     1       3.633  -4.578   0.542  0.00  0.00    +0.104 C 
ATOM      3  C   UNL     1       3.799  -3.162  -0.013  0.00  0.00    +0.119 C 
ATOM      4  N   UNL     1       2.893  -2.245   0.673  0.00  0.00    -0.313 N 
ATOM      5  C   UNL     1       1.831  -2.661   1.371  0.00  0.00    +0.231 C 
ATOM      6  O   UNL     1       1.112  -1.829   1.884  0.00  0.00    -0.274 OA
ATOM      7  C   UNL     1       1.490  -4.114   1.545  0.00  0.00    +0.152 C 
ATOM      8  H   UNL     1       3.070  -1.293   0.621  0.00  0.00    +0.149 HD
ENDROOT
BRANCH   1   9
ATOM      9  C   UNL     1       2.004  -6.355   0.787  0.00  0.00    +0.123 C 
BRANCH   9  14
ATOM     10  C   UNL     1       2.187  -8.232  -2.484  0.00  0.00    +0.000 A 
ATOM     11  C   UNL     1       3.523  -8.584  -2.528  0.00  0.00    +0.003 A 
ATOM     12  C   UNL     1       4.369  -8.214  -1.500  0.00  0.00    +0.038 A 
ATOM     13  C   UNL     1       3.878  -7.492  -0.425  0.00  0.00    +0.128 A 
ATOM     14  C   UNL     1       2.540  -7.141  -0.382  0.00  0.00    +0.002 A 
ATOM     15  C   UNL     1       1.695  -7.511  -1.412  0.00  0.00    +0.008 A 
ATOM     16  F   UNL     1       4.704  -7.131   0.581  0.00  0.00    -0.205 F 
ENDBRANCH   9  14
ENDBRANCH   1   9
BRANCH   7  17
ATOM     17  C   UNL     1      -0.018  -4.306   1.372  0.00  0.00    +0.124 C 
BRANCH  17  18
ATOM     18  C   UNL     1      -0.412  -3.945  -0.037  0.00  0.00    +0.215 C 
ATOM     19  O   UNL     1       0.413  -3.488  -0.800  0.00  0.00    -0.276 OA
ATOM     20  N   UNL     1      -1.682  -4.129  -0.451  0.00  0.00    -0.312 N 
ATOM     21  H   UNL     1      -2.342  -4.494   0.159  0.00  0.00    +0.149 HD
BRANCH  20  22
ATOM     22  C   UNL     1      -2.065  -3.778  -1.821  0.00  0.00    +0.073 C 
ATOM     23  C   UNL     1      -2.415  -2.290  -1.887  0.00  0.00    +0.022 C 
ATOM     24  C   UNL     1      -2.426  -1.834  -3.347  0.00  0.00    +0.002 C 
ATOM     25  C   UNL     1      -1.208  -2.410  -4.072  0.00  0.00    +0.000 C 
ATOM     26  C   UNL     1      -1.670  -3.425  -5.119  0.00  0.00    +0.000 C 
ATOM     27  C   UNL     1      -2.074  -4.727  -4.423  0.00  0.00    +0.000 C 
ATOM     28  C   UNL     1      -3.440  -4.548  -3.759  0.00  0.00    +0.002 C 
ATOM     29  C   UNL     1      -3.281  -4.607  -2.239  0.00  0.00    +0.022 C 
ENDBRANCH  20  22
ENDBRANCH  17  18
ENDBRANCH   7  17
TORSDOF 5
