REMARK  Name = ZINC09552019
REMARK  10 active torsions:
REMARK  status: ('A' for Active; 'I' for Inactive)
REMARK    1  A    between atoms: C_1  and  C_2
REMARK    2  A    between atoms: C_3  and  C_34
REMARK    3  A    between atoms: C_9  and  C_12
REMARK    4  A    between atoms: C_12  and  O_14
REMARK    5  A    between atoms: O_14  and  C_15
REMARK    6  A    between atoms: C_15  and  C_17
REMARK    7  A    between atoms: C_15  and  C_18
REMARK    8  A    between atoms: N_20  and  C_21
REMARK    9  A    between atoms: C_24  and  N_31
REMARK   10  A    between atoms: C_26  and  C_27
REMARK                            x       y       z     vdW  Elec       q    Type
REMARK                         _______ _______ _______ _____ _____    ______ ____
ROOT
ATOM      1  C   UNL     1       0.086  -2.288   7.114  0.00  0.00    +0.259 C 
ATOM      2  C   UNL     1       1.532  -2.155   7.596  0.00  0.00    +0.062 C 
ENDROOT
BRANCH   1   3
ATOM      3  C   UNL     1      -0.592  -3.407   7.861  0.00  0.00    +0.258 C 
ATOM      4  O   UNL     1      -0.960  -4.398   7.267  0.00  0.00    -0.271 OA
ATOM      5  N   UNL     1      -0.790  -3.306   9.191  0.00  0.00    -0.282 N 
ATOM      6  H   UNL     1      -0.426  -2.551   9.680  0.00  0.00    +0.155 HD
BRANCH   5   7
ATOM      7  C   UNL     1      -1.521  -4.290   9.866  0.00  0.00    +0.045 A 
ATOM      8  C   UNL     1      -2.454  -5.057   9.180  0.00  0.00    +0.026 A 
ATOM      9  C   UNL     1      -3.173  -6.027   9.849  0.00  0.00    +0.034 A 
ATOM     10  C   UNL     1      -2.966  -6.236  11.200  0.00  0.00    +0.127 A 
ATOM     11  C   UNL     1      -2.039  -5.473  11.886  0.00  0.00    +0.047 A 
ATOM     12  C   UNL     1      -1.311  -4.505  11.221  0.00  0.00    +0.078 A 
BRANCH  12  13
ATOM     13  C   UNL     1      -0.295  -3.680  11.968  0.00  0.00    +0.419 C 
ATOM     14  F   UNL     1      -0.265  -4.078  13.309  0.00  0.00    -0.166 F 
ATOM     15  F   UNL     1       0.968  -3.867  11.397  0.00  0.00    -0.166 F 
ATOM     16  F   UNL     1      -0.646  -2.328  11.891  0.00  0.00    -0.166 F 
ENDBRANCH  12  13
BRANCH  10  17
ATOM     17  N   UNL     1      -3.739  -7.277  11.914  0.00  0.00    +0.056 N 
ATOM     18  O   UNL     1      -4.551  -7.944  11.316  0.00  0.00    -0.126 OA
ATOM     19  O   UNL     1      -3.559  -7.460  13.096  0.00  0.00    -0.126 OA
ENDBRANCH  10  17
ENDBRANCH   5   7
ENDBRANCH   1   3
BRANCH   1  20
ATOM     20  O   UNL     1       0.075  -2.575   5.714  0.00  0.00    -0.449 OA
BRANCH  20  21
ATOM     21  C   UNL     1       0.043  -1.522   4.874  0.00  0.00    +0.340 C 
ATOM     22  O   UNL     1       0.025  -0.391   5.317  0.00  0.00    -0.245 OA
BRANCH  21  31
ATOM     23  C   UNL     1      -0.080   1.510   0.009  0.00  0.00    +0.046 C 
ATOM     24  C   UNL     1      -0.048   0.003   0.001  0.00  0.00    -0.022 A 
ATOM     25  C   UNL     1      -0.039  -0.789  -1.082  0.00  0.00    +0.017 A 
ATOM     26  N   UNL     1      -0.008  -2.103  -0.699  0.00  0.00    -0.358 N 
ATOM     27  H   UNL     1       0.004  -2.859  -1.306  0.00  0.00    +0.166 HD
ATOM     28  C   UNL     1       0.003  -2.192   0.672  0.00  0.00    +0.047 A 
ATOM     29  C   UNL     1      -0.015  -0.876   1.173  0.00  0.00    +0.004 A 
ATOM     30  C   UNL     1      -0.004  -0.653   2.547  0.00  0.00    +0.025 A 
ATOM     31  C   UNL     1       0.030  -1.742   3.415  0.00  0.00    +0.060 A 
ATOM     32  C   UNL     1       0.051  -3.047   2.903  0.00  0.00    +0.017 A 
ATOM     33  C   UNL     1       0.031  -3.267   1.558  0.00  0.00    +0.027 A 
ATOM     34  C   UNL     1      -0.059  -0.305  -2.509  0.00  0.00    +0.063 C 
ENDBRANCH  21  31
ENDBRANCH  20  21
ENDBRANCH   1  20
TORSDOF 7
