REMARK  Name = ZINC39531079
REMARK  8 active torsions:
REMARK  status: ('A' for Active; 'I' for Inactive)
REMARK    1  A    between atoms: C_1  and  O_2
REMARK    2  A    between atoms: O_2  and  C_3
REMARK    3  A    between atoms: N_6  and  C_10
REMARK    4  A    between atoms: C_10  and  C_12
REMARK    5  A    between atoms: C_10  and  C_15
REMARK    6  A    between atoms: C_12  and  N_13
REMARK    7  A    between atoms: C_18  and  C_21
REMARK    8  A    between atoms: C_21  and  C_22
REMARK                            x       y       z     vdW  Elec       q    Type
REMARK                         _______ _______ _______ _____ _____    ______ ____
ROOT
ATOM      1  C   UNL     1       0.626  -4.054  -2.570  0.00  0.00    +0.102 C 
ENDROOT
BRANCH   1   4
ATOM      2  C   UNL     1      -0.574  -0.831  -4.108  0.00  0.00    +0.200 C 
ATOM      3  C   UNL     1      -0.589  -2.317  -3.743  0.00  0.00    +0.132 C 
ATOM      4  N   UNL     1       0.562  -2.619  -2.881  0.00  0.00    -0.289 NA
ATOM      5  C   UNL     1       0.520  -1.816  -1.651  0.00  0.00    +0.100 C 
ATOM      6  C   UNL     1       0.535  -0.329  -2.015  0.00  0.00    +0.098 C 
ATOM      7  N   UNL     1      -0.615  -0.027  -2.878  0.00  0.00    -0.289 NA
ATOM      8  H   UNL     1      -0.659   0.958  -3.092  0.00  0.00    +0.124 HD
BRANCH   2  10
ATOM      9  C   UNL     1      -1.629   0.732  -5.587  0.00  0.00    +0.196 C 
ATOM     10  O   UNL     1      -1.712  -0.527  -4.915  0.00  0.00    -0.364 OA
ENDBRANCH   2  10
ENDBRANCH   1   4
BRANCH   1  11
ATOM     11  C   UNL     1       1.209  -4.796  -3.745  0.00  0.00    -0.029 A 
ATOM     12  C   UNL     1       1.367  -4.155  -4.959  0.00  0.00    +0.005 A 
ATOM     13  C   UNL     1       1.902  -4.836  -6.036  0.00  0.00    +0.004 A 
ATOM     14  C   UNL     1       2.280  -6.159  -5.899  0.00  0.00    -0.043 A 
ATOM     15  C   UNL     1       2.123  -6.800  -4.685  0.00  0.00    +0.004 A 
ATOM     16  C   UNL     1       1.591  -6.118  -3.606  0.00  0.00    +0.005 A 
BRANCH  14  17
ATOM     17  C   UNL     1       2.862  -6.902  -7.074  0.00  0.00    +0.070 C 
BRANCH  17  18
ATOM     18  C   UNL     1       4.360  -6.737  -7.080  0.00  0.00    -0.043 A 
ATOM     19  C   UNL     1       4.936  -5.677  -7.753  0.00  0.00    +0.004 A 
ATOM     20  C   UNL     1       6.310  -5.526  -7.759  0.00  0.00    +0.000 A 
ATOM     21  C   UNL     1       7.108  -6.435  -7.090  0.00  0.00    +0.000 A 
ATOM     22  C   UNL     1       6.532  -7.495  -6.415  0.00  0.00    +0.000 A 
ATOM     23  C   UNL     1       5.158  -7.644  -6.406  0.00  0.00    +0.004 A 
ENDBRANCH  17  18
ENDBRANCH  14  17
ENDBRANCH   1  11
BRANCH   1  24
ATOM     24  C   UNL     1      -0.784  -4.577  -2.285  0.00  0.00    +0.122 C 
BRANCH  24  25
ATOM     25  N   UNL     1      -1.367  -3.827  -1.164  0.00  0.00    -0.231 NA
ATOM     26 CL   UNL     1      -2.945  -4.381  -0.812  0.00  0.00    -0.024 Cl
ATOM     27  H   UNL     1      -0.775  -3.878  -0.349  0.00  0.00    +0.141 HD
ENDBRANCH  24  25
ENDBRANCH   1  24
TORSDOF 7
