REMARK  Name = ZINC19322800
REMARK  8 active torsions:
REMARK  status: ('A' for Active; 'I' for Inactive)
REMARK    1  A    between atoms: C_1  and  C_2
REMARK    2  A    between atoms: C_2  and  C_3
REMARK    3  A    between atoms: C_2  and  C_4
REMARK    4  A    between atoms: C_8  and  C_21
REMARK    5  A    between atoms: C_9  and  O_10
REMARK    6  A    between atoms: C_14  and  C_15
REMARK    7  A    between atoms: C_21  and  C_22
REMARK    8  A    between atoms: C_21  and  C_23
REMARK                            x       y       z     vdW  Elec       q    Type
REMARK                         _______ _______ _______ _____ _____    ______ ____
ROOT
ATOM      1  C   UNL     1      -1.183  -0.554  -0.316  0.00  0.00    -0.002 C 
ATOM      2  C   UNL     1      -1.791   0.089   0.935  0.00  0.00    -0.065 C 
ATOM      3  N   UNL     1      -3.237  -0.156   0.960  0.00  0.00    +0.395 N 
ATOM      4  C   UNL     1      -3.506  -1.595   1.046  0.00  0.00    -0.065 C 
ATOM      5  C   UNL     1      -2.956  -2.296  -0.201  0.00  0.00    -0.002 C 
ATOM      6  C   UNL     1      -1.441  -2.066  -0.268  0.00  0.00    +0.126 C 
ATOM      7  C   UNL     1      -3.604  -1.669  -1.442  0.00  0.00    +0.090 C 
ATOM      8  N   UNL     1      -3.324  -0.225  -1.444  0.00  0.00    -0.309 NA
ATOM      9  C   UNL     1      -1.864   0.020  -1.564  0.00  0.00    +0.090 C 
ATOM     10  C   UNL     1      -3.869   0.409  -0.235  0.00  0.00    +0.052 C 
ATOM     11  H   UNL     1      -3.628   0.288   1.777  0.00  0.00    -0.079 HD
ENDROOT
BRANCH  10  12
ATOM     12  C   UNL     1      -5.356   0.172  -0.173  0.00  0.00    +0.041 A 
ATOM     13  C   UNL     1      -6.072   0.018  -1.345  0.00  0.00    +0.023 A 
ATOM     14  C   UNL     1      -7.439  -0.199  -1.278  0.00  0.00    +0.003 A 
ATOM     15  C   UNL     1      -8.038  -0.253  -0.028  0.00  0.00    +0.020 A 
ATOM     16  C   UNL     1      -7.257  -0.090   1.100  0.00  0.00    +0.111 A 
ATOM     17  N   UNL     1      -5.957   0.109   0.998  0.00  0.00    -0.260 NA
ENDBRANCH  10  12
BRANCH   1  19
ATOM     18  C   UNL     1       0.564   1.230  -0.414  0.00  0.00    +0.008 C 
ATOM     19  C   UNL     1       0.322  -0.280  -0.367  0.00  0.00    -0.009 C 
ATOM     20  C   UNL     1       0.989  -0.865   0.880  0.00  0.00    +0.008 C 
ENDBRANCH   1  19
BRANCH   5  21
ATOM     21  C   UNL     1      -3.256  -3.795  -0.135  0.00  0.00    -0.009 C 
ATOM     22  C   UNL     1      -2.604  -4.391   1.114  0.00  0.00    +0.008 C 
ATOM     23  C   UNL     1      -4.769  -4.010  -0.072  0.00  0.00    +0.008 C 
ENDBRANCH   5  21
BRANCH   6  24
ATOM     24  O   UNL     1      -0.897  -2.684  -1.436  0.00  0.00    -0.391 OA
ATOM     25  H   UNL     1      -0.945  -3.650  -1.428  0.00  0.00    +0.210 HD
ENDBRANCH   6  24
TORSDOF 4
