REMARK  Name = ZINC50987488
REMARK  8 active torsions:
REMARK  status: ('A' for Active; 'I' for Inactive)
REMARK    1  A    between atoms: C_1  and  C_2
REMARK    2  A    between atoms: C_2  and  C_3
REMARK    3  A    between atoms: C_3  and  C_4
REMARK    4  A    between atoms: C_4  and  N_5
REMARK    5  A    between atoms: C_6  and  C_20
REMARK    6  A    between atoms: C_8  and  C_11
REMARK    7  A    between atoms: C_14  and  O_18
REMARK    8  A    between atoms: O_18  and  C_19
REMARK                            x       y       z     vdW  Elec       q    Type
REMARK                         _______ _______ _______ _____ _____    ______ ____
ROOT
ATOM      1  N   UNL     1      -2.787  -2.571   0.015  0.00  0.00    -0.279 N 
ATOM      2  C   UNL     1      -3.532  -2.836  -1.099  0.00  0.00    +0.073 C 
ATOM      3  N   UNL     1      -4.711  -3.273  -0.832  0.00  0.00    -0.363 N 
ATOM      4  C   UNL     1      -4.856  -3.339   0.631  0.00  0.00    +0.172 C 
ATOM      5  C   UNL     1      -3.515  -2.855   1.150  0.00  0.00    +0.101 C 
ATOM      6  N   UNL     1      -3.141  -2.734   2.381  0.00  0.00    -0.388 N 
ATOM      7  C   UNL     1      -3.022  -2.635  -2.503  0.00  0.00    +0.081 C 
ATOM      8  H   UNL     1      -2.251  -2.409   2.587  0.00  0.00    +0.157 HD
ATOM      9  H   UNL     1      -3.749  -2.969   3.099  0.00  0.00    +0.157 HD
ATOM     10  H   UNL     1      -5.389  -3.517  -1.482  0.00  0.00    +0.162 HD
ENDROOT
BRANCH   4  11
ATOM     11  C   UNL     1      -5.966  -2.432   1.094  0.00  0.00    -0.017 A 
ATOM     12  C   UNL     1      -6.151  -1.202   0.488  0.00  0.00    +0.010 A 
ATOM     13  C   UNL     1      -7.168  -0.369   0.911  0.00  0.00    +0.047 A 
ATOM     14  C   UNL     1      -8.005  -0.766   1.944  0.00  0.00    +0.134 A 
ATOM     15  C   UNL     1      -7.818  -2.000   2.550  0.00  0.00    +0.060 A 
ATOM     16  C   UNL     1      -6.802  -2.833   2.119  0.00  0.00    +0.025 A 
ATOM     17 BR   UNL     1      -8.956  -2.545   3.958  0.00  0.00    -0.047 Br
BRANCH  14  18
ATOM     18  O   UNL     1      -9.007   0.053   2.362  0.00  0.00    -0.494 OA
ATOM     19  C   UNL     1      -9.140   1.309   1.692  0.00  0.00    +0.277 C 
ENDBRANCH  14  18
ENDBRANCH   4  11
BRANCH   1  20
ATOM     20  C   UNL     1      -1.413  -2.063   0.004  0.00  0.00    +0.113 C 
BRANCH  20  21
ATOM     21  C   UNL     1      -1.433  -0.534   0.013  0.00  0.00    +0.019 C 
BRANCH  21  23
ATOM     22  C   UNL     1      -0.019   1.526   0.010  0.00  0.00    +0.004 C 
ATOM     23  C   UNL     1       0.002  -0.004   0.002  0.00  0.00    -0.002 C 
ENDBRANCH  21  23
ENDBRANCH  20  21
ENDBRANCH   1  20
TORSDOF 5
