REMARK  Name = ZINC21985945
REMARK  5 active torsions:
REMARK  status: ('A' for Active; 'I' for Inactive)
REMARK    1  A    between atoms: C_1  and  C_2
REMARK    2  A    between atoms: C_5  and  C_8
REMARK    3  A    between atoms: C_8  and  C_10
REMARK    4  A    between atoms: C_8  and  N_17
REMARK    5  A    between atoms: C_14  and  O_16
REMARK                            x       y       z     vdW  Elec       q    Type
REMARK                         _______ _______ _______ _____ _____    ______ ____
ROOT
ATOM      1  C   UNL     1      -0.076   5.351   0.029  0.00  0.00    +0.134 C 
ENDROOT
BRANCH   1   2
ATOM      2  N   UNL     1      -1.133   5.817   0.930  0.00  0.00    -0.308 N 
ATOM      3  C   UNL     1      -0.883   5.946   2.275  0.00  0.00    +0.155 C 
ATOM      4  N   UNL     1       0.264   5.672   2.805  0.00  0.00    -0.360 N 
ATOM      5  C   UNL     1       0.219   5.908   4.255  0.00  0.00    +0.134 C 
ATOM      6  C   UNL     1      -1.221   6.394   4.510  0.00  0.00    +0.125 C 
ATOM      7  N   UNL     1      -1.825   6.381   3.167  0.00  0.00    -0.317 N 
ATOM      8  H   UNL     1      -2.127   6.064   0.529  0.00  0.00    +0.150 HD
ATOM      9  H   UNL     1      -2.871   6.693   3.031  0.00  0.00    +0.149 HD
ATOM     10  H   UNL     1       1.091   5.318   2.173  0.00  0.00    +0.162 HD
ENDBRANCH   1   2
BRANCH   1  15
ATOM     11  C   UNL     1      -1.105   7.286  -5.317  0.00  0.00    +0.044 C 
ATOM     12  C   UNL     1      -0.836   6.781  -3.923  0.00  0.00    -0.050 A 
ATOM     13  C   UNL     1       0.455   6.765  -3.430  0.00  0.00    +0.004 A 
ATOM     14  C   UNL     1       0.701   6.303  -2.151  0.00  0.00    +0.006 A 
ATOM     15  C   UNL     1      -0.344   5.855  -1.365  0.00  0.00    -0.023 A 
ATOM     16  C   UNL     1      -1.635   5.865  -1.860  0.00  0.00    +0.006 A 
ATOM     17  C   UNL     1      -1.882   6.333  -3.137  0.00  0.00    +0.004 A 
ENDBRANCH   1  15
BRANCH   1  18
ATOM     18  C   UNL     1      -0.051   3.844   0.022  0.00  0.00    -0.019 A 
ATOM     19  C   UNL     1      -1.237   3.133   0.030  0.00  0.00    +0.006 A 
ATOM     20  C   UNL     1      -1.218   1.751   0.017  0.00  0.00    +0.004 A 
ATOM     21  C   UNL     1      -0.013   1.076   0.008  0.00  0.00    +0.045 A 
ATOM     22  C   UNL     1       1.179   1.786   0.000  0.00  0.00    +0.117 A 
ATOM     23  C   UNL     1       1.157   3.174   0.008  0.00  0.00    +0.051 A 
BRANCH  22  24
ATOM     24  O   UNL     1       2.366   1.125  -0.015  0.00  0.00    -0.507 OA
ATOM     25  H   UNL     1       3.310   1.689  -0.021  0.00  0.00    +0.292 HD
ENDBRANCH  22  24
ENDBRANCH   1  18
TORSDOF 4
