REMARK  Name = ZINC10131284
REMARK  8 active torsions:
REMARK  status: ('A' for Active; 'I' for Inactive)
REMARK    1  A    between atoms: C_1  and  O_2
REMARK    2  A    between atoms: O_2  and  C_3
REMARK    3  A    between atoms: C_5  and  C_17
REMARK    4  A    between atoms: C_8  and  O_9
REMARK    5  A    between atoms: O_9  and  C_10
REMARK    6  A    between atoms: C_10  and  C_11
REMARK    7  A    between atoms: C_27  and  C_29
REMARK    8  A    between atoms: C_32  and  O_35
REMARK                            x       y       z     vdW  Elec       q    Type
REMARK                         _______ _______ _______ _____ _____    ______ ____
ROOT
ATOM      1  C   UNL     1       9.000  -3.598  -2.223  0.00  0.00    +0.024 C 
ATOM      2  C   UNL     1      10.026  -3.419  -1.323  0.00  0.00    +0.081 C 
ATOM      3  C   UNL     1       9.854  -2.603  -0.088  0.00  0.00    +0.153 C 
ATOM      4  N   UNL     1       9.076  -1.556  -0.023  0.00  0.00    -0.283 NA
ATOM      5  N   UNL     1      10.615  -3.071   1.005  0.00  0.00    -0.152 N 
ATOM      6  C   UNL     1      11.719  -3.848   0.728  0.00  0.00    +0.181 C 
ATOM      7  N   UNL     1      12.122  -4.274  -0.444  0.00  0.00    -0.152 NA
ATOM      8  C   UNL     1      11.362  -4.033  -1.527  0.00  0.00    +0.273 C 
ATOM      9  O   UNL     1      11.763  -4.308  -2.647  0.00  0.00    -0.268 OA
ATOM     10  S   UNL     1      12.393  -4.135   2.342  0.00  0.00    -0.033 S 
ATOM     11  C   UNL     1      11.156  -3.245   3.277  0.00  0.00    +0.130 C 
ATOM     12  N   UNL     1      10.359  -2.805   2.334  0.00  0.00    -0.164 NA
ATOM     13  H   UNL     1       9.073  -1.002   0.773  0.00  0.00    +0.188 HD
ENDROOT
BRANCH   1  16
ATOM     14  C   UNL     1       5.575  -2.120  -2.582  0.00  0.00    +0.162 A 
ATOM     15  C   UNL     1       6.847  -2.555  -2.893  0.00  0.00    +0.057 A 
ATOM     16  C   UNL     1       7.651  -3.129  -1.898  0.00  0.00    -0.021 A 
ATOM     17  C   UNL     1       7.159  -3.253  -0.591  0.00  0.00    +0.012 A 
ATOM     18  C   UNL     1       5.890  -2.811  -0.290  0.00  0.00    +0.050 A 
ATOM     19  C   UNL     1       5.095  -2.242  -1.278  0.00  0.00    +0.162 A 
BRANCH  14  21
ATOM     20  C   UNL     1       5.346  -1.475  -4.859  0.00  0.00    +0.277 C 
ATOM     21  O   UNL     1       4.790  -1.569  -3.546  0.00  0.00    -0.491 OA
ENDBRANCH  14  21
BRANCH  19  22
ATOM     22  O   UNL     1       3.845  -1.809  -0.973  0.00  0.00    -0.484 OA
BRANCH  22  23
ATOM     23  C   UNL     1       3.414  -1.969   0.380  0.00  0.00    +0.264 C 
BRANCH  23  24
ATOM     24  C   UNL     1       2.013  -1.435   0.527  0.00  0.00    -0.010 A 
ATOM     25  C   UNL     1       0.930  -2.271   0.327  0.00  0.00    +0.007 A 
ATOM     26  C   UNL     1      -0.356  -1.781   0.462  0.00  0.00    +0.000 A 
ATOM     27  C   UNL     1      -0.558  -0.455   0.797  0.00  0.00    +0.000 A 
ATOM     28  C   UNL     1       0.524   0.380   0.999  0.00  0.00    +0.000 A 
ATOM     29  C   UNL     1       1.810  -0.110   0.863  0.00  0.00    +0.007 A 
ENDBRANCH  23  24
ENDBRANCH  22  23
ENDBRANCH  19  22
ENDBRANCH   1  16
BRANCH  11  30
ATOM     30  C   UNL     1      11.057  -3.054   4.740  0.00  0.00    +0.009 A 
ATOM     31  C   UNL     1      10.005  -2.313   5.280  0.00  0.00    +0.014 A 
ATOM     32  C   UNL     1       9.913  -2.142   6.644  0.00  0.00    +0.046 A 
ATOM     33  C   UNL     1      10.873  -2.697   7.482  0.00  0.00    +0.117 A 
ATOM     34  C   UNL     1      11.924  -3.431   6.948  0.00  0.00    +0.046 A 
ATOM     35  C   UNL     1      12.019  -3.611   5.585  0.00  0.00    +0.014 A 
BRANCH  33  36
ATOM     36  O   UNL     1      10.782  -2.521   8.826  0.00  0.00    -0.507 OA
ATOM     37  H   UNL     1      11.238  -1.733   9.151  0.00  0.00    +0.292 HD
ENDBRANCH  33  36
ENDBRANCH  11  30
TORSDOF 7
