REMARK  Name = ZINC00850170
REMARK  10 active torsions:
REMARK  status: ('A' for Active; 'I' for Inactive)
REMARK    1  A    between atoms: C_1  and  C_2
REMARK    2  A    between atoms: C_2  and  O_3
REMARK    3  A    between atoms: O_3  and  C_4
REMARK    4  A    between atoms: C_4  and  C_6
REMARK    5  A    between atoms: C_7  and  C_28
REMARK    6  A    between atoms: C_9  and  N_27
REMARK    7  A    between atoms: C_10  and  C_22
REMARK    8  A    between atoms: C_22  and  O_24
REMARK    9  A    between atoms: O_24  and  C_25
REMARK   10  A    between atoms: C_25  and  C_26
REMARK                            x       y       z     vdW  Elec       q    Type
REMARK                         _______ _______ _______ _____ _____    ______ ____
ROOT
ATOM      1  C   UNL     1       1.564  -2.345   2.384  0.00  0.00    +0.098 C 
ATOM      2  C   UNL     1       1.490  -3.665   2.603  0.00  0.00    +0.116 C 
ATOM      3  O   UNL     1       2.023  -4.235   3.694  0.00  0.00    -0.446 OA
ATOM      4  C   UNL     1       2.333  -3.486   4.767  0.00  0.00    +0.195 C 
ATOM      5  C   UNL     1       2.460  -2.135   4.676  0.00  0.00    +0.117 C 
ATOM      6  C   UNL     1       2.258  -1.439   3.359  0.00  0.00    +0.145 C 
ATOM      7  C   UNL     1       3.576  -0.967   2.798  0.00  0.00    -0.001 A 
ATOM      8  C   UNL     1       4.722  -1.625   2.410  0.00  0.00    +0.022 A 
ATOM      9  C   UNL     1       5.799  -0.906   1.920  0.00  0.00    +0.018 A 
ATOM     10  C   UNL     1       5.720   0.472   1.823  0.00  0.00    +0.017 A 
ATOM     11  C   UNL     1       4.573   1.133   2.212  0.00  0.00    +0.025 A 
ATOM     12  C   UNL     1       3.485   0.417   2.706  0.00  0.00    +0.038 A 
ATOM     13  N   UNL     1       2.237   0.849   3.156  0.00  0.00    -0.284 N 
ATOM     14  C   UNL     1       1.459  -0.172   3.557  0.00  0.00    +0.237 C 
ATOM     15  O   UNL     1       0.330  -0.091   3.994  0.00  0.00    -0.274 OA
ATOM     16 BR   UNL     1       7.375  -1.804   1.385  0.00  0.00    -0.050 Br
ATOM     17  C   UNL     1       0.787  -4.535   1.593  0.00  0.00    +0.087 C 
ATOM     18  H   UNL     1       1.962   1.779   3.179  0.00  0.00    +0.155 HD
ENDROOT
BRANCH   4  19
ATOM     19  N   UNL     1       2.523  -4.096   5.978  0.00  0.00    -0.329 N 
ATOM     20  H   UNL     1       2.512  -5.064   6.040  0.00  0.00    +0.145 HD
ATOM     21  H   UNL     1       2.670  -3.561   6.773  0.00  0.00    +0.145 HD
ENDBRANCH   4  19
BRANCH   1  22
ATOM     22  C   UNL     1       0.984  -1.797   1.213  0.00  0.00    +0.340 C 
ATOM     23  O   UNL     1       1.683  -1.541   0.251  0.00  0.00    -0.245 OA
BRANCH  22  24
ATOM     24  O   UNL     1      -0.343  -1.560   1.165  0.00  0.00    -0.462 OA
BRANCH  24  26
ATOM     25  C   UNL     1      -2.371  -0.809   0.086  0.00  0.00    +0.048 C 
ATOM     26  C   UNL     1      -0.860  -1.007  -0.047  0.00  0.00    +0.229 C 
ENDBRANCH  24  26
ENDBRANCH  22  24
ENDBRANCH   1  22
BRANCH   5  27
ATOM     27  C   UNL     1       2.787  -1.388   5.817  0.00  0.00    +0.342 C 
ATOM     28  O   UNL     1       3.928  -0.995   5.982  0.00  0.00    -0.245 OA
BRANCH  27  29
ATOM     29  O   UNL     1       1.836  -1.103   6.733  0.00  0.00    -0.462 OA
BRANCH  29  30
ATOM     30  C   UNL     1       2.240  -0.338   7.871  0.00  0.00    +0.229 C 
ATOM     31  C   UNL     1       1.037  -0.118   8.790  0.00  0.00    +0.048 C 
ENDBRANCH  29  30
ENDBRANCH  27  29
ENDBRANCH   5  27
TORSDOF 7
