REMARK  Name = ZINC19338764
REMARK  9 active torsions:
REMARK  status: ('A' for Active; 'I' for Inactive)
REMARK    1  A    between atoms: C_1  and  C_2
REMARK    2  A    between atoms: C_2  and  C_3
REMARK    3  A    between atoms: C_2  and  C_4
REMARK    4  A    between atoms: C_9  and  C_27
REMARK    5  A    between atoms: C_10  and  O_12
REMARK    6  A    between atoms: C_16  and  C_18
REMARK    7  A    between atoms: C_21  and  O_26
REMARK    8  A    between atoms: C_22  and  O_24
REMARK    9  A    between atoms: O_24  and  C_25
REMARK                            x       y       z     vdW  Elec       q    Type
REMARK                         _______ _______ _______ _____ _____    ______ ____
ROOT
ATOM      1  C   UNL     1      -0.377   2.123  -1.352  0.00  0.00    -0.014 C 
ATOM      2  C   UNL     1      -1.823   1.792  -1.562  0.00  0.00    +0.023 C 
ATOM      3  C   UNL     1      -2.261   1.734  -2.966  0.00  0.00    +0.083 C 
ATOM      4  N   UNL     1      -1.630   2.687  -3.845  0.00  0.00    -0.311 NA
ATOM      5  C   UNL     1      -1.354   4.003  -3.335  0.00  0.00    +0.090 C 
ATOM      6  C   UNL     1      -0.024   4.210  -2.639  0.00  0.00    -0.008 C 
ATOM      7  C   UNL     1      -0.071   3.595  -1.234  0.00  0.00    +0.125 C 
ATOM      8  C   UNL     1       1.106   3.521  -3.413  0.00  0.00    -0.066 C 
ATOM      9  N   UNL     1       0.692   2.122  -3.610  0.00  0.00    +0.394 N 
ATOM     10  C   UNL     1       0.526   1.414  -2.348  0.00  0.00    -0.066 C 
ATOM     11  C   UNL     1      -0.467   2.064  -4.502  0.00  0.00    +0.033 C 
ATOM     12  C   UNL     1       0.268   5.708  -2.531  0.00  0.00    +0.013 C 
ATOM     13  H   UNL     1       1.495   1.563  -4.112  0.00  0.00    -0.079 HD
ENDROOT
BRANCH  11  14
ATOM     14  C   UNL     1      -0.155   2.803  -5.777  0.00  0.00    -0.044 A 
ATOM     15  C   UNL     1       1.148   2.866  -6.237  0.00  0.00    +0.007 A 
ATOM     16  C   UNL     1       1.438   3.539  -7.409  0.00  0.00    +0.049 A 
ATOM     17  C   UNL     1       0.425   4.160  -8.121  0.00  0.00    +0.158 A 
ATOM     18  C   UNL     1      -0.885   4.101  -7.655  0.00  0.00    +0.162 A 
ATOM     19  C   UNL     1      -1.171   3.421  -6.482  0.00  0.00    +0.052 A 
BRANCH  18  20
ATOM     20  O   UNL     1      -1.883   4.710  -8.351  0.00  0.00    -0.491 OA
ATOM     21  C   UNL     1      -3.204   4.607  -7.814  0.00  0.00    +0.277 C 
ENDBRANCH  18  20
BRANCH  17  22
ATOM     22  O   UNL     1       0.710   4.827  -9.271  0.00  0.00    -0.503 OA
ATOM     23  H   UNL     1      -0.096   5.320  -9.835  0.00  0.00    +0.292 HD
ENDBRANCH  17  22
ENDBRANCH  11  14
BRANCH   1  25
ATOM     24  C   UNL     1      -0.966   2.082   1.076  0.00  0.00    +0.008 C 
ATOM     25  C   UNL     1      -0.019   1.526   0.010  0.00  0.00    -0.010 C 
ATOM     26  C   UNL     1      -0.155   0.003  -0.049  0.00  0.00    +0.008 C 
ENDBRANCH   1  25
BRANCH   7  27
ATOM     27  O   UNL     1       1.193   3.771  -0.591  0.00  0.00    -0.391 OA
ATOM     28  H   UNL     1       1.586   4.784  -0.417  0.00  0.00    +0.210 HD
ENDBRANCH   7  27
TORSDOF 5
