REMARK  Name = ZINC35306006
REMARK  6 active torsions:
REMARK  status: ('A' for Active; 'I' for Inactive)
REMARK    1  A    between atoms: C_1  and  C_2
REMARK    2  A    between atoms: C_9  and  C_11
REMARK    3  A    between atoms: C_14  and  C_16
REMARK    4  A    between atoms: C_16  and  S_17
REMARK    5  A    between atoms: S_17  and  C_18
REMARK    6  A    between atoms: C_21  and  C_24
REMARK                            x       y       z     vdW  Elec       q    Type
REMARK                         _______ _______ _______ _____ _____    ______ ____
ROOT
ATOM      1  C   UNL     1      -1.941  -4.246  -0.636  0.00  0.00    +0.190 A 
ATOM      2  C   UNL     1      -2.503  -5.150  -1.491  0.00  0.00    +0.055 A 
ATOM      3  C   UNL     1      -2.103  -6.422  -1.052  0.00  0.00    +0.046 A 
ATOM      4  C   UNL     1      -1.324  -6.240   0.037  0.00  0.00    +0.116 A 
ATOM      5  O   UNL     1      -1.224  -4.927   0.281  0.00  0.00    -0.454 OA
ENDROOT
BRANCH   1  13
ATOM      6  C   UNL     1      -0.047   1.546  -0.032  0.00  0.00    -0.012 C 
ATOM      7  C   UNL     1      -0.007   0.017  -0.056  0.00  0.00    -0.057 C 
ATOM      8  C   UNL     1      -1.436  -0.533   0.008  0.00  0.00    +0.092 C 
ATOM      9  N   UNL     1      -1.367  -1.998   0.116  0.00  0.00    -0.298 N 
ATOM     10  C   UNL     1      -0.492  -2.578   1.146  0.00  0.00    +0.089 C 
ATOM     11  C   UNL     1       0.892  -1.932   1.028  0.00  0.00    -0.063 C 
ATOM     12  N   UNL     1       0.757  -0.471   1.099  0.00  0.00    +0.383 N 
ATOM     13  C   UNL     1      -2.086  -2.788  -0.707  0.00  0.00    +0.282 C 
ATOM     14  O   UNL     1      -2.854  -2.291  -1.509  0.00  0.00    -0.267 OA
ATOM     15  H   UNL     1       1.674  -0.050   1.097  0.00  0.00    -0.085 HD
ATOM     16  H   UNL     1       0.276  -0.220   1.949  0.00  0.00    -0.085 HD
ENDBRANCH   1  13
BRANCH   4  17
ATOM     17  C   UNL     1      -0.670  -7.335   0.841  0.00  0.00    +0.150 C 
BRANCH  17  18
ATOM     18  S   UNL     1       0.974  -7.686   0.160  0.00  0.00    -0.096 S 
BRANCH  18  19
ATOM     19  C   UNL     1       1.599  -8.968   1.194  0.00  0.00    +0.120 A 
ATOM     20  C   UNL     1       2.872  -9.495   0.964  0.00  0.00    +0.039 A 
ATOM     21  C   UNL     1       3.320 -10.499   1.802  0.00  0.00    +0.033 A 
ATOM     22  C   UNL     1       2.470 -10.926   2.829  0.00  0.00    +0.093 A 
ATOM     23  N   UNL     1       1.276 -10.367   2.972  0.00  0.00    -0.148 NA
ATOM     24  N   UNL     1       0.864  -9.431   2.196  0.00  0.00    -0.142 NA
BRANCH  22  25
ATOM     25  C   UNL     1       2.903 -12.001   3.754  0.00  0.00    +0.002 A 
ATOM     26  C   UNL     1       4.160 -12.585   3.608  0.00  0.00    +0.010 A 
ATOM     27  C   UNL     1       4.558 -13.585   4.473  0.00  0.00    +0.001 A 
ATOM     28  C   UNL     1       3.712 -14.007   5.482  0.00  0.00    +0.000 A 
ATOM     29  C   UNL     1       2.463 -13.430   5.632  0.00  0.00    +0.001 A 
ATOM     30  C   UNL     1       2.057 -12.426   4.777  0.00  0.00    +0.010 A 
ENDBRANCH  22  25
ENDBRANCH  18  19
ENDBRANCH  17  18
ENDBRANCH   4  17
TORSDOF 5
