REMARK  Name = ZINC44879006
REMARK  7 active torsions:
REMARK  status: ('A' for Active; 'I' for Inactive)
REMARK    1  A    between atoms: C_1  and  C_2
REMARK    2  A    between atoms: C_12  and  C_14
REMARK    3  A    between atoms: C_14  and  C_16
REMARK    4  A    between atoms: C_14  and  C_19
REMARK    5  A    between atoms: C_16  and  C_17
REMARK    6  A    between atoms: C_16  and  C_18
REMARK    7  A    between atoms: N_20  and  O_21
REMARK                            x       y       z     vdW  Elec       q    Type
REMARK                         _______ _______ _______ _____ _____    ______ ____
ROOT
ATOM      1  C   UNL     1       0.042   1.433  -0.091  0.00  0.00    +0.033 C 
ATOM      2  C   UNL     1       0.214  -0.086  -0.169  0.00  0.00    +0.104 C 
ATOM      3  C   UNL     1      -1.155  -0.763  -0.152  0.00  0.00    -0.017 A 
ATOM      4  C   UNL     1      -2.217  -0.356  -0.957  0.00  0.00    +0.013 A 
ATOM      5  C   UNL     1      -3.402  -1.006  -0.893  0.00  0.00    +0.046 A 
ATOM      6  S   UNL     1      -3.069  -2.257   0.338  0.00  0.00    -0.101 S 
ATOM      7  C   UNL     1      -1.384  -1.819   0.675  0.00  0.00    -0.004 A 
ATOM      8  C   UNL     1      -0.436  -2.451   1.641  0.00  0.00    +0.061 C 
ATOM      9  C   UNL     1       0.992  -2.002   1.296  0.00  0.00    +0.113 C 
ATOM     10  N   UNL     1       0.966  -0.561   1.001  0.00  0.00    -0.294 N 
ATOM     11  C   UNL     1       1.621   0.310   1.793  0.00  0.00    +0.227 C 
ATOM     12  O   UNL     1       1.511   1.503   1.603  0.00  0.00    -0.275 OA
ENDROOT
BRANCH  11  13
ATOM     13  C   UNL     1       2.489  -0.197   2.915  0.00  0.00    +0.144 C 
BRANCH  13  14
ATOM     14  C   UNL     1       1.684  -0.252   4.188  0.00  0.00    +0.144 C 
ATOM     15  N   UNL     1       1.720   0.736   5.019  0.00  0.00    -0.076 NA
ATOM     16  N   UNL     1       0.909  -1.357   4.465  0.00  0.00    -0.343 N 
ATOM     17  H   UNL     1       0.881  -2.099   3.841  0.00  0.00    +0.144 HD
ATOM     18  H   UNL     1       0.390  -1.392   5.284  0.00  0.00    +0.144 HD
BRANCH  15  19
ATOM     19  O   UNL     1       0.964   0.684   6.215  0.00  0.00    -0.408 OA
ATOM     20  H   UNL     1       1.055   1.469   6.772  0.00  0.00    +0.328 HD
ENDBRANCH  15  19
ENDBRANCH  13  14
BRANCH  13  21
ATOM     21  C   UNL     1       3.679   0.746   3.106  0.00  0.00    +0.002 C 
ATOM     22  C   UNL     1       4.522   0.271   4.291  0.00  0.00    +0.008 C 
ATOM     23  C   UNL     1       4.537   0.746   1.839  0.00  0.00    +0.008 C 
ENDBRANCH  13  21
ENDBRANCH  11  13
TORSDOF 4
