REMARK  Name = ZINC22183741
REMARK  4 active torsions:
REMARK  status: ('A' for Active; 'I' for Inactive)
REMARK    1  A    between atoms: C_3  and  S_23
REMARK    2  A    between atoms: C_6  and  N_7
REMARK    3  A    between atoms: C_8  and  C_10
REMARK    4  A    between atoms: S_23  and  N_26
REMARK                            x       y       z     vdW  Elec       q    Type
REMARK                         _______ _______ _______ _____ _____    ______ ____
ROOT
ATOM      1  C   UNL     1      -2.407   0.055  -0.155  0.00  0.00    +0.025 A 
ATOM      2  C   UNL     1      -3.617  -0.606  -0.241  0.00  0.00    +0.031 A 
ATOM      3  C   UNL     1      -3.653  -1.988  -0.242  0.00  0.00    +0.113 A 
ATOM      4  C   UNL     1      -2.478  -2.713  -0.162  0.00  0.00    +0.031 A 
ATOM      5  C   UNL     1      -1.265  -2.059  -0.081  0.00  0.00    +0.025 A 
ATOM      6  C   UNL     1      -1.226  -0.670  -0.080  0.00  0.00    +0.034 A 
ENDROOT
BRANCH   6   7
ATOM      7  N   UNL     1       0.002  -0.004   0.002  0.00  0.00    -0.285 N 
ATOM      8  C   UNL     1       1.092  -0.524  -0.596  0.00  0.00    +0.225 C 
ATOM      9  O   UNL     1       1.031  -1.611  -1.129  0.00  0.00    -0.275 OA
ATOM     10  H   UNL     1       0.077   0.944   0.555  0.00  0.00    +0.155 HD
BRANCH   8  11
ATOM     11  C   UNL     1       2.389   0.244  -0.597  0.00  0.00    +0.116 C 
ATOM     12  C   UNL     1       2.838   0.487   0.845  0.00  0.00    +0.113 C 
ATOM     13  C   UNL     1       3.306  -0.804   1.460  0.00  0.00    +0.218 C 
ATOM     14  O   UNL     1       3.099  -1.017   2.636  0.00  0.00    -0.275 OA
ATOM     15  N   UNL     1       3.951  -1.725   0.722  0.00  0.00    -0.285 N 
ATOM     16  C   UNL     1       4.184  -1.505  -0.640  0.00  0.00    +0.040 A 
ATOM     17  C   UNL     1       3.442  -0.551  -1.324  0.00  0.00    -0.014 A 
ATOM     18  C   UNL     1       3.671  -0.332  -2.668  0.00  0.00    +0.009 A 
ATOM     19  C   UNL     1       4.639  -1.062  -3.334  0.00  0.00    +0.039 A 
ATOM     20  C   UNL     1       5.380  -2.015  -2.655  0.00  0.00    +0.125 A 
ATOM     21  C   UNL     1       5.154  -2.238  -1.308  0.00  0.00    +0.062 A 
ATOM     22  F   UNL     1       6.325  -2.727  -3.309  0.00  0.00    -0.205 F 
ATOM     23  H   UNL     1       4.300  -2.658   1.188  0.00  0.00    +0.155 HD
ENDBRANCH   8  11
ENDBRANCH   6   7
BRANCH   3  24
ATOM     24  S   UNL     1      -5.199  -2.828  -0.346  0.00  0.00    +0.100 S 
ATOM     25  O   UNL     1      -6.110  -1.926  -0.961  0.00  0.00    -0.146 OA
ATOM     26  O   UNL     1      -4.926  -4.116  -0.879  0.00  0.00    -0.146 OA
BRANCH  24  27
ATOM     27  N   UNL     1      -5.735  -3.060   1.203  0.00  0.00    -0.118 NA
ATOM     28  C   UNL     1      -6.861  -3.660   1.415  0.00  0.00    +0.117 C 
ATOM     29  C   UNL     1      -7.700  -4.150   0.237  0.00  0.00    +0.073 C 
ATOM     30  C   UNL     1      -7.651  -5.669   0.258  0.00  0.00    +0.008 C 
ATOM     31  C   UNL     1      -8.746  -6.301   1.119  0.00  0.00    +0.002 C 
ATOM     32  C   UNL     1      -8.949  -5.581   2.453  0.00  0.00    +0.019 C 
ATOM     33  C   UNL     1      -7.650  -5.200   3.130  0.00  0.00    +0.102 C 
ATOM     34  N   UNL     1      -7.290  -3.846   2.647  0.00  0.00    -0.331 N 
ATOM     35  H   UNL     1      -7.379  -2.981   3.321  0.00  0.00    +0.147 HD
ENDBRANCH  24  27
ENDBRANCH   3  24
TORSDOF 4
