REMARK  Name = ZINC65869587
REMARK  6 active torsions:
REMARK  status: ('A' for Active; 'I' for Inactive)
REMARK    1  A    between atoms: C_1  and  N_2
REMARK    2  A    between atoms: N_2  and  C_3
REMARK    3  A    between atoms: C_11  and  C_13
REMARK    4  A    between atoms: C_13  and  O_14
REMARK    5  A    between atoms: O_14  and  C_15
REMARK    6  A    between atoms: C_19  and  C_21
REMARK                            x       y       z     vdW  Elec       q    Type
REMARK                         _______ _______ _______ _____ _____    ______ ____
ROOT
ATOM      1  C   UNL     1      -0.023   0.089  -2.470  0.00  0.00    +0.325 C 
ENDROOT
BRANCH   1   4
ATOM      2  C   UNL     1      -0.018   1.461   0.010  0.00  0.00    +0.138 C 
ATOM      3  N   UNL     1       0.002  -0.004   0.002  0.00  0.00    -0.270 N 
ATOM      4  C   UNL     1       0.000  -0.672  -1.169  0.00  0.00    +0.257 C 
ATOM      5  O   UNL     1       0.017  -1.884  -1.175  0.00  0.00    -0.272 OA
BRANCH   3   6
ATOM      6  C   UNL     1       0.023  -0.711   1.211  0.00  0.00    +0.054 A 
ATOM      7  C   UNL     1      -1.168  -1.083   1.820  0.00  0.00    +0.026 A 
ATOM      8  C   UNL     1      -1.144  -1.780   3.012  0.00  0.00    +0.017 A 
ATOM      9  C   UNL     1       0.065  -2.107   3.600  0.00  0.00    +0.019 A 
ATOM     10  C   UNL     1       1.253  -1.738   2.996  0.00  0.00    +0.037 A 
ATOM     11  C   UNL     1       1.236  -1.045   1.800  0.00  0.00    +0.063 A 
ATOM     12 CL   UNL     1       2.728  -0.588   1.039  0.00  0.00    -0.082 Cl
ATOM     13 BR   UNL     1       0.092  -3.061   5.233  0.00  0.00    -0.050 Br
ENDBRANCH   3   6
ENDBRANCH   1   4
BRANCH   1  14
ATOM     14  O   UNL     1      -0.020  -0.834  -3.561  0.00  0.00    -0.483 OA
BRANCH  14  15
ATOM     15  C   UNL     1      -0.039  -0.308  -4.814  0.00  0.00    +0.122 A 
ATOM     16  C   UNL     1      -0.054   1.070  -4.988  0.00  0.00    +0.046 A 
ATOM     17  C   UNL     1      -0.073   1.611  -6.260  0.00  0.00    +0.004 A 
ATOM     18  C   UNL     1      -0.079   0.785  -7.366  0.00  0.00    +0.013 A 
ATOM     19  C   UNL     1      -0.064  -0.601  -7.201  0.00  0.00    +0.040 A 
ATOM     20  C   UNL     1      -0.038  -1.145  -5.916  0.00  0.00    +0.058 A 
BRANCH  19  21
ATOM     21  C   UNL     1      -0.070  -1.489  -8.383  0.00  0.00    +0.242 C 
ATOM     22  O   UNL     1      -0.058  -2.696  -8.237  0.00  0.00    -0.270 OA
ATOM     23  N   UNL     1      -0.090  -0.961  -9.623  0.00  0.00    -0.325 N 
ATOM     24  H   UNL     1      -0.101   0.002  -9.739  0.00  0.00    +0.145 HD
ATOM     25  H   UNL     1      -0.094  -1.543 -10.398  0.00  0.00    +0.145 HD
ENDBRANCH  19  21
ENDBRANCH  14  15
ENDBRANCH   1  14
TORSDOF 5
