REMARK  Name = ZINC14467385
REMARK  8 active torsions:
REMARK  status: ('A' for Active; 'I' for Inactive)
REMARK    1  A    between atoms: C_2  and  C_3
REMARK    2  A    between atoms: C_3  and  N_4
REMARK    3  A    between atoms: N_4  and  C_5
REMARK    4  A    between atoms: N_4  and  S_8
REMARK    5  A    between atoms: C_5  and  C_6
REMARK    6  A    between atoms: S_8  and  C_11
REMARK    7  A    between atoms: C_24  and  C_27
REMARK    8  A    between atoms: C_32  and  O_33
REMARK                            x       y       z     vdW  Elec       q    Type
REMARK                         _______ _______ _______ _____ _____    ______ ____
ROOT
ATOM      1  C   UNL     1       4.828   0.602   1.945  0.00  0.00    +0.106 A 
ATOM      2  C   UNL     1       5.097   0.580   0.588  0.00  0.00    +0.030 A 
ATOM      3  C   UNL     1       4.663   1.618  -0.211  0.00  0.00    +0.025 A 
ATOM      4  C   UNL     1       3.962   2.680   0.346  0.00  0.00    +0.031 A 
ATOM      5  C   UNL     1       3.692   2.707   1.706  0.00  0.00    -0.018 A 
ATOM      6  C   UNL     1       4.132   1.656   2.499  0.00  0.00    +0.034 A 
ATOM      7  C   UNL     1       2.942   3.829   2.351  0.00  0.00    +0.049 C 
ATOM      8  C   UNL     1       1.527   3.425   2.690  0.00  0.00    -0.023 C 
ATOM      9  C   UNL     1       0.710   4.441   2.509  0.00  0.00    -0.030 C 
ATOM     10  C   UNL     1       1.474   5.660   2.029  0.00  0.00    +0.033 C 
ATOM     11  C   UNL     1       2.776   5.054   1.427  0.00  0.00    +0.029 C 
ATOM     12  C   UNL     1       2.447   4.590   0.005  0.00  0.00    +0.109 C 
ATOM     13  N   UNL     1       3.529   3.724  -0.477  0.00  0.00    -0.336 N 
ATOM     14  H   UNL     1       3.934   3.873  -1.346  0.00  0.00    +0.147 HD
ENDROOT
BRANCH  12  15
ATOM     15  C   UNL     1       1.151   3.821   0.012  0.00  0.00    +0.017 A 
ATOM     16  C   UNL     1       1.160   2.454   0.218  0.00  0.00    +0.029 A 
ATOM     17  C   UNL     1      -0.029   1.747   0.226  0.00  0.00    +0.043 A 
ATOM     18  C   UNL     1      -1.229   2.406   0.021  0.00  0.00    +0.043 A 
ATOM     19  C   UNL     1      -1.242   3.773  -0.180  0.00  0.00    +0.084 A 
ATOM     20  C   UNL     1      -0.050   4.484  -0.187  0.00  0.00    +0.140 A 
ATOM     21 CL   UNL     1      -2.748   4.600  -0.428  0.00  0.00    -0.080 Cl
ATOM     22 CL   UNL     1      -0.016   0.031   0.485  0.00  0.00    -0.083 Cl
BRANCH  20  23
ATOM     23  O   UNL     1      -0.060   5.828  -0.389  0.00  0.00    -0.505 OA
ATOM     24  H   UNL     1       0.010   6.087  -1.318  0.00  0.00    +0.292 HD
ENDBRANCH  20  23
ENDBRANCH  12  15
BRANCH   1  25
ATOM     25  S   UNL     1       5.377  -0.723   2.969  0.00  0.00    +0.061 S 
ATOM     26  O   UNL     1       6.480  -1.322   2.302  0.00  0.00    -0.153 OA
ATOM     27  O   UNL     1       5.476  -0.202   4.288  0.00  0.00    -0.153 OA
BRANCH  25  28
ATOM     28  N   UNL     1       4.169  -1.854   2.996  0.00  0.00    -0.169 NA
BRANCH  28  29
ATOM     29  C   UNL     1       4.146  -2.925   1.997  0.00  0.00    +0.136 C 
BRANCH  29  31
ATOM     30  C   UNL     1       4.178  -5.296   2.580  0.00  0.00    +0.005 C 
ATOM     31  C   UNL     1       4.816  -4.152   2.559  0.00  0.00    -0.018 C 
ENDBRANCH  29  31
ENDBRANCH  28  29
BRANCH  28  32
ATOM     32  C   UNL     1       3.123  -1.785   4.019  0.00  0.00    +0.136 C 
BRANCH  32  33
ATOM     33  C   UNL     1       1.929  -1.048   3.468  0.00  0.00    -0.018 C 
ATOM     34  C   UNL     1       0.746  -1.610   3.488  0.00  0.00    +0.005 C 
ENDBRANCH  32  33
ENDBRANCH  28  32
ENDBRANCH  25  28
ENDBRANCH   1  25
TORSDOF 8
