REMARK  Name = ZINC24954830
REMARK  10 active torsions:
REMARK  status: ('A' for Active; 'I' for Inactive)
REMARK    1  A    between atoms: C_1  and  C_2
REMARK    2  A    between atoms: C_4  and  C_37
REMARK    3  A    between atoms: C_5  and  C_9
REMARK    4  A    between atoms: C_6  and  C_8
REMARK    5  A    between atoms: C_15  and  C_17
REMARK    6  A    between atoms: C_17  and  N_18
REMARK    7  A    between atoms: N_21  and  C_24
REMARK    8  A    between atoms: C_24  and  C_25
REMARK    9  A    between atoms: C_29  and  C_36
REMARK   10  A    between atoms: C_32  and  C_35
REMARK                            x       y       z     vdW  Elec       q    Type
REMARK                         _______ _______ _______ _____ _____    ______ ____
ROOT
ATOM      1  C   UNL     1      -0.437  -1.011  -0.917  0.00  0.00    +0.180 C 
ENDROOT
BRANCH   1   8
ATOM      2  C   UNL     1      -2.936  -6.502  -1.475  0.00  0.00    +0.081 A 
ATOM      3  C   UNL     1      -1.747  -7.059  -1.855  0.00  0.00    +0.076 A 
ATOM      4  S   UNL     1      -0.680  -5.625  -1.811  0.00  0.00    -0.060 S 
ATOM      5  C   UNL     1      -1.915  -4.445  -1.285  0.00  0.00    +0.165 A 
ATOM      6  N   UNL     1      -2.988  -5.208  -1.199  0.00  0.00    -0.225 NA
ATOM      7  N   UNL     1      -1.781  -3.084  -1.038  0.00  0.00    -0.264 N 
ATOM      8  C   UNL     1      -0.582  -2.487  -1.186  0.00  0.00    +0.233 C 
ATOM      9  O   UNL     1       0.381  -3.137  -1.534  0.00  0.00    -0.274 OA
ATOM     10  H   UNL     1      -2.654  -2.494  -0.722  0.00  0.00    +0.157 HD
BRANCH   2  15
ATOM     11  C   UNL     1      -7.673  -9.753  -1.072  0.00  0.00    +0.044 C 
ATOM     12  C   UNL     1      -6.433  -8.902  -1.177  0.00  0.00    -0.050 A 
ATOM     13  C   UNL     1      -6.047  -8.112  -0.110  0.00  0.00    +0.007 A 
ATOM     14  C   UNL     1      -4.913  -7.331  -0.201  0.00  0.00    -0.041 A 
ATOM     15  C   UNL     1      -4.156  -7.340  -1.371  0.00  0.00    +0.007 A 
ATOM     16  C   UNL     1      -4.552  -8.134  -2.445  0.00  0.00    -0.041 A 
ATOM     17  C   UNL     1      -5.685  -8.915  -2.341  0.00  0.00    +0.007 A 
ATOM     18  C   UNL     1      -3.743  -8.145  -3.716  0.00  0.00    +0.044 C 
ATOM     19  C   UNL     1      -4.493  -6.470   0.964  0.00  0.00    +0.044 C 
ENDBRANCH   2  15
ENDBRANCH   1   8
BRANCH   1  20
ATOM     20  N   UNL     1       0.956  -0.606  -1.148  0.00  0.00    -0.298 NA
ATOM     21  C   UNL     1       1.089   0.858  -1.129  0.00  0.00    +0.066 C 
ATOM     22  C   UNL     1       2.535   1.240  -1.451  0.00  0.00    -0.063 C 
ATOM     23  N   UNL     1       3.434   0.620  -0.467  0.00  0.00    +0.387 N 
ATOM     24  C   UNL     1       3.301  -0.844  -0.486  0.00  0.00    -0.063 C 
ATOM     25  C   UNL     1       1.855  -1.226  -0.165  0.00  0.00    +0.066 C 
ATOM     26  H   UNL     1       3.141   0.974   0.532  0.00  0.00    -0.081 HD
BRANCH  23  27
ATOM     27  C   UNL     1       4.827   1.025  -0.698  0.00  0.00    +0.019 C 
BRANCH  27  28
ATOM     28  C   UNL     1       4.972   2.501  -0.430  0.00  0.00    +0.199 C 
ATOM     29  O   UNL     1       4.009   3.151  -0.081  0.00  0.00    -0.278 OA
ATOM     30  N   UNL     1       6.171   3.098  -0.577  0.00  0.00    -0.303 N 
ATOM     31  C   UNL     1       6.328   4.536  -0.320  0.00  0.00    +0.111 C 
ATOM     32  C   UNL     1       6.965   5.190  -1.549  0.00  0.00    +0.004 C 
ATOM     33  C   UNL     1       8.271   4.466  -1.889  0.00  0.00    +0.009 C 
ATOM     34  C   UNL     1       7.973   3.002  -2.221  0.00  0.00    +0.004 C 
ATOM     35  C   UNL     1       7.348   2.322  -0.993  0.00  0.00    +0.111 C 
ATOM     36  C   UNL     1       9.274   2.288  -2.591  0.00  0.00    +0.009 C 
ATOM     37  C   UNL     1       7.260   6.662  -1.250  0.00  0.00    +0.009 C 
ENDBRANCH  27  28
ENDBRANCH  23  27
ENDBRANCH   1  20
TORSDOF 5
