REMARK  Name = ZINC37444306
REMARK  10 active torsions:
REMARK  status: ('A' for Active; 'I' for Inactive)
REMARK    1  A    between atoms: C_1  and  C_2
REMARK    2  A    between atoms: C_7  and  N_12
REMARK    3  A    between atoms: C_9  and  C_11
REMARK    4  A    between atoms: C_13  and  C_15
REMARK    5  A    between atoms: C_15  and  C_39
REMARK    6  A    between atoms: C_18  and  C_34
REMARK    7  A    between atoms: N_24  and  C_25
REMARK    8  A    between atoms: C_25  and  C_26
REMARK    9  A    between atoms: C_29  and  O_32
REMARK   10  A    between atoms: O_32  and  C_33
REMARK                            x       y       z     vdW  Elec       q    Type
REMARK                         _______ _______ _______ _____ _____    ______ ____
ROOT
ATOM      1  C   UNL     1       2.063  -4.069   4.169  0.00  0.00    +0.129 C 
ATOM      2  C   UNL     1       1.326  -5.303   4.688  0.00  0.00    +0.157 C 
ATOM      3  N   UNL     1       0.101  -4.879   5.372  0.00  0.00    -0.331 N 
ATOM      4  C   UNL     1      -1.081  -5.525   5.523  0.00  0.00    +0.085 A 
ATOM      5  C   UNL     1      -1.924  -4.716   6.270  0.00  0.00    +0.032 A 
ATOM      6  C   UNL     1      -1.231  -3.544   6.574  0.00  0.00    +0.033 A 
ATOM      7  C   UNL     1       0.012  -3.648   6.012  0.00  0.00    +0.105 A 
ATOM      8  C   UNL     1       1.137  -2.708   5.996  0.00  0.00    +0.264 C 
ATOM      9  O   UNL     1       1.146  -1.706   6.687  0.00  0.00    -0.268 OA
ATOM     10  N   UNL     1       2.166  -3.014   5.171  0.00  0.00    -0.276 N 
ATOM     11  C   UNL     1       3.473  -4.481   3.739  0.00  0.00    +0.043 C 
ENDROOT
BRANCH   4  12
ATOM     12  C   UNL     1      -1.413  -6.852   4.986  0.00  0.00    +0.151 A 
ATOM     13  C   UNL     1      -2.632  -7.460   5.049  0.00  0.00    +0.051 A 
ATOM     14  C   UNL     1      -2.496  -8.708   4.415  0.00  0.00    +0.042 A 
ATOM     15  C   UNL     1      -1.216  -8.803   3.998  0.00  0.00    +0.196 A 
ATOM     16  O   UNL     1      -0.567  -7.679   4.340  0.00  0.00    -0.461 OA
ENDBRANCH   4  12
BRANCH   1  18
ATOM     17  N   UNL     1       1.481  -2.241   2.606  0.00  0.00    -0.310 N 
ATOM     18  C   UNL     1       1.327  -3.530   2.969  0.00  0.00    +0.238 C 
ATOM     19  O   UNL     1       0.597  -4.257   2.329  0.00  0.00    -0.273 OA
ATOM     20  H   UNL     1       2.007  -1.642   3.158  0.00  0.00    +0.149 HD
BRANCH  17  26
ATOM     21  C   UNL     1      -0.246   1.790   0.324  0.00  0.00    +0.008 C 
ATOM     22  C   UNL     1      -0.023   0.281   0.210  0.00  0.00    -0.009 C 
ATOM     23  C   UNL     1       0.890  -0.011  -0.982  0.00  0.00    +0.003 C 
ATOM     24  C   UNL     1       1.113  -1.520  -1.097  0.00  0.00    +0.002 C 
ATOM     25  C   UNL     1       1.768  -2.038   0.186  0.00  0.00    +0.022 C 
ATOM     26  C   UNL     1       0.855  -1.746   1.378  0.00  0.00    +0.076 C 
ATOM     27  C   UNL     1       0.631  -0.237   1.492  0.00  0.00    +0.009 C 
ATOM     28  C   UNL     1      -0.282   0.055   2.685  0.00  0.00    +0.009 C 
ENDBRANCH  17  26
ENDBRANCH   1  18
BRANCH  10  29
ATOM     29  C   UNL     1       3.419  -2.264   5.288  0.00  0.00    +0.144 C 
BRANCH  29  30
ATOM     30  C   UNL     1       4.265  -2.868   6.380  0.00  0.00    -0.030 A 
ATOM     31  C   UNL     1       4.040  -2.520   7.699  0.00  0.00    +0.009 A 
ATOM     32  C   UNL     1       4.815  -3.071   8.701  0.00  0.00    +0.046 A 
ATOM     33  C   UNL     1       5.818  -3.975   8.383  0.00  0.00    +0.120 A 
ATOM     34  C   UNL     1       6.041  -4.322   7.059  0.00  0.00    +0.046 A 
ATOM     35  C   UNL     1       5.260  -3.772   6.061  0.00  0.00    +0.009 A 
BRANCH  33  36
ATOM     36  O   UNL     1       6.582  -4.518   9.367  0.00  0.00    -0.495 OA
ATOM     37  C   UNL     1       7.596  -5.441   8.967  0.00  0.00    +0.277 C 
ENDBRANCH  33  36
ENDBRANCH  29  30
ENDBRANCH  10  29
TORSDOF 6
