REMARK  Name = ZINC63138793
REMARK  14 active torsions:
REMARK  status: ('A' for Active; 'I' for Inactive)
REMARK    1  A    between atoms: C_1  and  C_2
REMARK    2  A    between atoms: C_2  and  C_3
REMARK    3  A    between atoms: C_3  and  C_4
REMARK    4  A    between atoms: C_4  and  N_5
REMARK    5  A    between atoms: N_5  and  C_6
REMARK    6  A    between atoms: N_5  and  C_10
REMARK    7  A    between atoms: C_6  and  C_7
REMARK    8  A    between atoms: C_7  and  C_8
REMARK    9  A    between atoms: C_8  and  C_9
REMARK   10  A    between atoms: C_10  and  C_11
REMARK   11  A    between atoms: C_11  and  C_12
REMARK   12  A    between atoms: C_12  and  N_13
REMARK   13  A    between atoms: C_33  and  C_34
REMARK   14  A    between atoms: C_33  and  C_35
REMARK                            x       y       z     vdW  Elec       q    Type
REMARK                         _______ _______ _______ _____ _____    ______ ____
ROOT
ATOM      1  N   UNL     1      -2.040  -5.995  -3.175  0.00  0.00    -0.291 N 
ATOM      2  C   UNL     1      -2.776  -6.294  -1.960  0.00  0.00    +0.203 C 
ATOM      3  C   UNL     1      -4.250  -6.402  -2.217  0.00  0.00    +0.234 C 
ATOM      4  O   UNL     1      -4.933  -6.151  -1.246  0.00  0.00    -0.274 OA
ATOM      5  N   UNL     1      -4.790  -6.644  -3.409  0.00  0.00    -0.281 N 
ATOM      6  C   UNL     1      -4.037  -6.324  -4.635  0.00  0.00    +0.167 C 
ATOM      7  C   UNL     1      -2.619  -5.947  -4.373  0.00  0.00    +0.237 C 
ATOM      8  O   UNL     1      -1.948  -5.570  -5.312  0.00  0.00    -0.274 OA
ATOM      9  C   UNL     1      -4.757  -5.177  -5.374  0.00  0.00    +0.065 C 
ATOM     10  C   UNL     1      -6.214  -5.567  -5.433  0.00  0.00    -0.034 C 
ATOM     11  C   UNL     1      -7.084  -5.604  -6.433  0.00  0.00    -0.001 A 
ATOM     12  C   UNL     1      -6.967  -5.219  -7.849  0.00  0.00    +0.010 A 
ATOM     13  C   UNL     1      -8.075  -5.406  -8.615  0.00  0.00    +0.001 A 
ATOM     14  C   UNL     1      -9.273  -5.931  -8.120  0.00  0.00    +0.002 A 
ATOM     15  C   UNL     1      -9.470  -6.307  -6.831  0.00  0.00    +0.026 A 
ATOM     16  C   UNL     1      -8.380  -6.151  -5.928  0.00  0.00    +0.043 A 
ATOM     17  N   UNL     1      -8.299  -6.410  -4.654  0.00  0.00    -0.375 N 
ATOM     18  C   UNL     1      -6.975  -6.015  -4.188  0.00  0.00    +0.129 C 
ATOM     19  C   UNL     1      -6.159  -7.168  -3.590  0.00  0.00    +0.057 C 
ATOM     20  C   UNL     1      -6.811  -7.654  -2.300  0.00  0.00    +0.034 C 
ATOM     21  C   UNL     1      -6.146  -8.341  -4.583  0.00  0.00    +0.034 C 
ATOM     22  H   UNL     1      -9.009  -6.795  -4.115  0.00  0.00    +0.160 HD
ENDROOT
BRANCH   1  23
ATOM     23  C   UNL     1      -0.606  -5.719  -3.078  0.00  0.00    +0.106 C 
BRANCH  23  24
ATOM     24  C   UNL     1      -0.390  -4.221  -2.851  0.00  0.00    +0.000 C 
BRANCH  24  25
ATOM     25  C   UNL     1       1.109  -3.932  -2.749  0.00  0.00    -0.077 C 
BRANCH  25  26
ATOM     26  N   UNL     1       1.317  -2.495  -2.531  0.00  0.00    +0.380 N 
ATOM     27  H   UNL     1       0.856  -1.974  -3.261  0.00  0.00    -0.082 HD
BRANCH  26  28
ATOM     28  C   UNL     1       0.758  -2.111  -1.228  0.00  0.00    -0.079 C 
BRANCH  28  29
ATOM     29  C   UNL     1       0.846  -0.593  -1.062  0.00  0.00    -0.019 C 
BRANCH  29  31
ATOM     30  C   UNL     1       0.232   1.339   0.399  0.00  0.00    +0.004 C 
ATOM     31  C   UNL     1       0.144  -0.179   0.234  0.00  0.00    -0.005 C 
ENDBRANCH  29  31
ENDBRANCH  28  29
ENDBRANCH  26  28
BRANCH  26  32
ATOM     32  C   UNL     1       2.756  -2.199  -2.552  0.00  0.00    -0.079 C 
BRANCH  32  33
ATOM     33  C   UNL     1       3.310  -2.463  -3.954  0.00  0.00    -0.019 C 
BRANCH  33  34
ATOM     34  C   UNL     1       4.776  -2.030  -4.013  0.00  0.00    -0.005 C 
ATOM     35  C   UNL     1       5.330  -2.294  -5.414  0.00  0.00    +0.004 C 
ENDBRANCH  33  34
ENDBRANCH  32  33
ENDBRANCH  26  32
ENDBRANCH  25  26
ENDBRANCH  24  25
ENDBRANCH  23  24
ENDBRANCH   1  23
TORSDOF 10
