REMARK  Name = ZINC14040479
REMARK  11 active torsions:
REMARK  status: ('A' for Active; 'I' for Inactive)
REMARK    1  A    between atoms: C_1  and  C_2
REMARK    2  A    between atoms: C_3  and  C_29
REMARK    3  A    between atoms: C_5  and  N_10
REMARK    4  A    between atoms: C_6  and  C_7
REMARK    5  A    between atoms: C_11  and  C_13
REMARK    6  A    between atoms: C_18  and  O_19
REMARK    7  A    between atoms: O_19  and  C_20
REMARK    8  A    between atoms: C_20  and  C_21
REMARK    9  A    between atoms: C_21  and  O_22
REMARK   10  A    between atoms: O_22  and  C_23
REMARK   11  A    between atoms: C_29  and  C_30
REMARK                            x       y       z     vdW  Elec       q    Type
REMARK                         _______ _______ _______ _____ _____    ______ ____
ROOT
ATOM      1  N   UNL     1      -0.011   0.966   0.007  0.00  0.00    -0.275 N 
ATOM      2  C   UNL     1       1.147   1.655   0.000  0.00  0.00    +0.252 C 
ATOM      3  O   UNL     1       1.130   2.871   0.007  0.00  0.00    -0.270 OA
ATOM      4  H   UNL     1       0.002  -0.004   0.002  0.00  0.00    +0.156 HD
ENDROOT
BRANCH   1   9
ATOM      5  C   UNL     1      -5.033   1.601   0.033  0.00  0.00    +0.045 C 
ATOM      6  C   UNL     1      -3.597   2.058   0.029  0.00  0.00    -0.026 A 
ATOM      7  C   UNL     1      -3.277   3.365   0.035  0.00  0.00    -0.000 A 
ATOM      8  S   UNL     1      -1.496   3.352   0.027  0.00  0.00    -0.077 S 
ATOM      9  C   UNL     1      -1.220   1.642   0.017  0.00  0.00    +0.085 A 
ATOM     10  C   UNL     1      -2.506   1.113   0.014  0.00  0.00    +0.068 A 
BRANCH  10  11
ATOM     11  C   UNL     1      -2.742  -0.334   0.001  0.00  0.00    +0.244 C 
ATOM     12  O   UNL     1      -2.838  -0.945   1.049  0.00  0.00    -0.270 OA
ATOM     13  N   UNL     1      -2.852  -0.988  -1.173  0.00  0.00    -0.325 N 
ATOM     14  H   UNL     1      -2.776  -0.501  -2.008  0.00  0.00    +0.145 HD
ATOM     15  H   UNL     1      -3.009  -1.945  -1.182  0.00  0.00    +0.145 HD
ENDBRANCH  10  11
BRANCH   7  16
ATOM     16  C   UNL     1      -4.203   4.554   0.044  0.00  0.00    +0.077 C 
BRANCH  16  17
ATOM     17  C   UNL     1      -4.506   4.943   1.468  0.00  0.00    -0.043 A 
ATOM     18  C   UNL     1      -5.593   4.390   2.120  0.00  0.00    +0.004 A 
ATOM     19  C   UNL     1      -5.868   4.743   3.427  0.00  0.00    +0.000 A 
ATOM     20  C   UNL     1      -5.063   5.657   4.080  0.00  0.00    +0.000 A 
ATOM     21  C   UNL     1      -3.979   6.214   3.428  0.00  0.00    +0.000 A 
ATOM     22  C   UNL     1      -3.701   5.857   2.121  0.00  0.00    +0.004 A 
ENDBRANCH  16  17
ENDBRANCH   7  16
ENDBRANCH   1   9
BRANCH   2  23
ATOM     23  C   UNL     1       2.434   0.936  -0.016  0.00  0.00    +0.079 A 
ATOM     24  C   UNL     1       2.458  -0.462  -0.018  0.00  0.00    +0.017 A 
ATOM     25  C   UNL     1       3.663  -1.128  -0.038  0.00  0.00    +0.001 A 
ATOM     26  C   UNL     1       4.854  -0.419  -0.046  0.00  0.00    +0.004 A 
ATOM     27  C   UNL     1       4.845   0.961  -0.039  0.00  0.00    +0.046 A 
ATOM     28  C   UNL     1       3.640   1.649  -0.024  0.00  0.00    +0.133 A 
BRANCH  28  29
ATOM     29  O   UNL     1       3.630   3.005  -0.016  0.00  0.00    -0.488 OA
BRANCH  29  30
ATOM     30  C   UNL     1       4.899   3.664  -0.025  0.00  0.00    +0.270 C 
BRANCH  30  31
ATOM     31  C   UNL     1       4.687   5.179  -0.014  0.00  0.00    +0.270 C 
BRANCH  31  32
ATOM     32  O   UNL     1       4.069   5.565   1.216  0.00  0.00    -0.489 OA
BRANCH  32  33
ATOM     33  C   UNL     1       3.809   6.888   1.387  0.00  0.00    +0.121 A 
ATOM     34  C   UNL     1       4.148   7.796   0.395  0.00  0.00    +0.045 A 
ATOM     35  C   UNL     1       3.877   9.140   0.569  0.00  0.00    +0.004 A 
ATOM     36  C   UNL     1       3.281   9.581   1.736  0.00  0.00    +0.000 A 
ATOM     37  C   UNL     1       2.948   8.678   2.729  0.00  0.00    +0.004 A 
ATOM     38  C   UNL     1       3.211   7.332   2.557  0.00  0.00    +0.045 A 
ENDBRANCH  32  33
ENDBRANCH  31  32
ENDBRANCH  30  31
ENDBRANCH  29  30
ENDBRANCH  28  29
ENDBRANCH   2  23
TORSDOF 10
