REMARK  Name = ZINC14768886
REMARK  10 active torsions:
REMARK  status: ('A' for Active; 'I' for Inactive)
REMARK    1  A    between atoms: C_1  and  C_2
REMARK    2  A    between atoms: C_2  and  C_3
REMARK    3  A    between atoms: C_3  and  C_5
REMARK    4  A    between atoms: C_3  and  O_21
REMARK    5  A    between atoms: N_7  and  N_8
REMARK    6  A    between atoms: C_9  and  C_11
REMARK    7  A    between atoms: C_11  and  O_12
REMARK    8  A    between atoms: O_12  and  C_13
REMARK    9  A    between atoms: O_21  and  C_22
REMARK   10  A    between atoms: C_25  and  C_28
REMARK                            x       y       z     vdW  Elec       q    Type
REMARK                         _______ _______ _______ _____ _____    ______ ____
ROOT
ATOM      1  C   UNL     1       7.281  -2.949  -0.576  0.00  0.00    +0.270 C 
ATOM      2  O   UNL     1       8.163  -2.222  -0.981  0.00  0.00    -0.270 OA
ATOM      3  N   UNL     1       7.408  -4.287  -0.684  0.00  0.00    -0.231 N 
ATOM      4  H   UNL     1       6.703  -4.869  -0.360  0.00  0.00    +0.173 HD
ENDROOT
BRANCH   3   5
ATOM      5  N   UNL     1       8.559  -4.837  -1.264  0.00  0.00    -0.231 N 
ATOM      6  C   UNL     1       8.686  -6.174  -1.371  0.00  0.00    +0.267 C 
ATOM      7  O   UNL     1       7.804  -6.902  -0.966  0.00  0.00    -0.271 OA
ATOM      8  H   UNL     1       9.264  -4.255  -1.588  0.00  0.00    +0.173 HD
BRANCH   6   9
ATOM      9  C   UNL     1       9.924  -6.765  -1.995  0.00  0.00    +0.326 C 
BRANCH   9  10
ATOM     10  O   UNL     1       9.823  -8.191  -1.995  0.00  0.00    -0.482 OA
BRANCH  10  11
ATOM     11  C   UNL     1      10.865  -8.883  -2.527  0.00  0.00    +0.135 A 
ATOM     12  C   UNL     1      11.961  -8.204  -3.038  0.00  0.00    +0.048 A 
ATOM     13  C   UNL     1      13.019  -8.910  -3.578  0.00  0.00    +0.023 A 
ATOM     14  C   UNL     1      12.986 -10.293  -3.609  0.00  0.00    +0.042 A 
ATOM     15  C   UNL     1      11.894 -10.972  -3.100  0.00  0.00    +0.039 A 
ATOM     16  C   UNL     1      10.836 -10.270  -2.554  0.00  0.00    +0.061 A 
ATOM     17 BR   UNL     1       9.347 -11.199  -1.850  0.00  0.00    -0.046 Br
ATOM     18 CL   UNL     1      14.317 -11.177  -4.288  0.00  0.00    -0.084 Cl
ENDBRANCH  10  11
ENDBRANCH   9  10
ENDBRANCH   6   9
ENDBRANCH   3   5
BRANCH   1  19
ATOM     19  C   UNL     1       6.043  -2.358   0.048  0.00  0.00    +0.260 C 
BRANCH  19  21
ATOM     20  C   UNL     1       4.657  -2.264   2.125  0.00  0.00    +0.008 C 
ATOM     21  C   UNL     1       5.974  -2.759   1.523  0.00  0.00    +0.051 C 
ENDBRANCH  19  21
BRANCH  19  22
ATOM     22  O   UNL     1       6.091  -0.934  -0.057  0.00  0.00    -0.480 OA
BRANCH  22  23
ATOM     23  C   UNL     1       4.907  -0.288  -0.229  0.00  0.00    +0.122 A 
ATOM     24  C   UNL     1       3.732  -1.017  -0.351  0.00  0.00    +0.046 A 
ATOM     25  C   UNL     1       2.530  -0.364  -0.526  0.00  0.00    +0.012 A 
ATOM     26  C   UNL     1       2.495   1.028  -0.580  0.00  0.00    -0.018 A 
ATOM     27  C   UNL     1       3.678   1.757  -0.462  0.00  0.00    +0.012 A 
ATOM     28  C   UNL     1       4.877   1.099  -0.283  0.00  0.00    +0.046 A 
BRANCH  26  29
ATOM     29  C   UNL     1       1.204   1.733  -0.768  0.00  0.00    -0.018 A 
ATOM     30  C   UNL     1       1.168   3.125  -0.822  0.00  0.00    +0.008 A 
ATOM     31  C   UNL     1      -0.037   3.776  -0.992  0.00  0.00    +0.001 A 
ATOM     32  C   UNL     1      -1.207   3.049  -1.121  0.00  0.00    +0.000 A 
ATOM     33  C   UNL     1      -1.177   1.667  -1.068  0.00  0.00    +0.001 A 
ATOM     34  C   UNL     1       0.022   1.006  -0.892  0.00  0.00    +0.008 A 
ENDBRANCH  26  29
ENDBRANCH  22  23
ENDBRANCH  19  22
ENDBRANCH   1  19
TORSDOF 9
