REMARK  Name = ZINC16451127
REMARK  7 active torsions:
REMARK  status: ('A' for Active; 'I' for Inactive)
REMARK    1  A    between atoms: C_4  and  N_7
REMARK    2  A    between atoms: N_8  and  C_9
REMARK    3  A    between atoms: C_12  and  O_32
REMARK    4  A    between atoms: C_13  and  C_15
REMARK    5  A    between atoms: N_16  and  N_17
REMARK    6  A    between atoms: C_18  and  C_20
REMARK    7  A    between atoms: C_20  and  C_21
REMARK                            x       y       z     vdW  Elec       q    Type
REMARK                         _______ _______ _______ _____ _____    ______ ____
ROOT
ATOM      1  C   UNL     1       6.093  -6.121  -0.102  0.00  0.00    +0.142 C 
ATOM      2  N   UNL     1       7.232  -6.744  -0.117  0.00  0.00    -0.188 NA
ENDROOT
BRANCH   1   7
ATOM      3  C   UNL     1       4.814  -2.582  -0.060  0.00  0.00    +0.087 A 
ATOM      4  C   UNL     1       6.015  -1.863  -0.062  0.00  0.00    +0.033 A 
ATOM      5  C   UNL     1       7.221  -2.528  -0.078  0.00  0.00    +0.048 A 
ATOM      6  C   UNL     1       7.256  -3.915  -0.091  0.00  0.00    +0.126 A 
ATOM      7  C   UNL     1       6.058  -4.648  -0.088  0.00  0.00    +0.038 A 
ATOM      8  C   UNL     1       4.837  -3.978  -0.068  0.00  0.00    +0.042 A 
BRANCH   3  10
ATOM      9  N   UNL     1       3.599  -0.629  -0.037  0.00  0.00    -0.149 NA
ATOM     10  N   UNL     1       3.620  -1.919  -0.044  0.00  0.00    -0.149 NA
BRANCH   9  14
ATOM     11  C   UNL     1      -0.017   1.380   0.010  0.00  0.00    +0.000 A 
ATOM     12  C   UNL     1       1.168   2.095   0.002  0.00  0.00    +0.002 A 
ATOM     13  C   UNL     1       2.377   1.432  -0.013  0.00  0.00    +0.029 A 
ATOM     14  C   UNL     1       2.404   0.035  -0.021  0.00  0.00    +0.086 A 
ATOM     15  C   UNL     1       1.204  -0.681  -0.013  0.00  0.00    +0.029 A 
ATOM     16  C   UNL     1       0.002  -0.004   0.002  0.00  0.00    +0.002 A 
ENDBRANCH   9  14
ENDBRANCH   3  10
BRANCH   6  17
ATOM     17  O   UNL     1       8.447  -4.564  -0.107  0.00  0.00    -0.506 OA
ATOM     18  H   UNL     1       8.800  -4.760   0.772  0.00  0.00    +0.292 HD
ENDBRANCH   6  17
ENDBRANCH   1   7
BRANCH   2  19
ATOM     19  N   UNL     1       7.265  -8.144  -0.130  0.00  0.00    -0.207 N 
ATOM     20  C   UNL     1       8.447  -8.790  -0.145  0.00  0.00    +0.237 C 
ATOM     21  O   UNL     1       9.483  -8.159  -0.147  0.00  0.00    -0.274 OA
ATOM     22  H   UNL     1       6.436  -8.649  -0.128  0.00  0.00    +0.177 HD
BRANCH  20  23
ATOM     23  C   UNL     1       8.483 -10.297  -0.159  0.00  0.00    +0.133 C 
BRANCH  23  24
ATOM     24  C   UNL     1       9.915 -10.766  -0.174  0.00  0.00    -0.031 A 
ATOM     25  C   UNL     1      10.526 -11.060  -1.355  0.00  0.00    +0.006 A 
ATOM     26  C   UNL     1      11.849 -11.494  -1.389  0.00  0.00    +0.016 A 
ATOM     27  C   UNL     1      12.570 -11.637  -0.243  0.00  0.00    +0.026 A 
ATOM     28  C   UNL     1      11.973 -11.343   0.996  0.00  0.00    -0.004 A 
ATOM     29  C   UNL     1      10.628 -10.896   1.029  0.00  0.00    -0.013 A 
ATOM     30  C   UNL     1      10.032 -10.597   2.267  0.00  0.00    +0.009 A 
ATOM     31  C   UNL     1      10.754 -10.735   3.412  0.00  0.00    +0.001 A 
ATOM     32  C   UNL     1      12.078 -11.169   3.378  0.00  0.00    +0.001 A 
ATOM     33  C   UNL     1      12.684 -11.478   2.200  0.00  0.00    +0.009 A 
ATOM     34 BR   UNL     1      14.364 -12.229  -0.316  0.00  0.00    -0.050 Br
ENDBRANCH  23  24
ENDBRANCH  20  23
ENDBRANCH   2  19
TORSDOF 7
