REMARK  Name = ZINC02647884
REMARK  3 active torsions:
REMARK  status: ('A' for Active; 'I' for Inactive)
REMARK    1  A    between atoms: C_11  and  C_23
REMARK    2  A    between atoms: C_14  and  C_16
REMARK    3  A    between atoms: C_27  and  N_29
REMARK                            x       y       z     vdW  Elec       q    Type
REMARK                         _______ _______ _______ _____ _____    ______ ____
ROOT
ATOM      1  C   UNL     1       5.557   3.337   0.691  0.00  0.00    +0.001 A 
ATOM      2  C   UNL     1       5.662   3.052  -0.660  0.00  0.00    +0.002 A 
ATOM      3  C   UNL     1       4.621   2.489  -1.379  0.00  0.00    +0.026 A 
ATOM      4  C   UNL     1       3.447   2.216  -0.681  0.00  0.00    +0.047 A 
ATOM      5  C   UNL     1       3.345   2.509   0.704  0.00  0.00    +0.004 A 
ATOM      6  C   UNL     1       4.413   3.079   1.405  0.00  0.00    +0.010 A 
ATOM      7  C   UNL     1       2.014   2.104   1.099  0.00  0.00    -0.015 A 
ATOM      8  C   UNL     1       1.403   1.613  -0.003  0.00  0.00    +0.011 A 
ATOM      9  N   UNL     1       2.255   1.676  -1.071  0.00  0.00    -0.359 N 
ATOM     10  H   UNL     1       2.044   1.381  -1.971  0.00  0.00    +0.166 HD
ATOM     11  C   UNL     1      -0.013   1.086   0.008  0.00  0.00    +0.007 C 
ATOM     12  C   UNL     1       0.118   1.270   2.428  0.00  0.00    -0.068 C 
ATOM     13  C   UNL     1       1.356   2.176   2.454  0.00  0.00    +0.036 C 
ATOM     14  N   UNL     1      -0.692   1.571   1.230  0.00  0.00    +0.388 N 
ATOM     15  H   UNL     1      -1.605   1.109   1.314  0.00  0.00    -0.084 HD
ATOM     16  H   UNL     1      -0.827   2.587   1.160  0.00  0.00    -0.084 HD
ENDROOT
BRANCH  13  17
ATOM     17  C   UNL     1       2.316   1.700   3.513  0.00  0.00    -0.023 A 
ATOM     18  C   UNL     1       2.821   0.414   3.460  0.00  0.00    +0.005 A 
ATOM     19  C   UNL     1       3.702  -0.023   4.431  0.00  0.00    +0.000 A 
ATOM     20  C   UNL     1       4.078   0.825   5.456  0.00  0.00    +0.001 A 
ATOM     21  C   UNL     1       3.574   2.110   5.510  0.00  0.00    +0.020 A 
ATOM     22  C   UNL     1       2.696   2.550   4.535  0.00  0.00    +0.045 A 
ATOM     23 CL   UNL     1       2.068   4.168   4.598  0.00  0.00    -0.083 Cl
ENDBRANCH  13  17
BRANCH  11  24
ATOM     24  C   UNL     1      -0.749   1.589  -1.207  0.00  0.00    -0.054 A 
ATOM     25  C   UNL     1      -1.263   2.872  -1.221  0.00  0.00    +0.002 A 
ATOM     26  C   UNL     1      -1.936   3.335  -2.337  0.00  0.00    +0.002 A 
ATOM     27  C   UNL     1      -2.102   2.511  -3.435  0.00  0.00    +0.033 A 
ATOM     28  C   UNL     1      -1.592   1.227  -3.418  0.00  0.00    +0.126 A 
ATOM     29  C   UNL     1      -0.916   0.765  -2.304  0.00  0.00    +0.035 A 
BRANCH  28  30
ATOM     30  N   UNL     1      -1.770   0.345  -4.594  0.00  0.00    +0.056 N 
ATOM     31  O   UNL     1      -1.321  -0.787  -4.579  0.00  0.00    -0.126 OA
ATOM     32  O   UNL     1      -2.365   0.752  -5.575  0.00  0.00    -0.126 OA
ENDBRANCH  28  30
ENDBRANCH  11  24
TORSDOF 3
