REMARK  Name = ZINC40288951
REMARK  4 active torsions:
REMARK  status: ('A' for Active; 'I' for Inactive)
REMARK    1  A    between atoms: C_6  and  C_7
REMARK    2  A    between atoms: C_7  and  C_8
REMARK    3  A    between atoms: C_8  and  C_10
REMARK    4  A    between atoms: C_10  and  C_11
REMARK                            x       y       z     vdW  Elec       q    Type
REMARK                         _______ _______ _______ _____ _____    ______ ____
ROOT
ATOM      1  C   UNL     1      -1.745  -1.028  -1.429  0.00  0.00    +0.068 C 
ATOM      2 BR   UNL     1      -0.447  -2.201  -2.327  0.00  0.00    -0.087 Br
ENDROOT
BRANCH   1   3
ATOM      3  C   UNL     1      -1.293  -0.775   0.010  0.00  0.00    +0.050 C 
BRANCH   3   9
ATOM      4  C   UNL     1      -0.017   1.378   0.010  0.00  0.00    +0.005 A 
ATOM      5  C   UNL     1       1.171   2.086   0.002  0.00  0.00    +0.015 A 
ATOM      6  C   UNL     1       2.378   1.411  -0.013  0.00  0.00    +0.018 A 
ATOM      7  C   UNL     1       2.396   0.027  -0.021  0.00  0.00    +0.015 A 
ATOM      8  C   UNL     1       1.208  -0.679  -0.013  0.00  0.00    +0.005 A 
ATOM      9  C   UNL     1       0.002  -0.004   0.002  0.00  0.00    -0.046 A 
ATOM     10 BR   UNL     1       4.003   2.378  -0.024  0.00  0.00    -0.050 Br
ENDBRANCH   3   9
ENDBRANCH   1   3
BRANCH   1  11
ATOM     11  C   UNL     1      -3.119  -1.700  -1.422  0.00  0.00    +0.087 C 
BRANCH  11  12
ATOM     12  C   UNL     1      -3.619  -1.838  -2.837  0.00  0.00    +0.085 A 
ATOM     13  N   UNL     1      -4.341  -0.942  -3.489  0.00  0.00    -0.350 N 
ATOM     14  H   UNL     1      -4.638  -0.087  -3.140  0.00  0.00    +0.166 HD
ATOM     15  C   UNL     1      -4.593  -1.421  -4.725  0.00  0.00    +0.101 A 
ATOM     16  C   UNL     1      -4.008  -2.632  -4.814  0.00  0.00    +0.101 A 
ATOM     17  N   UNL     1      -3.403  -2.874  -3.632  0.00  0.00    -0.350 N 
ATOM     18  H   UNL     1      -2.898  -3.670  -3.404  0.00  0.00    +0.166 HD
ENDBRANCH  11  12
ENDBRANCH   1  11
TORSDOF 4
