REMARK  Name = ZINC09130332
REMARK  7 active torsions:
REMARK  status: ('A' for Active; 'I' for Inactive)
REMARK    1  A    between atoms: C_1  and  C_2
REMARK    2  A    between atoms: C_2  and  C_4
REMARK    3  A    between atoms: C_2  and  C_5
REMARK    4  A    between atoms: C_8  and  C_21
REMARK    5  A    between atoms: N_23  and  C_24
REMARK    6  A    between atoms: C_29  and  O_30
REMARK    7  A    between atoms: O_30  and  C_31
REMARK                            x       y       z     vdW  Elec       q    Type
REMARK                         _______ _______ _______ _____ _____    ______ ____
ROOT
ATOM      1  C   UNL     1       2.651   5.228  -0.453  0.00  0.00    -0.067 C 
ATOM      2  C   UNL     1       2.282   5.648   0.992  0.00  0.00    -0.003 C 
ATOM      3  C   UNL     1       1.407   4.470   1.483  0.00  0.00    +0.076 C 
ATOM      4  C   UNL     1       0.889   3.804   0.203  0.00  0.00    +0.049 C 
ATOM      5  C   UNL     1       1.308   2.361   0.136  0.00  0.00    -0.026 A 
ATOM      6  C   UNL     1       2.534   1.733   0.117  0.00  0.00    +0.024 A 
ATOM      7  C   UNL     1       2.603   0.352   0.049  0.00  0.00    +0.041 A 
ATOM      8  C   UNL     1       1.438  -0.394   0.001  0.00  0.00    +0.022 A 
ATOM      9  C   UNL     1       0.209   0.232   0.021  0.00  0.00    +0.025 A 
ATOM     10  C   UNL     1       0.131   1.621   0.088  0.00  0.00    +0.036 A 
ATOM     11  N   UNL     1      -0.975   2.473   0.124  0.00  0.00    -0.286 N 
ATOM     12  C   UNL     1      -0.617   3.769   0.185  0.00  0.00    +0.211 C 
ATOM     13  O   UNL     1      -1.364   4.724   0.223  0.00  0.00    -0.277 OA
ATOM     14 CL   UNL     1       4.146  -0.443   0.024  0.00  0.00    -0.084 Cl
ATOM     15  H   UNL     1      -1.895   2.166   0.105  0.00  0.00    +0.155 HD
ATOM     16  N   UNL     1       1.424   4.562  -0.919  0.00  0.00    +0.394 N 
ATOM     17  H   UNL     1       1.642   3.930  -1.699  0.00  0.00    -0.083 HD
ATOM     18  H   UNL     1       0.740   5.263  -1.228  0.00  0.00    -0.083 HD
ENDROOT
BRANCH   3  19
ATOM     19  C   UNL     1       2.236   3.497   2.281  0.00  0.00    +0.220 C 
ATOM     20  O   UNL     1       3.445   3.502   2.175  0.00  0.00    -0.275 OA
ATOM     21  N   UNL     1       1.636   2.622   3.112  0.00  0.00    -0.282 N 
ATOM     22  H   UNL     1       0.668   2.562   3.136  0.00  0.00    +0.155 HD
BRANCH  21  23
ATOM     23  C   UNL     1       2.410   1.800   3.942  0.00  0.00    +0.077 A 
ATOM     24  C   UNL     1       3.725   2.139   4.226  0.00  0.00    +0.047 A 
ATOM     25  C   UNL     1       4.486   1.326   5.045  0.00  0.00    +0.043 A 
ATOM     26  C   UNL     1       3.940   0.173   5.582  0.00  0.00    +0.024 A 
ATOM     27  C   UNL     1       2.630  -0.171   5.302  0.00  0.00    +0.049 A 
ATOM     28  C   UNL     1       1.859   0.642   4.487  0.00  0.00    +0.141 A 
ATOM     29 CL   UNL     1       6.131   1.751   5.401  0.00  0.00    -0.083 Cl
BRANCH  28  30
ATOM     30  O   UNL     1       0.569   0.308   4.216  0.00  0.00    -0.493 OA
ATOM     31  C   UNL     1       0.071  -0.892   4.810  0.00  0.00    +0.277 C 
ENDBRANCH  28  30
ENDBRANCH  21  23
ENDBRANCH   3  19
BRANCH   1  33
ATOM     32  C   UNL     1       3.225   6.021  -2.752  0.00  0.00    +0.005 C 
ATOM     33  C   UNL     1       2.978   6.455  -1.305  0.00  0.00    -0.031 C 
ATOM     34  C   UNL     1       4.233   7.137  -0.756  0.00  0.00    +0.005 C 
ENDBRANCH   1  33
TORSDOF 4
