REMARK  Name = ZINC49065182
REMARK  2 active torsions:
REMARK  status: ('A' for Active; 'I' for Inactive)
REMARK    1  A    between atoms: C_5  and  C_7
REMARK    2  A    between atoms: C_12  and  C_14
REMARK                            x       y       z     vdW  Elec       q    Type
REMARK                         _______ _______ _______ _____ _____    ______ ____
ROOT
ATOM      1  C   UNL     1       1.257  -2.150  -0.023  0.00  0.00    +0.044 C 
ATOM      2  C   UNL     1       0.084  -2.863   0.088  0.00  0.00    +0.152 C 
ATOM      3  C   UNL     1      -0.064  -4.327   0.205  0.00  0.00    +0.364 C 
ATOM      4  O   UNL     1       0.822  -5.160   0.224  0.00  0.00    -0.243 OA
ATOM      5  O   UNL     1      -1.395  -4.543   0.287  0.00  0.00    -0.402 OA
ATOM      6  C   UNL     1      -2.030  -3.357   0.230  0.00  0.00    +0.233 C 
ATOM      7  N   UNL     1      -1.187  -2.366   0.120  0.00  0.00    -0.205 NA
ENDROOT
BRANCH   1  12
ATOM      8  C   UNL     1       0.013   1.383  -0.108  0.00  0.00    +0.001 A 
ATOM      9  C   UNL     1       1.184   2.085   0.129  0.00  0.00    +0.001 A 
ATOM     10  C   UNL     1       2.378   1.411   0.316  0.00  0.00    +0.016 A 
ATOM     11  C   UNL     1       2.412   0.032   0.269  0.00  0.00    +0.025 A 
ATOM     12  C   UNL     1       1.232  -0.685   0.030  0.00  0.00    -0.009 A 
ATOM     13  C   UNL     1       0.028   0.007  -0.159  0.00  0.00    +0.009 A 
ATOM     14 BR   UNL     1       4.045  -0.886   0.524  0.00  0.00    -0.050 Br
ENDBRANCH   1  12
BRANCH   6  15
ATOM     15  C   UNL     1      -3.493  -3.197   0.290  0.00  0.00    +0.044 A 
ATOM     16  C   UNL     1      -4.372  -4.333   0.424  0.00  0.00    +0.021 A 
ATOM     17  C   UNL     1      -5.690  -4.052   0.468  0.00  0.00    +0.046 A 
ATOM     18  S   UNL     1      -5.729  -2.278   0.329  0.00  0.00    -0.104 S 
ATOM     19  C   UNL     1      -4.085  -1.956   0.226  0.00  0.00    +0.058 A 
ENDBRANCH   6  15
TORSDOF 2
