REMARK  Name = ZINC39898852
REMARK  12 active torsions:
REMARK  status: ('A' for Active; 'I' for Inactive)
REMARK    1  A    between atoms: C_1  and  C_2
REMARK    2  A    between atoms: C_2  and  C_3
REMARK    3  A    between atoms: C_3  and  C_4
REMARK    4  A    between atoms: C_4  and  O_5
REMARK    5  A    between atoms: O_5  and  C_6
REMARK    6  A    between atoms: C_9  and  C_14
REMARK    7  A    between atoms: C_11  and  O_12
REMARK    8  A    between atoms: O_12  and  C_13
REMARK    9  A    between atoms: C_17  and  C_32
REMARK   10  A    between atoms: N_24  and  C_25
REMARK   11  A    between atoms: C_25  and  C_26
REMARK   12  A    between atoms: C_37  and  O_38
REMARK                            x       y       z     vdW  Elec       q    Type
REMARK                         _______ _______ _______ _____ _____    ______ ____
ROOT
ATOM      1  C   UNL     1      -3.312  -8.020  -0.899  0.00  0.00    +0.142 C 
ATOM      2  C   UNL     1      -3.172  -8.321  -2.366  0.00  0.00    +0.035 A 
ATOM      3  C   UNL     1      -3.653  -8.117  -3.664  0.00  0.00    +0.102 A 
ATOM      4  N   UNL     1      -2.892  -8.816  -4.482  0.00  0.00    -0.173 NA
ATOM      5  N   UNL     1      -1.978  -9.442  -3.830  0.00  0.00    -0.272 N 
ATOM      6  H   UNL     1      -1.305 -10.017  -4.227  0.00  0.00    +0.189 HD
ATOM      7  C   UNL     1      -2.094  -9.176  -2.495  0.00  0.00    +0.126 A 
ATOM      8  C   UNL     1      -1.540  -9.433  -1.161  0.00  0.00    +0.266 C 
ATOM      9  O   UNL     1      -0.583 -10.148  -0.932  0.00  0.00    -0.268 OA
ATOM     10  N   UNL     1      -2.242  -8.765  -0.225  0.00  0.00    -0.281 N 
ENDROOT
BRANCH   3  11
ATOM     11  C   UNL     1      -4.809  -7.269  -4.048  0.00  0.00    +0.045 A 
ATOM     12  C   UNL     1      -5.606  -6.686  -3.067  0.00  0.00    +0.033 A 
ATOM     13  C   UNL     1      -6.681  -5.898  -3.429  0.00  0.00    +0.042 A 
ATOM     14  C   UNL     1      -6.969  -5.685  -4.767  0.00  0.00    +0.023 A 
ATOM     15  C   UNL     1      -6.183  -6.260  -5.749  0.00  0.00    +0.047 A 
ATOM     16  C   UNL     1      -5.099  -7.047  -5.398  0.00  0.00    +0.126 A 
ATOM     17 CL   UNL     1      -7.675  -5.173  -2.205  0.00  0.00    -0.084 Cl
BRANCH  16  18
ATOM     18  O   UNL     1      -4.323  -7.608  -6.362  0.00  0.00    -0.506 OA
ATOM     19  H   UNL     1      -4.619  -8.483  -6.646  0.00  0.00    +0.292 HD
ENDBRANCH  16  18
ENDBRANCH   3  11
BRANCH   1  23
ATOM     20  C   UNL     1      -2.852  -3.825  -0.205  0.00  0.00    +0.162 A 
ATOM     21  C   UNL     1      -4.088  -4.427  -0.035  0.00  0.00    +0.050 A 
ATOM     22  C   UNL     1      -4.234  -5.783  -0.261  0.00  0.00    +0.009 A 
ATOM     23  C   UNL     1      -3.148  -6.542  -0.655  0.00  0.00    -0.019 A 
ATOM     24  C   UNL     1      -1.911  -5.948  -0.826  0.00  0.00    +0.055 A 
ATOM     25  C   UNL     1      -1.760  -4.588  -0.608  0.00  0.00    +0.162 A 
BRANCH  25  26
ATOM     26  O   UNL     1      -0.545  -4.001  -0.781  0.00  0.00    -0.491 OA
ATOM     27  C   UNL     1       0.519  -4.836  -1.241  0.00  0.00    +0.277 C 
ENDBRANCH  25  26
BRANCH  20  28
ATOM     28  O   UNL     1      -2.707  -2.491   0.016  0.00  0.00    -0.488 OA
BRANCH  28  29
ATOM     29  C   UNL     1      -3.871  -1.771   0.427  0.00  0.00    +0.229 C 
BRANCH  29  30
ATOM     30  C   UNL     1      -3.515  -0.297   0.625  0.00  0.00    +0.041 C 
BRANCH  30  32
ATOM     31  C   UNL     1      -4.406   1.949   1.264  0.00  0.00    +0.004 C 
ATOM     32  C   UNL     1      -4.761   0.474   1.066  0.00  0.00    -0.000 C 
ENDBRANCH  30  32
ENDBRANCH  29  30
ENDBRANCH  28  29
ENDBRANCH  20  28
ENDBRANCH   1  23
BRANCH  10  33
ATOM     33  C   UNL     1      -1.982  -8.779   1.216  0.00  0.00    +0.144 C 
BRANCH  33  34
ATOM     34  C   UNL     1      -2.761  -9.899   1.857  0.00  0.00    -0.030 A 
ATOM     35  C   UNL     1      -4.044  -9.672   2.319  0.00  0.00    +0.005 A 
ATOM     36  C   UNL     1      -4.759 -10.699   2.906  0.00  0.00    +0.000 A 
ATOM     37  C   UNL     1      -4.191 -11.953   3.031  0.00  0.00    +0.000 A 
ATOM     38  C   UNL     1      -2.909 -12.180   2.568  0.00  0.00    +0.000 A 
ATOM     39  C   UNL     1      -2.195 -11.154   1.977  0.00  0.00    +0.005 A 
ENDBRANCH  33  34
ENDBRANCH  10  33
TORSDOF 10
