REMARK  Name = ZINC02199309
REMARK  10 active torsions:
REMARK  status: ('A' for Active; 'I' for Inactive)
REMARK    1  A    between atoms: C_1  and  C_2
REMARK    2  A    between atoms: C_2  and  N_3
REMARK    3  A    between atoms: N_3  and  C_4
REMARK    4  A    between atoms: N_3  and  C_6
REMARK    5  A    between atoms: C_4  and  C_5
REMARK    6  A    between atoms: C_9  and  C_12
REMARK    7  A    between atoms: C_20  and  O_34
REMARK    8  A    between atoms: N_23  and  C_24
REMARK    9  A    between atoms: C_24  and  C_25
REMARK   10  A    between atoms: N_27  and  C_28
REMARK                            x       y       z     vdW  Elec       q    Type
REMARK                         _______ _______ _______ _____ _____    ______ ____
ROOT
ATOM      1  C   UNL     1      -3.987  -1.516   4.932  0.00  0.00    -0.031 C 
ATOM      2  C   UNL     1      -4.923  -0.353   5.265  0.00  0.00    +0.011 C 
ATOM      3  C   UNL     1      -4.123   0.946   5.355  0.00  0.00    +0.005 C 
ATOM      4  C   UNL     1      -3.077   0.831   6.465  0.00  0.00    +0.000 C 
ATOM      5  C   UNL     1      -3.781   0.570   7.799  0.00  0.00    +0.003 C 
ATOM      6  C   UNL     1      -4.570  -0.737   7.710  0.00  0.00    +0.035 C 
ATOM      7  C   UNL     1      -5.612  -0.625   6.605  0.00  0.00    +0.066 C 
ATOM      8  C   UNL     1      -6.366  -1.956   6.510  0.00  0.00    +0.016 C 
ATOM      9  C   UNL     1      -5.380  -3.064   6.133  0.00  0.00    -0.075 C 
ATOM     10  N   UNL     1      -4.764  -2.759   4.837  0.00  0.00    +0.390 N 
ATOM     11  H   UNL     1      -5.485  -2.650   4.140  0.00  0.00    -0.080 HD
ENDROOT
BRANCH   1  15
ATOM     12  C   UNL     1      -2.045  -0.761   1.201  0.00  0.00    +0.030 A 
ATOM     13  C   UNL     1      -1.377  -0.518   2.395  0.00  0.00    +0.023 A 
ATOM     14  C   UNL     1      -2.008  -0.763   3.599  0.00  0.00    +0.004 A 
ATOM     15  C   UNL     1      -3.302  -1.250   3.617  0.00  0.00    -0.060 A 
ATOM     16  C   UNL     1      -3.970  -1.492   2.430  0.00  0.00    +0.004 A 
ATOM     17  C   UNL     1      -3.347  -1.244   1.223  0.00  0.00    +0.023 A 
BRANCH  12  18
ATOM     18  N   UNL     1      -1.410  -0.514  -0.018  0.00  0.00    -0.330 N 
BRANCH  18  20
ATOM     19  C   UNL     1      -0.060   1.525  -0.034  0.00  0.00    +0.024 C 
ATOM     20  C   UNL     1      -0.036  -0.005  -0.039  0.00  0.00    +0.102 C 
ENDBRANCH  18  20
BRANCH  18  21
ATOM     21  C   UNL     1      -2.117  -0.765  -1.277  0.00  0.00    +0.102 C 
ATOM     22  C   UNL     1      -1.862  -2.205  -1.727  0.00  0.00    +0.024 C 
ENDBRANCH  18  21
ENDBRANCH  12  18
ENDBRANCH   1  15
BRANCH   7  23
ATOM     23  O   UNL     1      -6.519   0.437   6.903  0.00  0.00    -0.388 OA
ATOM     24  H   UNL     1      -6.991   0.329   7.740  0.00  0.00    +0.210 HD
ENDBRANCH   7  23
BRANCH  10  25
ATOM     25  C   UNL     1      -3.874  -3.861   4.447  0.00  0.00    +0.020 C 
BRANCH  25  26
ATOM     26  C   UNL     1      -4.689  -5.110   4.229  0.00  0.00    +0.201 C 
ATOM     27  O   UNL     1      -5.892  -5.085   4.383  0.00  0.00    -0.278 OA
ATOM     28  N   UNL     1      -4.080  -6.256   3.863  0.00  0.00    -0.287 N 
ATOM     29  H   UNL     1      -3.129  -6.261   3.675  0.00  0.00    +0.155 HD
BRANCH  28  30
ATOM     30  C   UNL     1      -4.822  -7.438   3.755  0.00  0.00    +0.033 A 
ATOM     31  C   UNL     1      -4.249  -8.653   4.105  0.00  0.00    +0.023 A 
ATOM     32  C   UNL     1      -4.983  -9.818   3.997  0.00  0.00    +0.002 A 
ATOM     33  C   UNL     1      -6.287  -9.775   3.539  0.00  0.00    +0.000 A 
ATOM     34  C   UNL     1      -6.861  -8.566   3.189  0.00  0.00    +0.002 A 
ATOM     35  C   UNL     1      -6.134  -7.397   3.301  0.00  0.00    +0.023 A 
ENDBRANCH  28  30
ENDBRANCH  25  26
ENDBRANCH  10  25
TORSDOF 8
