REMARK  Name = ZINC02876848
REMARK  7 active torsions:
REMARK  status: ('A' for Active; 'I' for Inactive)
REMARK    1  A    between atoms: C_1  and  C_2
REMARK    2  A    between atoms: C_5  and  S_8
REMARK    3  A    between atoms: S_8  and  N_11
REMARK    4  A    between atoms: N_11  and  C_12
REMARK    5  A    between atoms: N_11  and  C_25
REMARK    6  A    between atoms: C_12  and  C_13
REMARK    7  A    between atoms: N_15  and  C_16
REMARK                            x       y       z     vdW  Elec       q    Type
REMARK                         _______ _______ _______ _____ _____    ______ ____
ROOT
ATOM      1  N   UNL     1       7.042  -3.333   3.677  0.00  0.00    -0.193 N 
ENDROOT
BRANCH   1   2
ATOM      2  C   UNL     1       7.472  -4.358   2.830  0.00  0.00    +0.071 A 
ATOM      3  C   UNL     1       8.830  -4.604   2.669  0.00  0.00    +0.046 A 
ATOM      4  C   UNL     1       9.252  -5.618   1.830  0.00  0.00    +0.043 A 
ATOM      5  C   UNL     1       8.324  -6.389   1.153  0.00  0.00    +0.021 A 
ATOM      6  C   UNL     1       6.972  -6.148   1.311  0.00  0.00    +0.023 A 
ATOM      7  C   UNL     1       6.543  -5.138   2.152  0.00  0.00    +0.064 A 
ATOM      8 CL   UNL     1       4.845  -4.840   2.356  0.00  0.00    -0.082 Cl
ATOM      9 CL   UNL     1      10.949  -5.926   1.628  0.00  0.00    -0.083 Cl
ENDBRANCH   1   2
BRANCH   1  10
ATOM     10  S   UNL     1       6.681  -3.663   5.259  0.00  0.00    +0.075 S 
ATOM     11  O   UNL     1       7.401  -4.839   5.604  0.00  0.00    -0.150 OA
ATOM     12  O   UNL     1       6.829  -2.443   5.972  0.00  0.00    -0.150 OA
BRANCH  10  17
ATOM     13  C   UNL     1       0.825  -5.099   5.492  0.00  0.00    +0.044 C 
ATOM     14  C   UNL     1       2.288  -4.740   5.434  0.00  0.00    -0.050 A 
ATOM     15  C   UNL     1       3.234  -5.727   5.229  0.00  0.00    +0.005 A 
ATOM     16  C   UNL     1       4.575  -5.398   5.176  0.00  0.00    +0.029 A 
ATOM     17  C   UNL     1       4.971  -4.082   5.327  0.00  0.00    +0.109 A 
ATOM     18  C   UNL     1       4.025  -3.096   5.536  0.00  0.00    +0.029 A 
ATOM     19  C   UNL     1       2.683  -3.424   5.585  0.00  0.00    +0.005 A 
ENDBRANCH  10  17
ENDBRANCH   1  10
BRANCH   1  20
ATOM     20  C   UNL     1       6.910  -1.967   3.165  0.00  0.00    +0.227 C 
BRANCH  20  21
ATOM     21  C   UNL     1       8.240  -1.266   3.257  0.00  0.00    +0.236 C 
ATOM     22  O   UNL     1       9.178  -1.812   3.799  0.00  0.00    -0.274 OA
ATOM     23  N   UNL     1       8.389  -0.031   2.737  0.00  0.00    -0.284 N 
ATOM     24  H   UNL     1       7.622   0.436   2.370  0.00  0.00    +0.155 HD
BRANCH  23  25
ATOM     25  C   UNL     1       9.650   0.578   2.726  0.00  0.00    +0.037 A 
ATOM     26  C   UNL     1      10.792  -0.195   2.564  0.00  0.00    +0.027 A 
ATOM     27  C   UNL     1      12.038   0.404   2.553  0.00  0.00    +0.051 A 
ATOM     28  C   UNL     1      12.150   1.776   2.702  0.00  0.00    +0.166 A 
ATOM     29  C   UNL     1      11.007   2.554   2.865  0.00  0.00    +0.168 A 
ATOM     30  C   UNL     1       9.759   1.953   2.876  0.00  0.00    +0.072 A 
ATOM     31  O   UNL     1      11.381   3.861   2.990  0.00  0.00    -0.453 OA
ATOM     32  C   UNL     1      12.732   3.923   2.494  0.00  0.00    +0.466 C 
ATOM     33  O   UNL     1      13.242   2.597   2.726  0.00  0.00    -0.453 OA
ENDBRANCH  23  25
ENDBRANCH  20  21
ENDBRANCH   1  20
TORSDOF 6
