REMARK  Name = ZINC05698717
REMARK  3 active torsions:
REMARK  status: ('A' for Active; 'I' for Inactive)
REMARK    1  A    between atoms: C_1  and  C_2
REMARK    2  A    between atoms: C_5  and  C_8
REMARK    3  A    between atoms: C_8  and  N_9
REMARK                            x       y       z     vdW  Elec       q    Type
REMARK                         _______ _______ _______ _____ _____    ______ ____
ROOT
ATOM      1  N   UNL     1      -0.306   5.222  -0.003  0.00  0.00    -0.262 N 
ATOM      2  C   UNL     1      -0.027   3.861   0.057  0.00  0.00    +0.045 A 
ATOM      3  C   UNL     1       1.177   3.166   0.087  0.00  0.00    +0.024 A 
ATOM      4  C   UNL     1       1.179   1.787   0.148  0.00  0.00    +0.002 A 
ATOM      5  C   UNL     1      -0.012   1.079   0.181  0.00  0.00    +0.001 A 
ATOM      6  C   UNL     1      -1.217   1.751   0.146  0.00  0.00    +0.010 A 
ATOM      7  C   UNL     1      -1.230   3.142   0.090  0.00  0.00    +0.010 A 
ATOM      8  C   UNL     1      -2.317   4.143   0.046  0.00  0.00    +0.065 C 
ATOM      9  C   UNL     1      -3.676   3.907   0.059  0.00  0.00    +0.092 C 
ATOM     10  C   UNL     1      -4.418   2.620  -0.041  0.00  0.00    +0.258 C 
ATOM     11  O   UNL     1      -3.843   1.555  -0.153  0.00  0.00    -0.269 OA
ATOM     12  N   UNL     1      -5.738   2.700  -0.001  0.00  0.00    -0.243 N 
ATOM     13  C   UNL     1      -6.371   3.884   0.123  0.00  0.00    +0.283 C 
ATOM     14  O   UNL     1      -7.566   4.097   0.172  0.00  0.00    -0.262 OA
ATOM     15  S   UNL     1      -5.032   5.062   0.206  0.00  0.00    -0.025 S 
ATOM     16  C   UNL     1      -1.630   5.451  -0.012  0.00  0.00    +0.253 C 
ATOM     17  O   UNL     1      -2.169   6.540  -0.060  0.00  0.00    -0.270 OA
ATOM     18  H   UNL     1      -6.263   1.887  -0.063  0.00  0.00    +0.159 HD
ENDROOT
BRANCH   1  19
ATOM     19  C   UNL     1       0.714   6.273  -0.052  0.00  0.00    +0.149 C 
BRANCH  19  24
ATOM     20  C   UNL     1       2.048   7.413  -5.557  0.00  0.00    +0.044 C 
ATOM     21  C   UNL     1       1.700   7.116  -4.122  0.00  0.00    -0.050 A 
ATOM     22  C   UNL     1       0.680   7.811  -3.499  0.00  0.00    +0.003 A 
ATOM     23  C   UNL     1       0.361   7.539  -2.182  0.00  0.00    +0.005 A 
ATOM     24  C   UNL     1       1.061   6.570  -1.488  0.00  0.00    -0.030 A 
ATOM     25  C   UNL     1       2.084   5.878  -2.108  0.00  0.00    +0.005 A 
ATOM     26  C   UNL     1       2.401   6.148  -3.427  0.00  0.00    +0.003 A 
ENDBRANCH  19  24
ENDBRANCH   1  19
TORSDOF 2
