REMARK  Name = ZINC40679362
REMARK  5 active torsions:
REMARK  status: ('A' for Active; 'I' for Inactive)
REMARK    1  A    between atoms: C_1  and  N_2
REMARK    2  A    between atoms: N_2  and  C_3
REMARK    3  A    between atoms: C_3  and  C_4
REMARK    4  A    between atoms: C_11  and  N_25
REMARK    5  A    between atoms: C_12  and  N_16
REMARK                            x       y       z     vdW  Elec       q    Type
REMARK                         _______ _______ _______ _____ _____    ______ ____
ROOT
ATOM      1  C   UNL     1      -1.249   0.092   0.803  0.00  0.00    +0.131 C 
ATOM      2  N   UNL     1       0.016  -0.216   0.131  0.00  0.00    -0.312 N 
ATOM      3  C   UNL     1       0.010  -0.886  -1.085  0.00  0.00    +0.148 A 
ATOM      4  C   UNL     1       0.060  -0.175  -2.289  0.00  0.00    +0.110 A 
ATOM      5  C   UNL     1       0.053  -0.897  -3.481  0.00  0.00    +0.182 A 
ATOM      6  N   UNL     1      -0.001  -2.225  -3.430  0.00  0.00    -0.215 NA
ATOM      7  C   UNL     1      -0.047  -2.858  -2.276  0.00  0.00    +0.225 A 
ATOM      8  N   UNL     1      -0.037  -2.215  -1.125  0.00  0.00    -0.219 NA
ENDROOT
BRANCH   5   9
ATOM      9  N   UNL     1       0.101  -0.236  -4.710  0.00  0.00    -0.192 N 
ATOM     10  C   UNL     1       0.204  -0.818  -5.955  0.00  0.00    +0.096 A 
ATOM     11  C   UNL     1       0.292  -2.131  -6.403  0.00  0.00    +0.030 A 
ATOM     12  C   UNL     1       0.388  -2.386  -7.752  0.00  0.00    +0.002 A 
ATOM     13  C   UNL     1       0.399  -1.341  -8.667  0.00  0.00    +0.002 A 
ATOM     14  C   UNL     1       0.315  -0.046  -8.248  0.00  0.00    +0.032 A 
ATOM     15  C   UNL     1       0.215   0.240  -6.880  0.00  0.00    +0.113 A 
ATOM     16  N   UNL     1       0.119   1.396  -6.181  0.00  0.00    -0.129 NA
ATOM     17  N   UNL     1       0.046   1.150  -4.920  0.00  0.00    -0.058 NA
ENDBRANCH   5   9
BRANCH   4  18
ATOM     18  N   UNL     1       0.116   1.226  -2.295  0.00  0.00    -0.352 N 
ATOM     19  H   UNL     1       0.199   1.712  -1.460  0.00  0.00    +0.143 HD
ATOM     20  H   UNL     1       0.071   1.709  -3.135  0.00  0.00    +0.143 HD
ENDBRANCH   4  18
BRANCH   2  21
ATOM     21  C   UNL     1       1.286   0.181   0.743  0.00  0.00    +0.141 C 
BRANCH  21  22
ATOM     22  C   UNL     1       1.782  -0.926   1.637  0.00  0.00    -0.030 A 
ATOM     23  C   UNL     1       1.410  -0.958   2.968  0.00  0.00    +0.005 A 
ATOM     24  C   UNL     1       1.865  -1.973   3.788  0.00  0.00    +0.000 A 
ATOM     25  C   UNL     1       2.691  -2.957   3.277  0.00  0.00    +0.000 A 
ATOM     26  C   UNL     1       3.061  -2.926   1.946  0.00  0.00    +0.000 A 
ATOM     27  C   UNL     1       2.603  -1.913   1.125  0.00  0.00    +0.005 A 
ENDBRANCH  21  22
ENDBRANCH   2  21
TORSDOF 4
