REMARK  Name = ZINC66904850
REMARK  9 active torsions:
REMARK  status: ('A' for Active; 'I' for Inactive)
REMARK    1  A    between atoms: C_1  and  C_2
REMARK    2  A    between atoms: N_5  and  C_8
REMARK    3  A    between atoms: C_8  and  C_9
REMARK    4  A    between atoms: C_9  and  C_11
REMARK    5  A    between atoms: C_9  and  O_28
REMARK    6  A    between atoms: C_11  and  N_12
REMARK    7  A    between atoms: C_15  and  N_18
REMARK    8  A    between atoms: C_19  and  C_21
REMARK    9  A    between atoms: C_21  and  C_22
REMARK                            x       y       z     vdW  Elec       q    Type
REMARK                         _______ _______ _______ _____ _____    ______ ____
ROOT
ATOM      1  N   UNL     1       0.631  -6.350   4.011  0.00  0.00    -0.300 NA
ATOM      2  C   UNL     1      -0.241  -5.998   5.138  0.00  0.00    +0.086 C 
ATOM      3  C   UNL     1       0.468  -6.326   6.455  0.00  0.00    +0.037 C 
ATOM      4  C   UNL     1       0.802  -7.820   6.490  0.00  0.00    +0.075 C 
ATOM      5  C   UNL     1       1.671  -8.169   5.279  0.00  0.00    +0.037 C 
ATOM      6  C   UNL     1       0.928  -7.788   3.997  0.00  0.00    +0.086 C 
ENDROOT
BRANCH   4   7
ATOM      7  N   UNL     1       1.533  -8.128   7.722  0.00  0.00    -0.312 N 
ATOM      8  C   UNL     1       1.500  -9.376   8.230  0.00  0.00    +0.214 C 
ATOM      9  O   UNL     1       0.867 -10.244   7.668  0.00  0.00    -0.276 OA
ATOM     10  H   UNL     1       2.040  -7.434   8.172  0.00  0.00    +0.149 HD
BRANCH   8  11
ATOM     11  C   UNL     1       2.252  -9.694   9.498  0.00  0.00    +0.099 C 
BRANCH  11  12
ATOM     12  C   UNL     1       2.051 -11.168   9.854  0.00  0.00    -0.002 C 
ATOM     13  C   UNL     1       0.578 -11.416  10.184  0.00  0.00    +0.004 C 
ATOM     14  C   UNL     1       0.377 -12.891  10.540  0.00  0.00    +0.000 C 
ATOM     15  C   UNL     1       1.238 -13.244  11.755  0.00  0.00    +0.000 C 
ATOM     16  C   UNL     1       2.711 -12.995  11.425  0.00  0.00    +0.000 C 
ATOM     17  C   UNL     1       2.912 -11.521  11.068  0.00  0.00    +0.004 C 
ENDBRANCH  11  12
ENDBRANCH   8  11
ENDBRANCH   4   7
BRANCH   1  18
ATOM     18  C   UNL     1       0.041  -5.922   2.735  0.00  0.00    +0.113 C 
BRANCH  18  19
ATOM     19  C   UNL     1      -0.023  -4.394   2.690  0.00  0.00    +0.112 C 
BRANCH  19  20
ATOM     20  O   UNL     1       1.303  -3.862   2.691  0.00  0.00    -0.392 OA
ATOM     21  H   UNL     1       1.841  -4.147   1.940  0.00  0.00    +0.210 HD
ENDBRANCH  19  20
BRANCH  19  22
ATOM     22  C   UNL     1      -0.750  -3.952   1.419  0.00  0.00    -0.046 C 
BRANCH  22  27
ATOM     23  C   UNL     1      -2.158   1.567   1.124  0.00  0.00    +0.007 C 
ATOM     24  C   UNL     1      -2.222   0.038   1.151  0.00  0.00    -0.018 C 
ATOM     25  C   UNL     1      -1.674  -0.474   2.486  0.00  0.00    -0.016 C 
ATOM     26  C   UNL     1      -1.667  -2.004   2.474  0.00  0.00    -0.078 C 
ATOM     27  N   UNL     1      -0.817  -2.485   1.378  0.00  0.00    +0.381 N 
ATOM     28  C   UNL     1      -1.376  -2.057   0.090  0.00  0.00    -0.078 C 
ATOM     29  C   UNL     1      -1.372  -0.529   0.010  0.00  0.00    -0.016 C 
ATOM     30  H   UNL     1       0.112  -2.105   1.483  0.00  0.00    -0.082 HD
ENDBRANCH  22  27
ENDBRANCH  19  22
ENDBRANCH  18  19
ENDBRANCH   1  18
TORSDOF 8
