REMARK  Name = ZINC24792369
REMARK  13 active torsions:
REMARK  status: ('A' for Active; 'I' for Inactive)
REMARK    1  A    between atoms: C_1  and  C_2
REMARK    2  A    between atoms: C_2  and  C_3
REMARK    3  A    between atoms: C_2  and  C_4
REMARK    4  A    between atoms: C_4  and  C_6
REMARK    5  A    between atoms: C_4  and  N_17
REMARK    6  A    between atoms: C_18  and  C_20
REMARK    7  A    between atoms: C_20  and  N_21
REMARK    8  A    between atoms: N_21  and  C_22
REMARK    9  A    between atoms: N_21  and  C_23
REMARK   10  A    between atoms: C_23  and  C_24
REMARK   11  A    between atoms: N_26  and  C_27
REMARK   12  A    between atoms: C_32  and  O_33
REMARK   13  A    between atoms: O_33  and  C_34
REMARK                            x       y       z     vdW  Elec       q    Type
REMARK                         _______ _______ _______ _____ _____    ______ ____
ROOT
ATOM      1  N   UNL     1       5.184  10.621   0.095  0.00  0.00    -0.310 N 
ATOM      2  C   UNL     1       4.209   9.699  -0.032  0.00  0.00    +0.197 C 
ATOM      3  O   UNL     1       3.045  10.041  -0.022  0.00  0.00    -0.278 OA
ATOM      4  H   UNL     1       6.239  10.311   0.085  0.00  0.00    +0.149 HD
ENDROOT
BRANCH   1   5
ATOM      5  C   UNL     1       4.838  12.037   0.244  0.00  0.00    +0.106 C 
BRANCH   5   6
ATOM      6  C   UNL     1       5.956  12.755   0.955  0.00  0.00    -0.023 A 
ATOM      7  C   UNL     1       7.271  12.449   0.656  0.00  0.00    +0.009 A 
ATOM      8  C   UNL     1       8.302  13.104   1.306  0.00  0.00    +0.050 A 
ATOM      9  C   UNL     1       8.013  14.067   2.257  0.00  0.00    +0.162 A 
ATOM     10  C   UNL     1       6.693  14.374   2.556  0.00  0.00    +0.162 A 
ATOM     11  C   UNL     1       5.663  13.721   1.900  0.00  0.00    +0.055 A 
ATOM     12  O   UNL     1       6.418  15.325   3.495  0.00  0.00    -0.488 OA
ATOM     13  C   UNL     1       6.761  16.668   3.144  0.00  0.00    +0.232 C 
ATOM     14  C   UNL     1       8.224  16.948   3.450  0.00  0.00    +0.082 C 
ATOM     15  C   UNL     1       9.164  16.108   2.600  0.00  0.00    +0.232 C 
ATOM     16  O   UNL     1       9.021  14.720   2.906  0.00  0.00    -0.488 OA
ENDBRANCH   5   6
BRANCH   5  18
ATOM     17  C   UNL     1       3.495  11.931  -1.860  0.00  0.00    +0.009 C 
ATOM     18  C   UNL     1       4.630  12.659  -1.138  0.00  0.00    +0.008 C 
ATOM     19  C   UNL     1       4.269  14.138  -0.982  0.00  0.00    +0.009 C 
ENDBRANCH   5  18
ENDBRANCH   1   5
BRANCH   2  20
ATOM     20  C   UNL     1       4.565   8.243  -0.185  0.00  0.00    +0.019 C 
BRANCH  20  21
ATOM     21  N   UNL     1       3.335   7.448  -0.303  0.00  0.00    +0.389 N 
ATOM     22  C   UNL     1       2.620   7.766  -1.547  0.00  0.00    -0.095 C 
ATOM     23  H   UNL     1       2.680   7.712   0.540  0.00  0.00    -0.081 HD
BRANCH  21  24
ATOM     24  C   UNL     1       3.626   6.011  -0.216  0.00  0.00    +0.019 C 
BRANCH  24  25
ATOM     25  C   UNL     1       2.335   5.243  -0.094  0.00  0.00    +0.201 C 
ATOM     26  O   UNL     1       1.277   5.835  -0.081  0.00  0.00    -0.278 OA
ATOM     27  N   UNL     1       2.357   3.899   0.000  0.00  0.00    -0.284 N 
ATOM     28  H   UNL     1       3.318   3.367   0.062  0.00  0.00    +0.155 HD
BRANCH  27  29
ATOM     29  C   UNL     1       1.156   3.178   0.020  0.00  0.00    +0.077 A 
ATOM     30  C   UNL     1       0.035   3.712   0.638  0.00  0.00    +0.047 A 
ATOM     31  C   UNL     1      -1.150   2.999   0.655  0.00  0.00    +0.043 A 
ATOM     32  C   UNL     1      -1.222   1.756   0.052  0.00  0.00    +0.024 A 
ATOM     33  C   UNL     1      -0.107   1.216  -0.560  0.00  0.00    +0.049 A 
ATOM     34  C   UNL     1       1.084   1.924  -0.582  0.00  0.00    +0.141 A 
ATOM     35 CL   UNL     1      -2.553   3.668   1.429  0.00  0.00    -0.083 Cl
BRANCH  34  36
ATOM     36  O   UNL     1       2.180   1.396  -1.190  0.00  0.00    -0.493 OA
ATOM     37  C   UNL     1       2.033   0.106  -1.786  0.00  0.00    +0.277 C 
ENDBRANCH  34  36
ENDBRANCH  27  29
ENDBRANCH  24  25
ENDBRANCH  21  24
ENDBRANCH  20  21
ENDBRANCH   2  20
TORSDOF 9
