REMARK  Name = ZINC63731604
REMARK  9 active torsions:
REMARK  status: ('A' for Active; 'I' for Inactive)
REMARK    1  A    between atoms: C_1  and  C_2
REMARK    2  A    between atoms: C_2  and  C_3
REMARK    3  A    between atoms: C_6  and  N_9
REMARK    4  A    between atoms: C_10  and  S_21
REMARK    5  A    between atoms: C_15  and  C_18
REMARK    6  A    between atoms: S_21  and  C_22
REMARK    7  A    between atoms: C_22  and  C_23
REMARK    8  A    between atoms: N_25  and  C_26
REMARK    9  A    between atoms: C_30  and  C_32
REMARK                            x       y       z     vdW  Elec       q    Type
REMARK                         _______ _______ _______ _____ _____    ______ ____
ROOT
ATOM      1  N   UNL     1       2.625  -1.849  -4.648  0.00  0.00    -0.253 N 
ATOM      2  C   UNL     1       4.084  -1.979  -4.678  0.00  0.00    +0.260 C 
ATOM      3  N   UNL     1       4.683  -1.349  -5.859  0.00  0.00    -0.230 NA
ATOM      4  C   UNL     1       4.011  -1.257  -6.961  0.00  0.00    +0.185 C 
ATOM      5  C   UNL     1       2.571  -1.680  -7.029  0.00  0.00    +0.083 C 
ATOM      6  C   UNL     1       2.197  -1.462  -8.294  0.00  0.00    +0.075 C 
ATOM      7  N   UNL     1       3.249  -0.937  -8.957  0.00  0.00    -0.152 NA
ATOM      8  N   UNL     1       4.290  -0.801  -8.207  0.00  0.00    -0.129 NA
ATOM      9  C   UNL     1       0.838  -1.752  -8.878  0.00  0.00    +0.068 C 
ATOM     10  C   UNL     1       1.904  -2.188  -5.808  0.00  0.00    +0.133 C 
ATOM     11  N   UNL     1       0.787  -2.863  -5.805  0.00  0.00    -0.285 NA
ATOM     12  H   UNL     1       0.339  -3.063  -6.641  0.00  0.00    +0.188 HD
ENDROOT
BRANCH   1  16
ATOM     13  C   UNL     1       0.663  -0.530  -1.219  0.00  0.00    -0.048 A 
ATOM     14  C   UNL     1      -0.051  -0.744  -2.383  0.00  0.00    +0.005 A 
ATOM     15  C   UNL     1       0.596  -1.181  -3.522  0.00  0.00    +0.024 A 
ATOM     16  C   UNL     1       1.966  -1.406  -3.497  0.00  0.00    +0.038 A 
ATOM     17  C   UNL     1       2.681  -1.190  -2.326  0.00  0.00    +0.024 A 
ATOM     18  C   UNL     1       2.029  -0.748  -1.192  0.00  0.00    +0.005 A 
BRANCH  13  20
ATOM     19  C   UNL     1      -0.060   1.477   0.045  0.00  0.00    +0.009 C 
ATOM     20  C   UNL     1      -0.046  -0.053   0.022  0.00  0.00    +0.032 C 
ENDBRANCH  13  20
ENDBRANCH   1  16
BRANCH   2  21
ATOM     21  S   UNL     1       4.516  -3.741  -4.673  0.00  0.00    -0.106 S 
BRANCH  21  22
ATOM     22  C   UNL     1       3.734  -4.388  -6.177  0.00  0.00    +0.168 C 
BRANCH  22  23
ATOM     23  C   UNL     1       4.019  -5.863  -6.296  0.00  0.00    +0.227 C 
ATOM     24  O   UNL     1       4.684  -6.423  -5.450  0.00  0.00    -0.275 OA
ATOM     25  N   UNL     1       3.534  -6.561  -7.342  0.00  0.00    -0.285 N 
ATOM     26  H   UNL     1       3.071  -6.100  -8.059  0.00  0.00    +0.155 HD
BRANCH  25  27
ATOM     27  C   UNL     1       3.701  -7.949  -7.395  0.00  0.00    +0.034 A 
ATOM     28  C   UNL     1       3.904  -8.580  -8.615  0.00  0.00    +0.023 A 
ATOM     29  C   UNL     1       4.068  -9.950  -8.664  0.00  0.00    +0.002 A 
ATOM     30  C   UNL     1       4.028 -10.695  -7.498  0.00  0.00    +0.003 A 
ATOM     31  C   UNL     1       3.825 -10.070  -6.282  0.00  0.00    -0.049 A 
ATOM     32  C   UNL     1       3.668  -8.698  -6.226  0.00  0.00    +0.026 A 
ATOM     33  C   UNL     1       3.783 -10.884  -5.015  0.00  0.00    +0.044 C 
ENDBRANCH  25  27
ENDBRANCH  22  23
ENDBRANCH  21  22
ENDBRANCH   2  21
TORSDOF 6
