REMARK  Name = ZINC34836891
REMARK  14 active torsions:
REMARK  status: ('A' for Active; 'I' for Inactive)
REMARK    1  A    between atoms: C_1  and  C_2
REMARK    2  A    between atoms: C_2  and  C_3
REMARK    3  A    between atoms: C_3  and  N_4
REMARK    4  A    between atoms: N_4  and  C_5
REMARK    5  A    between atoms: N_4  and  C_27
REMARK    6  A    between atoms: C_5  and  C_6
REMARK    7  A    between atoms: C_7  and  C_25
REMARK    8  A    between atoms: N_9  and  C_19
REMARK    9  A    between atoms: C_10  and  N_11
REMARK   10  A    between atoms: N_14  and  C_17
REMARK   11  A    between atoms: C_17  and  C_18
REMARK   12  A    between atoms: C_25  and  C_26
REMARK   13  A    between atoms: C_27  and  C_28
REMARK   14  A    between atoms: C_29  and  C_33
REMARK                            x       y       z     vdW  Elec       q    Type
REMARK                         _______ _______ _______ _____ _____    ______ ____
ROOT
ATOM      1  C   UNL     1       2.846  -2.206  -1.880  0.00  0.00    -0.001 A 
ATOM      2  C   UNL     1       3.142  -0.854  -1.681  0.00  0.00    +0.066 A 
ATOM      3  N   UNL     1       4.356  -0.761  -1.203  0.00  0.00    -0.169 NA
ATOM      4  N   UNL     1       4.883  -2.053  -1.077  0.00  0.00    -0.218 N 
ATOM      5  C   UNL     1       3.933  -2.932  -1.496  0.00  0.00    +0.126 A 
ENDROOT
BRANCH   5   6
ATOM      6  N   UNL     1       4.050  -4.318  -1.528  0.00  0.00    -0.318 N 
ATOM      7  C   UNL     1       3.513  -5.149  -0.439  0.00  0.00    +0.088 C 
ATOM      8  C   UNL     1       2.649  -6.255  -1.052  0.00  0.00    -0.060 C 
ATOM      9  N   UNL     1       3.436  -6.995  -2.047  0.00  0.00    +0.382 N 
ATOM     10  C   UNL     1       3.793  -6.109  -3.162  0.00  0.00    -0.060 C 
ATOM     11  C   UNL     1       4.709  -4.995  -2.656  0.00  0.00    +0.088 C 
ATOM     12  H   UNL     1       4.278  -7.346  -1.615  0.00  0.00    -0.082 HD
BRANCH   9  13
ATOM     13  C   UNL     1       2.644  -8.123  -2.555  0.00  0.00    -0.082 C 
ATOM     14  C   UNL     1       3.504  -8.967  -3.497  0.00  0.00    -0.017 C 
ENDBRANCH   9  13
ENDBRANCH   5   6
BRANCH   4  15
ATOM     15  C   UNL     1       6.160  -2.381  -0.601  0.00  0.00    +0.067 A 
ATOM     16  C   UNL     1       6.325  -3.457   0.261  0.00  0.00    +0.028 A 
ATOM     17  C   UNL     1       7.584  -3.779   0.729  0.00  0.00    +0.002 A 
ATOM     18  C   UNL     1       8.680  -3.030   0.340  0.00  0.00    +0.000 A 
ATOM     19  C   UNL     1       8.518  -1.958  -0.518  0.00  0.00    +0.002 A 
ATOM     20  C   UNL     1       7.263  -1.635  -0.994  0.00  0.00    +0.028 A 
ENDBRANCH   4  15
BRANCH   2  21
ATOM     21  C   UNL     1       2.218   0.301  -1.970  0.00  0.00    +0.054 C 
ATOM     22  C   UNL     1       1.488   0.703  -0.688  0.00  0.00    +0.010 C 
ENDBRANCH   2  21
BRANCH   1  23
ATOM     23  C   UNL     1       1.553  -2.762  -2.418  0.00  0.00    -0.037 C 
BRANCH  23  24
ATOM     24  N   UNL     1       1.335  -2.261  -3.782  0.00  0.00    +0.386 N 
ATOM     25  H   UNL     1       1.408  -1.254  -3.786  0.00  0.00    -0.081 HD
BRANCH  24  26
ATOM     26  C   UNL     1       2.348  -2.829  -4.681  0.00  0.00    -0.078 C 
BRANCH  26  28
ATOM     27  C   UNL     1       4.693  -2.588  -5.509  0.00  0.00    +0.002 C 
ATOM     28  C   UNL     1       3.684  -2.118  -4.459  0.00  0.00    -0.022 C 
ENDBRANCH  26  28
ENDBRANCH  24  26
BRANCH  24  29
ATOM     29  C   UNL     1      -0.004  -2.656  -4.240  0.00  0.00    -0.035 C 
BRANCH  29  30
ATOM     30  C   UNL     1      -0.284  -2.021  -5.578  0.00  0.00    -0.024 A 
ATOM     31  C   UNL     1      -0.155  -2.552  -6.818  0.00  0.00    -0.042 A 
ATOM     32  C   UNL     1      -0.475  -1.776  -7.916  0.00  0.00    +0.011 A 
ATOM     33  C   UNL     1      -0.909  -0.507  -7.720  0.00  0.00    +0.045 A 
ATOM     34  S   UNL     1      -0.881  -0.378  -5.940  0.00  0.00    -0.103 S 
ATOM     35  C   UNL     1       0.331  -3.967  -6.998  0.00  0.00    +0.044 C 
ENDBRANCH  29  30
ENDBRANCH  24  29
ENDBRANCH  23  24
ENDBRANCH   1  23
TORSDOF 10
