REMARK  Name = ZINC02663955
REMARK  6 active torsions:
REMARK  status: ('A' for Active; 'I' for Inactive)
REMARK    1  A    between atoms: C_9  and  C_10
REMARK    2  A    between atoms: C_9  and  C_12
REMARK    3  A    between atoms: C_12  and  C_14
REMARK    4  A    between atoms: C_14  and  O_15
REMARK    5  A    between atoms: O_15  and  C_16
REMARK    6  A    between atoms: C_16  and  C_18
REMARK                            x       y       z     vdW  Elec       q    Type
REMARK                         _______ _______ _______ _____ _____    ______ ____
ROOT
ATOM      1  C   UNL     1       2.430   4.196   0.001  0.00  0.00    +0.214 C 
ATOM      2  O   UNL     1       3.404   3.468  -0.012  0.00  0.00    -0.288 OA
ENDROOT
BRANCH   1  11
ATOM      3  C   UNL     1       7.759   8.563  -0.024  0.00  0.00    +0.002 A 
ATOM      4  C   UNL     1       8.305   7.291  -0.035  0.00  0.00    +0.002 A 
ATOM      5  C   UNL     1       7.485   6.180  -0.034  0.00  0.00    +0.025 A 
ATOM      6  C   UNL     1       6.106   6.339  -0.021  0.00  0.00    +0.054 A 
ATOM      7  C   UNL     1       5.555   7.623  -0.009  0.00  0.00    +0.054 A 
ATOM      8  C   UNL     1       6.389   8.732  -0.011  0.00  0.00    +0.025 A 
ATOM      9  N   UNL     1       4.173   7.474   0.002  0.00  0.00    -0.300 N 
ATOM     10  C   UNL     1       3.887   6.146  -0.002  0.00  0.00    +0.114 C 
ATOM     11  C   UNL     1       2.595   5.591   0.007  0.00  0.00    +0.133 C 
ATOM     12  N   UNL     1       5.047   5.439  -0.011  0.00  0.00    -0.300 N 
ATOM     13  H   UNL     1       3.524   8.195   0.012  0.00  0.00    +0.153 HD
ATOM     14  H   UNL     1       5.123   4.472  -0.012  0.00  0.00    +0.153 HD
BRANCH  11  15
ATOM     15  C   UNL     1       1.448   6.448   0.023  0.00  0.00    +0.106 C 
ATOM     16  N   UNL     1       0.538   7.127   0.035  0.00  0.00    -0.191 NA
ENDBRANCH  11  15
ENDBRANCH   1  11
BRANCH   1  17
ATOM     17  C   UNL     1       1.045   3.601   0.011  0.00  0.00    +0.312 C 
BRANCH  17  18
ATOM     18  O   UNL     1       1.141   2.152   0.003  0.00  0.00    -0.453 OA
BRANCH  18  19
ATOM     19  C   UNL     1      -0.018   1.462   0.010  0.00  0.00    +0.348 C 
ATOM     20  O   UNL     1      -1.079   2.055   0.018  0.00  0.00    -0.244 OA
BRANCH  19  21
ATOM     21  C   UNL     1       0.002  -0.004   0.002  0.00  0.00    +0.116 A 
ATOM     22  C   UNL     1      -1.051  -0.867   0.013  0.00  0.00    +0.070 A 
ATOM     23  C   UNL     1      -0.820  -2.255  -0.001  0.00  0.00    +0.009 A 
ATOM     24  C   UNL     1      -1.776  -3.304   0.002  0.00  0.00    +0.013 A 
ATOM     25  C   UNL     1      -1.383  -4.603  -0.009  0.00  0.00    +0.039 A 
ATOM     26  C   UNL     1      -0.036  -4.957  -0.023  0.00  0.00    +0.124 A 
ATOM     27  C   UNL     1       0.927  -3.966  -0.026  0.00  0.00    +0.054 A 
ATOM     28  C   UNL     1       0.541  -2.643  -0.016  0.00  0.00    +0.024 A 
ATOM     29  S   UNL     1       1.413  -1.097  -0.017  0.00  0.00    -0.080 S 
ATOM     30  F   UNL     1       0.325  -6.259  -0.034  0.00  0.00    -0.205 F 
ATOM     31 CL   UNL     1      -2.676  -0.256   0.040  0.00  0.00    -0.082 Cl
ENDBRANCH  19  21
ENDBRANCH  18  19
ENDBRANCH  17  18
ENDBRANCH   1  17
TORSDOF 6
