REMARK  Name = ZINC09439037
REMARK  6 active torsions:
REMARK  status: ('A' for Active; 'I' for Inactive)
REMARK    1  A    between atoms: C_1  and  C_2
REMARK    2  A    between atoms: C_5  and  C_29
REMARK    3  A    between atoms: C_8  and  C_10
REMARK    4  A    between atoms: C_11  and  C_23
REMARK    5  A    between atoms: C_34  and  O_35
REMARK    6  A    between atoms: O_35  and  C_36
REMARK                            x       y       z     vdW  Elec       q    Type
REMARK                         _______ _______ _______ _____ _____    ______ ____
ROOT
ATOM      1  C   UNL     1      -4.796  -0.533   0.013  0.00  0.00    +0.070 A 
ATOM      2  C   UNL     1      -5.461  -0.337   1.226  0.00  0.00    +0.005 A 
ATOM      3  C   UNL     1      -6.923  -0.190   1.202  0.00  0.00    +0.008 A 
ATOM      4  C   UNL     1      -7.637   0.010   2.388  0.00  0.00    +0.030 A 
ATOM      5  C   UNL     1      -9.007   0.146   2.346  0.00  0.00    +0.042 A 
ATOM      6  C   UNL     1      -9.680   0.086   1.133  0.00  0.00    +0.022 A 
ATOM      7  C   UNL     1      -8.991  -0.110  -0.044  0.00  0.00    +0.028 A 
ATOM      8  C   UNL     1      -7.606  -0.249  -0.026  0.00  0.00    +0.050 A 
ATOM      9  N   UNL     1      -6.913  -0.445  -1.204  0.00  0.00    -0.322 N 
ATOM     10  H   UNL     1      -7.405  -0.482  -2.040  0.00  0.00    +0.169 HD
ATOM     11  C   UNL     1      -5.577  -0.579  -1.226  0.00  0.00    +0.259 A 
ATOM     12  O   UNL     1      -5.006  -0.745  -2.289  0.00  0.00    -0.267 OA
ATOM     13 CL   UNL     1      -9.896   0.393   3.817  0.00  0.00    -0.084 Cl
ENDROOT
BRANCH   1  20
ATOM     14  C   UNL     1      -0.267   2.147   0.406  0.00  0.00    +0.111 C 
ATOM     15  C   UNL     1      -0.079   0.671   0.169  0.00  0.00    +0.232 C 
ATOM     16  O   UNL     1       1.039   0.207   0.085  0.00  0.00    -0.274 OA
ATOM     17  N   UNL     1      -1.153  -0.135   0.051  0.00  0.00    -0.185 N 
ATOM     18  C   UNL     1      -1.112  -1.588  -0.174  0.00  0.00    +0.140 C 
ATOM     19  C   UNL     1      -2.599  -1.989  -0.227  0.00  0.00    +0.087 C 
ATOM     20  C   UNL     1      -3.336  -0.685  -0.020  0.00  0.00    +0.075 C 
ATOM     21  N   UNL     1      -2.483   0.272   0.129  0.00  0.00    -0.181 NA
BRANCH  18  22
ATOM     22  C   UNL     1      -0.412  -2.282   0.966  0.00  0.00    +0.017 A 
ATOM     23  C   UNL     1      -0.355  -1.683   2.209  0.00  0.00    +0.009 A 
ATOM     24  C   UNL     1       0.287  -2.318   3.256  0.00  0.00    +0.001 A 
ATOM     25  C   UNL     1       0.874  -3.555   3.061  0.00  0.00    +0.004 A 
ATOM     26  C   UNL     1       0.819  -4.159   1.819  0.00  0.00    +0.046 A 
ATOM     27  C   UNL     1       0.170  -3.525   0.769  0.00  0.00    +0.125 A 
BRANCH  27  28
ATOM     28  O   UNL     1       0.110  -4.120  -0.452  0.00  0.00    -0.495 OA
ATOM     29  C   UNL     1       0.732  -5.400  -0.581  0.00  0.00    +0.277 C 
ENDBRANCH  27  28
ENDBRANCH  18  22
ENDBRANCH   1  20
BRANCH   2  30
ATOM     30  C   UNL     1      -4.715  -0.279   2.499  0.00  0.00    -0.016 A 
ATOM     31  C   UNL     1      -4.072  -1.419   2.988  0.00  0.00    +0.008 A 
ATOM     32  C   UNL     1      -3.377  -1.357   4.177  0.00  0.00    +0.001 A 
ATOM     33  C   UNL     1      -3.314  -0.170   4.886  0.00  0.00    +0.000 A 
ATOM     34  C   UNL     1      -3.949   0.963   4.407  0.00  0.00    +0.001 A 
ATOM     35  C   UNL     1      -4.643   0.917   3.217  0.00  0.00    +0.008 A 
ENDBRANCH   2  30
TORSDOF 4
