REMARK  Name = ZINC41586483
REMARK  14 active torsions:
REMARK  status: ('A' for Active; 'I' for Inactive)
REMARK    1  A    between atoms: C_1  and  C_2
REMARK    2  A    between atoms: C_2  and  O_3
REMARK    3  A    between atoms: O_3  and  C_4
REMARK    4  A    between atoms: C_4  and  C_6
REMARK    5  A    between atoms: N_11  and  C_13
REMARK    6  A    between atoms: C_13  and  C_14
REMARK    7  A    between atoms: C_15  and  O_37
REMARK    8  A    between atoms: C_22  and  C_23
REMARK    9  A    between atoms: C_25  and  O_33
REMARK   10  A    between atoms: C_26  and  O_31
REMARK   11  A    between atoms: C_28  and  O_29
REMARK   12  A    between atoms: O_29  and  C_30
REMARK   13  A    between atoms: O_31  and  C_32
REMARK   14  A    between atoms: O_33  and  C_34
REMARK                            x       y       z     vdW  Elec       q    Type
REMARK                         _______ _______ _______ _____ _____    ______ ____
ROOT
ATOM      1  C   UNL     1       2.904  -7.541  -4.215  0.00  0.00    +0.020 A 
ATOM      2  C   UNL     1       2.259  -8.199  -5.249  0.00  0.00    +0.122 A 
ATOM      3  C   UNL     1       2.989  -8.793  -6.275  0.00  0.00    +0.046 A 
ATOM      4  C   UNL     1       4.354  -8.731  -6.271  0.00  0.00    +0.019 A 
ATOM      5  C   UNL     1       5.017  -8.072  -5.236  0.00  0.00    +0.068 A 
ATOM      6  C   UNL     1       4.292  -7.464  -4.198  0.00  0.00    +0.144 A 
ATOM      7  O   UNL     1       5.144  -6.888  -3.324  0.00  0.00    -0.451 OA
ATOM      8  C   UNL     1       6.436  -7.054  -3.697  0.00  0.00    +0.176 C 
ATOM      9  C   UNL     1       7.529  -6.595  -3.032  0.00  0.00    +0.062 C 
ATOM     10  C   UNL     1       6.442  -7.832  -4.942  0.00  0.00    +0.231 C 
ATOM     11  O   UNL     1       7.409  -8.188  -5.594  0.00  0.00    -0.283 OA
ENDROOT
BRANCH   9  12
ATOM     12  C   UNL     1       7.376  -5.967  -1.717  0.00  0.00    +0.024 A 
ATOM     13  C   UNL     1       6.193  -6.143  -0.986  0.00  0.00    +0.061 A 
ATOM     14  C   UNL     1       6.055  -5.549   0.251  0.00  0.00    +0.162 A 
ATOM     15  C   UNL     1       7.090  -4.774   0.776  0.00  0.00    +0.165 A 
ATOM     16  C   UNL     1       8.264  -4.595   0.060  0.00  0.00    +0.095 A 
ATOM     17  C   UNL     1       8.418  -5.190  -1.180  0.00  0.00    +0.131 A 
BRANCH  17  18
ATOM     18  O   UNL     1       9.569  -5.019  -1.879  0.00  0.00    -0.494 OA
ATOM     19  C   UNL     1      10.584  -4.217  -1.271  0.00  0.00    +0.277 C 
ENDBRANCH  17  18
BRANCH  15  20
ATOM     20  O   UNL     1       6.947  -4.191   1.995  0.00  0.00    -0.491 OA
ATOM     21  C   UNL     1       8.044  -3.411   2.474  0.00  0.00    +0.277 C 
ENDBRANCH  15  20
BRANCH  14  22
ATOM     22  O   UNL     1       4.907  -5.720   0.961  0.00  0.00    -0.491 OA
ATOM     23  C   UNL     1       3.888  -6.525   0.365  0.00  0.00    +0.277 C 
ENDBRANCH  14  22
ENDBRANCH   9  12
BRANCH   2  24
ATOM     24  O   UNL     1       0.904  -8.267  -5.262  0.00  0.00    -0.506 OA
ATOM     25  H   UNL     1       0.478  -7.532  -5.724  0.00  0.00    +0.292 HD
ENDBRANCH   2  24
BRANCH   1  26
ATOM     26  C   UNL     1       2.101  -6.903  -3.111  0.00  0.00    -0.036 C 
BRANCH  26  31
ATOM     27  C   UNL     1       0.854  -3.388  -2.692  0.00  0.00    +0.081 C 
ATOM     28  C   UNL     1      -0.039  -3.312  -3.933  0.00  0.00    +0.011 C 
ATOM     29  C   UNL     1       0.635  -4.066  -5.083  0.00  0.00    -0.018 C 
ATOM     30  C   UNL     1       0.904  -5.509  -4.650  0.00  0.00    -0.078 C 
ATOM     31  N   UNL     1       1.784  -5.516  -3.475  0.00  0.00    +0.383 N 
ATOM     32  C   UNL     1       1.115  -4.856  -2.347  0.00  0.00    -0.064 C 
ATOM     33  H   UNL     1       2.637  -5.024  -3.692  0.00  0.00    -0.081 HD
BRANCH  27  34
ATOM     34  C   UNL     1       0.164  -2.715  -1.534  0.00  0.00    +0.308 C 
ATOM     35  O   UNL     1      -0.091  -3.343  -0.534  0.00  0.00    -0.251 OA
BRANCH  34  36
ATOM     36  O   UNL     1      -0.167  -1.416  -1.613  0.00  0.00    -0.465 OA
BRANCH  36  38
ATOM     37  C   UNL     1      -1.115   0.633  -0.752  0.00  0.00    +0.048 C 
ATOM     38  C   UNL     1      -0.819  -0.842  -0.478  0.00  0.00    +0.229 C 
ENDBRANCH  36  38
ENDBRANCH  34  36
ENDBRANCH  27  34
ENDBRANCH  26  31
ENDBRANCH   1  26
TORSDOF 10
