REMARK  Name = ZINC33546582
REMARK  10 active torsions:
REMARK  status: ('A' for Active; 'I' for Inactive)
REMARK    1  A    between atoms: C_1  and  C_2
REMARK    2  A    between atoms: C_2  and  C_3
REMARK    3  A    between atoms: C_3  and  O_4
REMARK    4  A    between atoms: O_4  and  C_5
REMARK    5  A    between atoms: C_8  and  C_11
REMARK    6  A    between atoms: C_11  and  C_12
REMARK    7  A    between atoms: C_13  and  C_31
REMARK    8  A    between atoms: C_25  and  O_29
REMARK    9  A    between atoms: O_29  and  C_30
REMARK   10  A    between atoms: C_35  and  O_37
REMARK                            x       y       z     vdW  Elec       q    Type
REMARK                         _______ _______ _______ _____ _____    ______ ____
ROOT
ATOM      1  C   UNL     1      -3.475   3.325  -7.376  0.00  0.00    +0.077 C 
ATOM      2  C   UNL     1      -4.257   3.712  -8.610  0.00  0.00    +0.152 C 
ATOM      3  N   UNL     1      -5.447   4.431  -8.143  0.00  0.00    -0.232 N 
ATOM      4  C   UNL     1      -5.422   4.490  -6.801  0.00  0.00    +0.293 C 
ATOM      5  O   UNL     1      -6.269   5.022  -6.112  0.00  0.00    -0.266 OA
ATOM      6  C   UNL     1      -4.209   3.806  -6.281  0.00  0.00    +0.250 C 
ATOM      7  O   UNL     1      -3.904   3.685  -5.108  0.00  0.00    -0.282 OA
ATOM      8  C   UNL     1      -6.435   4.962  -8.954  0.00  0.00    +0.169 A 
ATOM      9  N   UNL     1      -6.522   4.947 -10.263  0.00  0.00    -0.224 NA
ATOM     10  C   UNL     1      -7.556   5.506 -10.929  0.00  0.00    +0.081 A 
ATOM     11  C   UNL     1      -7.771   5.555 -12.326  0.00  0.00    +0.032 A 
ATOM     12  C   UNL     1      -8.870   6.167 -12.843  0.00  0.00    +0.048 A 
ATOM     13  C   UNL     1      -9.823   6.767 -12.026  0.00  0.00    +0.121 A 
ATOM     14  C   UNL     1      -9.648   6.740 -10.650  0.00  0.00    +0.063 A 
ATOM     15  C   UNL     1      -8.540   6.124 -10.123  0.00  0.00    +0.044 A 
ATOM     16  S   UNL     1      -7.914   5.849  -8.483  0.00  0.00    -0.052 S 
ENDROOT
BRANCH   2  17
ATOM     17  C   UNL     1      -4.666   2.477  -9.371  0.00  0.00    -0.019 A 
ATOM     18  C   UNL     1      -5.761   1.742  -8.957  0.00  0.00    +0.006 A 
ATOM     19  C   UNL     1      -6.139   0.609  -9.653  0.00  0.00    +0.004 A 
ATOM     20  C   UNL     1      -5.422   0.209 -10.765  0.00  0.00    +0.045 A 
ATOM     21  C   UNL     1      -4.323   0.945 -11.182  0.00  0.00    +0.117 A 
ATOM     22  C   UNL     1      -3.949   2.084 -10.484  0.00  0.00    +0.051 A 
BRANCH  21  23
ATOM     23  O   UNL     1      -3.616   0.553 -12.275  0.00  0.00    -0.507 OA
ATOM     24  H   UNL     1      -2.745   1.138 -12.605  0.00  0.00    +0.292 HD
ENDBRANCH  21  23
ENDBRANCH   2  17
BRANCH   1  25
ATOM     25  C   UNL     1      -2.281   2.631  -7.335  0.00  0.00    +0.195 C 
ATOM     26  O   UNL     1      -1.700   2.218  -8.481  0.00  0.00    -0.287 OA
BRANCH  25  30
ATOM     27  C   UNL     1      -0.440   1.801  -3.604  0.00  0.00    +0.121 A 
ATOM     28  C   UNL     1      -0.767   3.110  -3.939  0.00  0.00    +0.046 A 
ATOM     29  C   UNL     1      -1.359   3.386  -5.150  0.00  0.00    +0.015 A 
ATOM     30  C   UNL     1      -1.642   2.344  -6.041  0.00  0.00    +0.022 A 
ATOM     31  C   UNL     1      -1.315   1.026  -5.697  0.00  0.00    +0.015 A 
ATOM     32  C   UNL     1      -0.718   0.762  -4.486  0.00  0.00    +0.046 A 
BRANCH  27  33
ATOM     33  O   UNL     1       0.148   1.535  -2.410  0.00  0.00    -0.492 OA
BRANCH  33  34
ATOM     34  C   UNL     1       0.406   2.648  -1.552  0.00  0.00    +0.229 C 
BRANCH  34  36
ATOM     35  C   UNL     1       1.343   3.347   0.656  0.00  0.00    +0.007 C 
ATOM     36  C   UNL     1       1.067   2.156  -0.263  0.00  0.00    +0.038 C 
ENDBRANCH  34  36
ENDBRANCH  33  34
ENDBRANCH  27  33
ENDBRANCH  25  30
ENDBRANCH   1  25
BRANCH  13  37
ATOM     37  O   UNL     1     -10.912   7.372 -12.569  0.00  0.00    -0.495 OA
ATOM     38  C   UNL     1     -11.020   7.357 -13.994  0.00  0.00    +0.277 C 
ENDBRANCH  13  37
TORSDOF 8
