REMARK  Name = ZINC39591145
REMARK  5 active torsions:
REMARK  status: ('A' for Active; 'I' for Inactive)
REMARK    1  A    between atoms: C_1  and  C_2
REMARK    2  A    between atoms: C_4  and  C_8
REMARK    3  A    between atoms: C_12  and  S_31
REMARK    4  A    between atoms: N_14  and  N_15
REMARK    5  A    between atoms: C_16  and  C_17
REMARK                            x       y       z     vdW  Elec       q    Type
REMARK                         _______ _______ _______ _____ _____    ______ ____
ROOT
ATOM      1  N   UNL     1      -0.059  -6.952  -1.102  0.00  0.00    -0.187 NA
ATOM      2  C   UNL     1       0.954  -6.136  -1.053  0.00  0.00    +0.139 C 
ENDROOT
BRANCH   2   3
ATOM      3  C   UNL     1       2.318  -6.664  -0.957  0.00  0.00    +0.010 A 
ATOM      4  C   UNL     1       3.426  -5.794  -1.021  0.00  0.00    -0.009 A 
ATOM      5  C   UNL     1       3.252  -4.407  -1.176  0.00  0.00    +0.009 A 
ATOM      6  C   UNL     1       4.342  -3.596  -1.234  0.00  0.00    +0.001 A 
ATOM      7  C   UNL     1       5.637  -4.103  -1.141  0.00  0.00    +0.001 A 
ATOM      8  C   UNL     1       5.873  -5.432  -0.991  0.00  0.00    +0.008 A 
ATOM      9  C   UNL     1       4.785  -6.329  -0.923  0.00  0.00    -0.017 A 
ATOM     10  C   UNL     1       4.993  -7.700  -0.768  0.00  0.00    +0.017 A 
ATOM     11  C   UNL     1       3.903  -8.568  -0.704  0.00  0.00    -0.017 A 
ATOM     12  C   UNL     1       2.537  -8.047  -0.794  0.00  0.00    -0.009 A 
ATOM     13  C   UNL     1       1.461  -8.949  -0.721  0.00  0.00    +0.009 A 
ATOM     14  C   UNL     1       1.707 -10.277  -0.563  0.00  0.00    +0.001 A 
ATOM     15  C   UNL     1       3.006 -10.775  -0.471  0.00  0.00    +0.001 A 
ATOM     16  C   UNL     1       4.089  -9.958  -0.547  0.00  0.00    +0.008 A 
ENDBRANCH   2   3
BRANCH   1  21
ATOM     17  C   UNL     1      -2.627  -7.200  -1.259  0.00  0.00    +0.263 C 
ATOM     18  N   UNL     1      -3.696  -6.204  -1.345  0.00  0.00    -0.163 NA
ATOM     19  N   UNL     1      -3.254  -5.057  -1.339  0.00  0.00    -0.155 NA
ATOM     20  C   UNL     1      -1.793  -5.038  -1.248  0.00  0.00    +0.288 C 
ATOM     21  N   UNL     1      -1.362  -6.447  -1.194  0.00  0.00    -0.192 N 
BRANCH  17  25
ATOM     22  C   UNL     1      -4.738 -11.173  -2.680  0.00  0.00    +0.067 C 
ATOM     23  C   UNL     1      -3.715 -10.071  -2.579  0.00  0.00    +0.058 C 
ATOM     24  C   UNL     1      -3.994  -8.768  -2.660  0.00  0.00    +0.030 C 
ATOM     25  C   UNL     1      -2.643  -8.095  -2.500  0.00  0.00    +0.198 C 
ATOM     26  N   UNL     1      -1.722  -9.233  -2.337  0.00  0.00    -0.176 NA
ATOM     27  N   UNL     1      -2.392 -10.268  -2.387  0.00  0.00    -0.159 NA
ENDBRANCH  17  25
BRANCH  20  28
ATOM     28  S   UNL     1      -1.088  -4.225  -2.708  0.00  0.00    -0.130 S 
ATOM     29  H   UNL     1      -1.583  -2.975  -2.655  0.00  0.00    +0.105 HD
ENDBRANCH  20  28
ENDBRANCH   1  21
TORSDOF 4
