REMARK  Name = ZINC40839675
REMARK  9 active torsions:
REMARK  status: ('A' for Active; 'I' for Inactive)
REMARK    1  A    between atoms: C_1  and  C_2
REMARK    2  A    between atoms: C_2  and  C_4
REMARK    3  A    between atoms: C_2  and  N_13
REMARK    4  A    between atoms: C_7  and  C_10
REMARK    5  A    between atoms: C_10  and  C_11
REMARK    6  A    between atoms: C_10  and  C_12
REMARK    7  A    between atoms: C_14  and  C_16
REMARK    8  A    between atoms: C_16  and  C_18
REMARK    9  A    between atoms: C_16  and  C_19
REMARK                            x       y       z     vdW  Elec       q    Type
REMARK                         _______ _______ _______ _____ _____    ______ ____
ROOT
ATOM      1  N   UNL     1       0.688  -0.476  -1.203  0.00  0.00    -0.308 N 
ATOM      2  C   UNL     1       0.006  -0.608  -2.358  0.00  0.00    +0.218 C 
ATOM      3  O   UNL     1      -1.175  -0.336  -2.400  0.00  0.00    -0.275 OA
ATOM      4  H   UNL     1       1.632  -0.695  -1.170  0.00  0.00    +0.149 HD
ENDROOT
BRANCH   1   6
ATOM      5  C   UNL     1      -0.019   1.526   0.010  0.00  0.00    +0.033 C 
ATOM      6  C   UNL     1       0.002  -0.004   0.002  0.00  0.00    +0.100 C 
BRANCH   6   7
ATOM      7  C   UNL     1       0.731  -0.503   1.223  0.00  0.00    -0.027 A 
ATOM      8  C   UNL     1       2.113  -0.514   1.247  0.00  0.00    +0.006 A 
ATOM      9  C   UNL     1       2.782  -0.972   2.366  0.00  0.00    +0.004 A 
ATOM     10  C   UNL     1       2.068  -1.419   3.463  0.00  0.00    -0.045 A 
ATOM     11  C   UNL     1       0.686  -1.407   3.439  0.00  0.00    +0.004 A 
ATOM     12  C   UNL     1       0.017  -0.945   2.321  0.00  0.00    +0.006 A 
BRANCH  10  13
ATOM     13  C   UNL     1       2.797  -1.919   4.683  0.00  0.00    +0.013 C 
ATOM     14  C   UNL     1       2.414  -1.063   5.892  0.00  0.00    +0.012 C 
ATOM     15  C   UNL     1       2.410  -3.376   4.947  0.00  0.00    +0.012 C 
ENDBRANCH  10  13
ENDBRANCH   6   7
ENDBRANCH   1   6
BRANCH   2  16
ATOM     16  C   UNL     1       0.712  -1.094  -3.598  0.00  0.00    +0.094 C 
ATOM     17  C   UNL     1       1.284  -2.490  -3.346  0.00  0.00    +0.019 C 
BRANCH  16  18
ATOM     18  C   UNL     1      -0.282  -1.153  -4.761  0.00  0.00    +0.149 C 
ATOM     19  C   UNL     1       0.390  -1.746  -5.969  0.00  0.00    +0.231 C 
ATOM     20  O   UNL     1       0.269  -2.937  -6.165  0.00  0.00    -0.274 OA
ATOM     21  N   UNL     1       1.109  -1.036  -6.835  0.00  0.00    -0.284 N 
ATOM     22  C   UNL     1       1.363   0.331  -6.769  0.00  0.00    +0.047 A 
ATOM     23  C   UNL     1       2.459   0.856  -7.444  0.00  0.00    +0.024 A 
ATOM     24  C   UNL     1       2.724   2.211  -7.393  0.00  0.00    +0.002 A 
ATOM     25  C   UNL     1       1.903   3.059  -6.672  0.00  0.00    +0.001 A 
ATOM     26  C   UNL     1       0.811   2.550  -5.994  0.00  0.00    +0.016 A 
ATOM     27  C   UNL     1       0.542   1.192  -6.039  0.00  0.00    +0.030 A 
ATOM     28  S   UNL     1      -0.845   0.528  -5.166  0.00  0.00    -0.110 S 
ATOM     29  H   UNL     1       1.492  -1.518  -7.584  0.00  0.00    +0.155 HD
ENDBRANCH  16  18
ENDBRANCH   2  16
TORSDOF 5
