REMARK  Name = ZINC08822516
REMARK  9 active torsions:
REMARK  status: ('A' for Active; 'I' for Inactive)
REMARK    1  A    between atoms: C_1  and  C_2
REMARK    2  A    between atoms: C_4  and  C_33
REMARK    3  A    between atoms: C_5  and  N_9
REMARK    4  A    between atoms: C_6  and  C_8
REMARK    5  A    between atoms: C_10  and  C_12
REMARK    6  A    between atoms: C_12  and  S_13
REMARK    7  A    between atoms: S_13  and  C_14
REMARK    8  A    between atoms: C_20  and  C_22
REMARK    9  A    between atoms: C_23  and  C_24
REMARK                            x       y       z     vdW  Elec       q    Type
REMARK                         _______ _______ _______ _____ _____    ______ ____
ROOT
ATOM      1  C   UNL     1      -7.556   1.065  -0.776  0.00  0.00    +0.160 A 
ATOM      2  N   UNL     1      -7.562  -0.228  -1.062  0.00  0.00    -0.133 NA
ATOM      3  N   UNL     1      -8.632  -0.858  -1.282  0.00  0.00    -0.125 NA
ATOM      4  C   UNL     1      -9.815  -0.265  -1.242  0.00  0.00    +0.189 A 
ATOM      5  S   UNL     1      -9.313   1.403  -0.829  0.00  0.00    -0.024 S 
ATOM      6  N   UNL     1     -11.086  -0.790  -1.455  0.00  0.00    -0.260 N 
ATOM      7  C   UNL     1     -11.234  -2.096  -1.755  0.00  0.00    +0.243 C 
ATOM      8  O   UNL     1     -10.256  -2.816  -1.839  0.00  0.00    -0.270 OA
ATOM      9  H   UNL     1     -11.865  -0.217  -1.388  0.00  0.00    +0.157 HD
ENDROOT
BRANCH   7  10
ATOM     10  C   UNL     1     -12.569  -2.648  -1.978  0.00  0.00    +0.068 C 
ATOM     11  C   UNL     1     -12.717  -3.956  -2.278  0.00  0.00    +0.013 C 
BRANCH  11  12
ATOM     12  C   UNL     1     -14.060  -4.511  -2.503  0.00  0.00    -0.021 A 
ATOM     13  C   UNL     1     -15.186  -3.685  -2.407  0.00  0.00    +0.012 A 
ATOM     14  C   UNL     1     -16.443  -4.207  -2.618  0.00  0.00    +0.050 A 
ATOM     15  C   UNL     1     -16.598  -5.553  -2.927  0.00  0.00    +0.166 A 
ATOM     16  C   UNL     1     -15.480  -6.382  -3.025  0.00  0.00    +0.167 A 
ATOM     17  C   UNL     1     -14.216  -5.865  -2.820  0.00  0.00    +0.057 A 
ATOM     18  O   UNL     1     -15.900  -7.644  -3.336  0.00  0.00    -0.453 OA
ATOM     19  C   UNL     1     -17.244  -7.490  -3.829  0.00  0.00    +0.466 C 
ATOM     20  O   UNL     1     -17.714  -6.296  -3.176  0.00  0.00    -0.453 OA
ENDBRANCH  11  12
ENDBRANCH   7  10
BRANCH   1  21
ATOM     21  S   UNL     1      -6.205   2.144  -0.435  0.00  0.00    -0.088 S 
BRANCH  21  22
ATOM     22  C   UNL     1      -4.746   1.073  -0.559  0.00  0.00    +0.172 C 
BRANCH  22  24
ATOM     23  N   UNL     1      -2.294   1.291  -0.322  0.00  0.00    -0.284 N 
ATOM     24  C   UNL     1      -3.504   1.882  -0.285  0.00  0.00    +0.227 C 
ATOM     25  O   UNL     1      -3.595   3.064  -0.031  0.00  0.00    -0.275 OA
ATOM     26  H   UNL     1      -2.226   0.331  -0.445  0.00  0.00    +0.155 HD
BRANCH  23  31
ATOM     27  C   UNL     1       2.413   4.408   0.244  0.00  0.00    +0.044 C 
ATOM     28  C   UNL     1       1.161   3.583   0.092  0.00  0.00    -0.050 A 
ATOM     29  C   UNL     1       0.190   3.615   1.076  0.00  0.00    +0.008 A 
ATOM     30  C   UNL     1      -0.958   2.859   0.940  0.00  0.00    -0.029 A 
ATOM     31  C   UNL     1      -1.134   2.062  -0.184  0.00  0.00    +0.039 A 
ATOM     32  C   UNL     1      -0.160   2.038  -1.173  0.00  0.00    -0.029 A 
ATOM     33  C   UNL     1       0.986   2.795  -1.031  0.00  0.00    +0.008 A 
ATOM     34  C   UNL     1      -0.350   1.180  -2.398  0.00  0.00    +0.045 C 
ATOM     35  C   UNL     1      -2.016   2.893   2.013  0.00  0.00    +0.045 C 
ENDBRANCH  23  31
ENDBRANCH  22  24
ENDBRANCH  21  22
ENDBRANCH   1  21
TORSDOF 6
