REMARK  Name = ZINC08783231
REMARK  8 active torsions:
REMARK  status: ('A' for Active; 'I' for Inactive)
REMARK    1  A    between atoms: C_1  and  C_2
REMARK    2  A    between atoms: C_2  and  C_3
REMARK    3  A    between atoms: C_2  and  C_4
REMARK    4  A    between atoms: C_2  and  C_5
REMARK    5  A    between atoms: C_9  and  C_10
REMARK    6  A    between atoms: C_20  and  C_28
REMARK    7  A    between atoms: C_22  and  C_26
REMARK    8  A    between atoms: C_23  and  N_25
REMARK                            x       y       z     vdW  Elec       q    Type
REMARK                         _______ _______ _______ _____ _____    ______ ____
ROOT
ATOM      1  C   UNL     1      -0.021  -0.205  -0.294  0.00  0.00    +0.003 C 
ATOM      2  C   UNL     1       0.829  -0.526   0.943  0.00  0.00    +0.043 C 
ATOM      3  C   UNL     1       0.778  -2.026   1.137  0.00  0.00    -0.004 C 
ATOM      4  C   UNL     1       1.882  -2.716   1.477  0.00  0.00    +0.018 C 
ATOM      5  C   UNL     1      -0.514  -2.712   0.942  0.00  0.00    +0.133 C 
ATOM      6  C   UNL     1      -1.548  -2.071   0.399  0.00  0.00    -0.014 C 
ATOM      7  C   UNL     1      -1.462  -0.625  -0.022  0.00  0.00    +0.039 C 
ATOM      8  C   UNL     1      -2.865  -2.784   0.193  0.00  0.00    +0.097 C 
ATOM      9  C   UNL     1      -2.938  -4.011   1.056  0.00  0.00    +0.098 C 
ATOM     10  C   UNL     1      -1.810  -4.555   1.579  0.00  0.00    +0.199 C 
ATOM     11  O   UNL     1      -0.608  -4.009   1.333  0.00  0.00    -0.441 OA
ENDROOT
BRANCH   4  12
ATOM     12  C   UNL     1       3.120  -1.999   1.827  0.00  0.00    +0.011 A 
ATOM     13  C   UNL     1       3.058  -0.786   2.519  0.00  0.00    +0.011 A 
ATOM     14  C   UNL     1       4.221  -0.120   2.844  0.00  0.00    +0.001 A 
ATOM     15  C   UNL     1       5.449  -0.650   2.487  0.00  0.00    +0.003 A 
ATOM     16  C   UNL     1       5.521  -1.849   1.802  0.00  0.00    +0.039 A 
ATOM     17  C   UNL     1       4.365  -2.531   1.474  0.00  0.00    +0.131 A 
ATOM     18  F   UNL     1       4.436  -3.706   0.809  0.00  0.00    -0.205 F 
ENDBRANCH   4  12
BRANCH   8  19
ATOM     19  C   UNL     1      -2.991  -3.190  -1.253  0.00  0.00    +0.000 A 
ATOM     20  C   UNL     1      -2.056  -4.038  -1.817  0.00  0.00    +0.007 A 
ATOM     21  C   UNL     1      -2.172  -4.411  -3.143  0.00  0.00    +0.000 A 
ATOM     22  C   UNL     1      -3.222  -3.936  -3.907  0.00  0.00    +0.003 A 
ATOM     23  C   UNL     1      -4.157  -3.087  -3.345  0.00  0.00    +0.038 A 
ATOM     24  C   UNL     1      -4.045  -2.717  -2.015  0.00  0.00    +0.127 A 
ATOM     25  F   UNL     1      -4.962  -1.893  -1.464  0.00  0.00    -0.205 F 
ENDBRANCH   8  19
BRANCH   1  27
ATOM     26  C   UNL     1       1.478   1.719  -0.832  0.00  0.00    +0.011 C 
ATOM     27  C   UNL     1       0.030   1.297  -0.577  0.00  0.00    -0.034 C 
ATOM     28  C   UNL     1      -0.818   1.614  -1.810  0.00  0.00    +0.011 C 
ATOM     29  C   UNL     1      -0.519   2.062   0.629  0.00  0.00    +0.011 C 
ENDBRANCH   1  27
BRANCH  10  30
ATOM     30  N   UNL     1      -1.899  -5.675   2.367  0.00  0.00    -0.328 N 
ATOM     31  H   UNL     1      -2.765  -6.074   2.548  0.00  0.00    +0.145 HD
ATOM     32  H   UNL     1      -1.097  -6.069   2.743  0.00  0.00    +0.145 HD
ENDBRANCH  10  30
BRANCH   9  33
ATOM     33  C   UNL     1      -4.209  -4.611   1.331  0.00  0.00    +0.101 C 
ATOM     34  N   UNL     1      -5.217  -5.087   1.548  0.00  0.00    -0.191 NA
ENDBRANCH   9  33
TORSDOF 5
