REMARK  Name = ZINC63426728
REMARK  11 active torsions:
REMARK  status: ('A' for Active; 'I' for Inactive)
REMARK    1  A    between atoms: C_1  and  C_2
REMARK    2  A    between atoms: C_2  and  C_3
REMARK    3  A    between atoms: C_3  and  N_20
REMARK    4  A    between atoms: N_10  and  C_13
REMARK    5  A    between atoms: C_16  and  C_19
REMARK    6  A    between atoms: N_20  and  C_21
REMARK    7  A    between atoms: C_21  and  C_23
REMARK    8  A    between atoms: C_21  and  C_33
REMARK    9  A    between atoms: C_23  and  C_24
REMARK   10  A    between atoms: C_33  and  O_35
REMARK   11  A    between atoms: O_35  and  C_36
REMARK                            x       y       z     vdW  Elec       q    Type
REMARK                         _______ _______ _______ _____ _____    ______ ____
ROOT
ATOM      1  C   UNL     1       0.753  -0.130   1.068  0.00  0.00    +0.022 C 
ATOM      2  C   UNL     1       0.076  -0.490   2.218  0.00  0.00    +0.116 C 
ATOM      3  C   UNL     1       0.788  -1.012   3.398  0.00  0.00    +0.258 C 
ATOM      4  O   UNL     1       1.998  -1.140   3.392  0.00  0.00    -0.270 OA
ATOM      5  N   UNL     1       0.062  -1.343   4.486  0.00  0.00    -0.235 N 
ATOM      6  C   UNL     1      -1.271  -1.206   4.507  0.00  0.00    +0.320 C 
ATOM      7  O   UNL     1      -1.866  -1.523   5.518  0.00  0.00    -0.251 OA
ATOM      8  N   UNL     1      -1.982  -0.740   3.471  0.00  0.00    -0.190 N 
ATOM      9  C   UNL     1      -1.389  -0.364   2.320  0.00  0.00    +0.265 C 
ATOM     10  O   UNL     1      -2.045   0.064   1.389  0.00  0.00    -0.269 OA
ATOM     11  H   UNL     1       0.515  -1.688   5.271  0.00  0.00    +0.159 HD
ENDROOT
BRANCH   8  12
ATOM     12  C   UNL     1      -3.375  -0.634   3.589  0.00  0.00    +0.046 A 
ATOM     13  C   UNL     1      -4.202  -1.378   2.759  0.00  0.00    +0.024 A 
ATOM     14  C   UNL     1      -5.574  -1.272   2.878  0.00  0.00    +0.005 A 
ATOM     15  C   UNL     1      -6.124  -0.426   3.823  0.00  0.00    -0.050 A 
ATOM     16  C   UNL     1      -5.303   0.316   4.652  0.00  0.00    +0.005 A 
ATOM     17  C   UNL     1      -3.930   0.210   4.541  0.00  0.00    +0.024 A 
ATOM     18  C   UNL     1      -7.621  -0.313   3.950  0.00  0.00    +0.044 C 
ENDBRANCH   8  12
BRANCH   1  20
ATOM     19  C   UNL     1      -0.555  -0.517  -1.002  0.00  0.00    +0.010 C 
ATOM     20  C   UNL     1       0.016   0.545  -0.060  0.00  0.00    +0.048 C 
ENDBRANCH   1  20
BRANCH   1  21
ATOM     21  N   UNL     1       2.073  -0.381   0.956  0.00  0.00    -0.334 N 
ATOM     22  H   UNL     1       2.529  -0.893   1.642  0.00  0.00    +0.147 HD
BRANCH  21  23
ATOM     23  C   UNL     1       2.818   0.118  -0.203  0.00  0.00    +0.184 C 
BRANCH  23  24
ATOM     24  C   UNL     1       3.257   1.537   0.056  0.00  0.00    +0.328 C 
ATOM     25  O   UNL     1       2.977   2.075   1.101  0.00  0.00    -0.249 OA
BRANCH  24  26
ATOM     26  O   UNL     1       3.960   2.202  -0.874  0.00  0.00    -0.467 OA
ATOM     27  C   UNL     1       4.343   3.542  -0.562  0.00  0.00    +0.280 C 
ENDBRANCH  24  26
ENDBRANCH  23  24
BRANCH  23  28
ATOM     28  C   UNL     1       4.048  -0.762  -0.436  0.00  0.00    +0.066 C 
BRANCH  28  29
ATOM     29  C   UNL     1       3.606  -2.152  -0.815  0.00  0.00    -0.039 C 
ATOM     30  C   UNL     1       3.467  -2.648  -2.066  0.00  0.00    -0.001 A 
ATOM     31  C   UNL     1       3.677  -2.064  -3.396  0.00  0.00    +0.010 A 
ATOM     32  C   UNL     1       3.449  -2.826  -4.490  0.00  0.00    +0.001 A 
ATOM     33  C   UNL     1       3.018  -4.156  -4.386  0.00  0.00    +0.002 A 
ATOM     34  C   UNL     1       2.804  -4.762  -3.199  0.00  0.00    +0.026 A 
ATOM     35  C   UNL     1       3.012  -4.054  -1.982  0.00  0.00    +0.043 A 
ATOM     36  N   UNL     1       2.875  -4.413  -0.729  0.00  0.00    -0.380 N 
ATOM     37  C   UNL     1       3.234  -3.276   0.125  0.00  0.00    +0.144 C 
ATOM     38  H   UNL     1       2.588  -5.287  -0.419  0.00  0.00    +0.160 HD
ENDBRANCH  28  29
ENDBRANCH  23  28
ENDBRANCH  21  23
ENDBRANCH   1  21
TORSDOF 8
