REMARK  Name = ZINC52301645
REMARK  6 active torsions:
REMARK  status: ('A' for Active; 'I' for Inactive)
REMARK    1  A    between atoms: C_1  and  C_2
REMARK    2  A    between atoms: C_5  and  N_7
REMARK    3  A    between atoms: N_7  and  C_8
REMARK    4  A    between atoms: C_8  and  C_9
REMARK    5  A    between atoms: C_8  and  C_10
REMARK    6  A    between atoms: C_8  and  C_20
REMARK                            x       y       z     vdW  Elec       q    Type
REMARK                         _______ _______ _______ _____ _____    ______ ____
ROOT
ATOM      1  C   UNL     1       2.114  -2.415   2.085  0.00  0.00    +0.092 C 
ATOM      2  C   UNL     1       1.096  -2.659   3.200  0.00  0.00    +0.010 C 
ENDROOT
BRANCH   1   3
ATOM      3  C   UNL     1       2.849  -3.696   1.785  0.00  0.00    +0.106 A 
ATOM      4  C   UNL     1       3.583  -4.384   2.670  0.00  0.00    +0.052 A 
ATOM      5  C   UNL     1       4.105  -5.551   1.949  0.00  0.00    +0.021 A 
ATOM      6  C   UNL     1       4.918  -6.628   2.298  0.00  0.00    +0.027 A 
ATOM      7  C   UNL     1       5.228  -7.581   1.352  0.00  0.00    +0.019 A 
ATOM      8  C   UNL     1       4.736  -7.470   0.059  0.00  0.00    +0.019 A 
ATOM      9  C   UNL     1       3.932  -6.409  -0.298  0.00  0.00    +0.048 A 
ATOM     10  C   UNL     1       3.606  -5.438   0.640  0.00  0.00    +0.135 A 
ATOM     11  O   UNL     1       2.857  -4.317   0.593  0.00  0.00    -0.461 OA
ATOM     12 BR   UNL     1       6.330  -9.046   1.817  0.00  0.00    -0.050 Br
ENDBRANCH   1   3
BRANCH   1  13
ATOM     13  N   UNL     1       1.416  -1.957   0.876  0.00  0.00    +0.397 N 
ATOM     14  H   UNL     1       0.756  -2.661   0.581  0.00  0.00    -0.083 HD
ATOM     15  H   UNL     1       2.087  -1.795   0.140  0.00  0.00    -0.083 HD
BRANCH  13  19
ATOM     16  C   UNL     1      -0.019   1.526   0.010  0.00  0.00    +0.006 C 
ATOM     17  C   UNL     1       0.002  -0.004   0.002  0.00  0.00    -0.030 C 
ATOM     18  C   UNL     1      -0.828  -0.728   1.065  0.00  0.00    -0.014 C 
ATOM     19  C   UNL     1       0.700  -0.708   1.168  0.00  0.00    -0.067 C 
ENDBRANCH  13  19
ENDBRANCH   1  13
BRANCH   1  20
ATOM     20  C   UNL     1       3.099  -1.362   2.525  0.00  0.00    +0.352 C 
ATOM     21  O   UNL     1       3.208  -0.327   1.891  0.00  0.00    -0.247 OA
ATOM     22  O   UNL     1       3.785  -1.546   3.515  0.00  0.00    -0.247 OA
ENDBRANCH   1  20
TORSDOF 4
