REMARK  Name = ZINC19581800
REMARK  9 active torsions:
REMARK  status: ('A' for Active; 'I' for Inactive)
REMARK    1  A    between atoms: C_1  and  C_2
REMARK    2  A    between atoms: C_3  and  C_12
REMARK    3  A    between atoms: N_10  and  C_11
REMARK    4  A    between atoms: C_12  and  C_14
REMARK    5  A    between atoms: C_12  and  O_34
REMARK    6  A    between atoms: C_14  and  N_15
REMARK    7  A    between atoms: C_22  and  O_33
REMARK    8  A    between atoms: C_27  and  O_31
REMARK    9  A    between atoms: O_31  and  C_32
REMARK                            x       y       z     vdW  Elec       q    Type
REMARK                         _______ _______ _______ _____ _____    ______ ____
ROOT
ATOM      1  N   UNL     1       2.349   5.173  -1.311  0.00  0.00    +0.382 N 
ATOM      2  C   UNL     1       1.689   6.030  -0.318  0.00  0.00    -0.075 C 
ATOM      3  C   UNL     1       2.478   7.332  -0.160  0.00  0.00    +0.029 C 
ATOM      4  C   UNL     1       2.555   8.044  -1.511  0.00  0.00    +0.110 C 
ATOM      5  C   UNL     1       3.199   7.114  -2.541  0.00  0.00    +0.029 C 
ATOM      6  C   UNL     1       2.387   5.819  -2.630  0.00  0.00    -0.075 C 
ATOM      7  C   UNL     1       3.397   9.317  -1.374  0.00  0.00    +0.084 C 
ATOM      8  C   UNL     1       3.550   9.945  -2.762  0.00  0.00    +0.152 C 
ATOM      9  C   UNL     1       2.205  10.013  -3.441  0.00  0.00    +0.023 A 
ATOM     10  C   UNL     1       2.049  10.864  -4.523  0.00  0.00    +0.013 A 
ATOM     11  C   UNL     1       0.835  10.951  -5.174  0.00  0.00    +0.046 A 
ATOM     12  C   UNL     1      -0.237  10.181  -4.744  0.00  0.00    +0.124 A 
ATOM     13  C   UNL     1      -0.086   9.331  -3.662  0.00  0.00    +0.091 A 
ATOM     14  C   UNL     1       1.137   9.247  -3.006  0.00  0.00    +0.130 A 
ATOM     15  O   UNL     1       1.245   8.408  -1.942  0.00  0.00    -0.485 OA
ATOM     16  H   UNL     1       3.388   5.021  -0.984  0.00  0.00    -0.082 HD
ENDROOT
BRANCH  12  17
ATOM     17  O   UNL     1      -1.433  10.262  -5.385  0.00  0.00    -0.495 OA
ATOM     18  C   UNL     1      -1.516  11.160  -6.494  0.00  0.00    +0.277 C 
ENDBRANCH  12  17
BRANCH   8  19
ATOM     19  O   UNL     1       4.083  11.265  -2.630  0.00  0.00    -0.387 OA
ATOM     20  H   UNL     1       4.264  11.877  -3.526  0.00  0.00    +0.210 HD
ENDBRANCH   8  19
BRANCH   1  21
ATOM     21  C   UNL     1       1.699   3.858  -1.387  0.00  0.00    -0.042 C 
BRANCH  21  22
ATOM     22  C   UNL     1       2.662   2.849  -2.017  0.00  0.00    +0.130 C 
BRANCH  22  25
ATOM     23  C   UNL     1       1.540   1.534  -4.595  0.00  0.00    +0.064 C 
ATOM     24  C   UNL     1       1.502   0.927  -3.217  0.00  0.00    +0.022 A 
ATOM     25  C   UNL     1       1.990   1.503  -2.107  0.00  0.00    +0.007 A 
ATOM     26  C   UNL     1       1.747   0.576  -1.000  0.00  0.00    +0.006 A 
ATOM     27  C   UNL     1       2.023   0.604   0.369  0.00  0.00    +0.010 A 
ATOM     28  C   UNL     1       1.653  -0.449   1.157  0.00  0.00    +0.001 A 
ATOM     29  C   UNL     1       1.014  -1.552   0.607  0.00  0.00    +0.002 A 
ATOM     30  C   UNL     1       0.736  -1.602  -0.742  0.00  0.00    +0.026 A 
ATOM     31  C   UNL     1       1.099  -0.539  -1.562  0.00  0.00    +0.049 A 
ATOM     32  N   UNL     1       0.965  -0.294  -2.910  0.00  0.00    -0.347 N 
ATOM     33  C   UNL     1       0.341  -1.204  -3.874  0.00  0.00    +0.149 C 
ENDBRANCH  22  25
BRANCH  22  34
ATOM     34  O   UNL     1       3.836   2.743  -1.210  0.00  0.00    -0.389 OA
ATOM     35  H   UNL     1       4.461   3.630  -1.029  0.00  0.00    +0.210 HD
ENDBRANCH  22  34
ENDBRANCH  21  22
ENDBRANCH   1  21
TORSDOF 6
