REMARK  Name = ZINC13149175
REMARK  11 active torsions:
REMARK  status: ('A' for Active; 'I' for Inactive)
REMARK    1  A    between atoms: C_1  and  C_2
REMARK    2  A    between atoms: C_2  and  C_3
REMARK    3  A    between atoms: C_3  and  C_5
REMARK    4  A    between atoms: C_3  and  C_27
REMARK    5  A    between atoms: C_5  and  N_6
REMARK    6  A    between atoms: C_7  and  C_9
REMARK    7  A    between atoms: C_9  and  C_11
REMARK    8  A    between atoms: C_9  and  S_12
REMARK    9  A    between atoms: S_12  and  C_13
REMARK   10  A    between atoms: C_16  and  C_19
REMARK   11  A    between atoms: N_17  and  N_18
REMARK                            x       y       z     vdW  Elec       q    Type
REMARK                         _______ _______ _______ _____ _____    ______ ____
ROOT
ATOM      1  S   UNL     1       4.304   8.053  -3.305  0.00  0.00    -0.072 S 
ENDROOT
BRANCH   1   2
ATOM      2  C   UNL     1       4.282   9.796  -3.049  0.00  0.00    +0.209 A 
ATOM      3  N   UNL     1       3.428  10.463  -2.306  0.00  0.00    -0.121 NA
ATOM      4  N   UNL     1       3.700  11.719  -2.340  0.00  0.00    -0.127 NA
ATOM      5  C   UNL     1       4.745  11.930  -3.107  0.00  0.00    +0.183 A 
ATOM      6  N   UNL     1       5.152  10.704  -3.580  0.00  0.00    -0.224 N 
BRANCH   5   7
ATOM      7  C   UNL     1       5.369  13.237  -3.401  0.00  0.00    +0.040 A 
ATOM      8  C   UNL     1       5.691  13.580  -4.715  0.00  0.00    +0.033 A 
ATOM      9  C   UNL     1       6.273  14.802  -4.984  0.00  0.00    +0.042 A 
ATOM     10  C   UNL     1       6.538  15.688  -3.952  0.00  0.00    +0.021 A 
ATOM     11  C   UNL     1       6.222  15.354  -2.648  0.00  0.00    +0.022 A 
ATOM     12  C   UNL     1       5.633  14.137  -2.366  0.00  0.00    +0.052 A 
ATOM     13 CL   UNL     1       5.230  13.724  -0.730  0.00  0.00    -0.083 Cl
ATOM     14 CL   UNL     1       6.675  15.230  -6.617  0.00  0.00    -0.084 Cl
ENDBRANCH   5   7
BRANCH   6  15
ATOM     15  N   UNL     1       6.207  10.449  -4.410  0.00  0.00    -0.295 N 
ATOM     16  H   UNL     1       5.943  10.567  -5.377  0.00  0.00    +0.163 HD
ATOM     17  H   UNL     1       6.999  11.029  -4.178  0.00  0.00    +0.163 HD
ENDBRANCH   6  15
ENDBRANCH   1   2
BRANCH   1  18
ATOM     18  C   UNL     1       2.885   7.567  -2.292  0.00  0.00    +0.137 C 
ATOM     19  C   UNL     1       1.606   8.157  -2.889  0.00  0.00    +0.029 C 
BRANCH  18  21
ATOM     20  N   UNL     1       2.082   5.457  -1.281  0.00  0.00    -0.314 N 
ATOM     21  C   UNL     1       2.780   6.064  -2.261  0.00  0.00    +0.226 C 
ATOM     22  O   UNL     1       3.322   5.401  -3.119  0.00  0.00    -0.275 OA
ATOM     23  H   UNL     1       1.648   5.988  -0.595  0.00  0.00    +0.149 HD
BRANCH  20  24
ATOM     24  C   UNL     1       1.979   3.996  -1.252  0.00  0.00    +0.112 C 
BRANCH  24  25
ATOM     25  C   UNL     1       1.252   3.562   0.022  0.00  0.00    +0.036 C 
BRANCH  25  26
ATOM     26  C   UNL     1       1.025   2.072  -0.013  0.00  0.00    -0.043 A 
ATOM     27  C   UNL     1      -0.262   1.568   0.035  0.00  0.00    +0.004 A 
ATOM     28  C   UNL     1      -0.470   0.201   0.003  0.00  0.00    +0.000 A 
ATOM     29  C   UNL     1       0.608  -0.660  -0.078  0.00  0.00    +0.000 A 
ATOM     30  C   UNL     1       1.894  -0.156  -0.125  0.00  0.00    +0.000 A 
ATOM     31  C   UNL     1       2.103   1.210  -0.093  0.00  0.00    +0.004 A 
ENDBRANCH  25  26
BRANCH  25  33
ATOM     32  C   UNL     1       1.322   3.597   2.519  0.00  0.00    +0.004 C 
ATOM     33  C   UNL     1       2.102   3.920   1.243  0.00  0.00    +0.006 C 
ENDBRANCH  25  33
ENDBRANCH  24  25
ENDBRANCH  20  24
ENDBRANCH  18  21
ENDBRANCH   1  18
TORSDOF 9
