REMARK  Name = ZINC54200423
REMARK  10 active torsions:
REMARK  status: ('A' for Active; 'I' for Inactive)
REMARK    1  A    between atoms: C_1  and  C_2
REMARK    2  A    between atoms: C_2  and  C_3
REMARK    3  A    between atoms: C_3  and  C_5
REMARK    4  A    between atoms: C_3  and  C_6
REMARK    5  A    between atoms: C_9  and  N_12
REMARK    6  A    between atoms: N_12  and  C_13
REMARK    7  A    between atoms: C_13  and  C_15
REMARK    8  A    between atoms: C_13  and  C_21
REMARK    9  A    between atoms: C_27  and  C_32
REMARK   10  A    between atoms: C_30  and  O_31
REMARK                            x       y       z     vdW  Elec       q    Type
REMARK                         _______ _______ _______ _____ _____    ______ ____
ROOT
ATOM      1  C   UNL     1      -2.031  -6.825  -1.621  0.00  0.00    +0.136 C 
ENDROOT
BRANCH   1   2
ATOM      2  C   UNL     1      -2.304  -8.271  -1.292  0.00  0.00    +0.021 A 
ATOM      3  C   UNL     1      -1.660  -8.859  -0.207  0.00  0.00    +0.010 A 
ATOM      4  C   UNL     1      -1.884 -10.163   0.117  0.00  0.00    +0.010 A 
ATOM      5  C   UNL     1      -2.776 -10.928  -0.652  0.00  0.00    +0.004 A 
ATOM      6  C   UNL     1      -3.034 -12.278  -0.347  0.00  0.00    +0.012 A 
ATOM      7  C   UNL     1      -3.914 -12.960  -1.139  0.00  0.00    +0.023 A 
ATOM      8  C   UNL     1      -4.527 -12.317  -2.212  0.00  0.00    +0.039 A 
ATOM      9  N   UNL     1      -4.284 -11.059  -2.491  0.00  0.00    -0.248 NA
ATOM     10  C   UNL     1      -3.434 -10.336  -1.757  0.00  0.00    +0.113 A 
ATOM     11  C   UNL     1      -3.182  -8.981  -2.059  0.00  0.00    +0.148 A 
ATOM     12  C   UNL     1      -5.494 -13.087  -3.073  0.00  0.00    +0.065 C 
BRANCH  11  13
ATOM     13  O   UNL     1      -3.804  -8.388  -3.111  0.00  0.00    -0.504 OA
ATOM     14  H   UNL     1      -3.322  -8.462  -3.946  0.00  0.00    +0.292 HD
ENDBRANCH  11  13
ENDBRANCH   1   2
BRANCH   1  15
ATOM     15  C   UNL     1      -0.914  -6.741  -2.629  0.00  0.00    -0.005 A 
ATOM     16  C   UNL     1      -1.194  -6.541  -3.972  0.00  0.00    +0.009 A 
ATOM     17  C   UNL     1      -0.134  -6.470  -4.863  0.00  0.00    +0.020 A 
ATOM     18  C   UNL     1       1.157  -6.601  -4.387  0.00  0.00    +0.111 A 
ATOM     19  N   UNL     1       1.385  -6.791  -3.102  0.00  0.00    -0.263 NA
ATOM     20  C   UNL     1       0.402  -6.858  -2.225  0.00  0.00    +0.116 A 
ENDBRANCH   1  15
BRANCH   1  21
ATOM     21  N   UNL     1      -1.644  -6.111  -0.402  0.00  0.00    -0.333 N 
ATOM     22  H   UNL     1      -1.251  -6.597   0.341  0.00  0.00    +0.147 HD
BRANCH  21  26
ATOM     23  C   UNL     1      -2.228  -1.998  -0.123  0.00  0.00    -0.044 A 
ATOM     24  C   UNL     1      -1.668  -2.689   0.936  0.00  0.00    +0.006 A 
ATOM     25  C   UNL     1      -1.473  -4.053   0.847  0.00  0.00    +0.023 A 
ATOM     26  C   UNL     1      -1.840  -4.732  -0.308  0.00  0.00    +0.028 A 
ATOM     27  C   UNL     1      -2.402  -4.035  -1.370  0.00  0.00    +0.023 A 
ATOM     28  C   UNL     1      -2.599  -2.671  -1.272  0.00  0.00    +0.006 A 
BRANCH  23  29
ATOM     29  C   UNL     1      -2.439  -0.509  -0.022  0.00  0.00    +0.016 C 
ATOM     30  C   UNL     1      -3.365  -0.204   1.157  0.00  0.00    +0.012 C 
BRANCH  29  32
ATOM     31  C   UNL     1      -1.289   1.700   0.173  0.00  0.00    +0.004 C 
ATOM     32  C   UNL     1      -1.092   0.183   0.195  0.00  0.00    +0.004 C 
ENDBRANCH  29  32
ENDBRANCH  23  29
ENDBRANCH  21  26
ENDBRANCH   1  21
TORSDOF 7
