REMARK  Name = ZINC43254531
REMARK  8 active torsions:
REMARK  status: ('A' for Active; 'I' for Inactive)
REMARK    1  A    between atoms: C_1  and  C_2
REMARK    2  A    between atoms: C_3  and  C_31
REMARK    3  A    between atoms: C_5  and  C_13
REMARK    4  A    between atoms: N_6  and  C_7
REMARK    5  A    between atoms: C_7  and  C_8
REMARK    6  A    between atoms: C_13  and  C_15
REMARK    7  A    between atoms: C_15  and  N_16
REMARK    8  A    between atoms: C_22  and  C_24
REMARK                            x       y       z     vdW  Elec       q    Type
REMARK                         _______ _______ _______ _____ _____    ______ ____
ROOT
ATOM      1  C   UNL     1      -1.059  -3.304   1.079  0.00  0.00    +0.193 C 
ATOM      2  O   UNL     1      -0.791  -3.080   2.242  0.00  0.00    -0.289 OA
ENDROOT
BRANCH   1   7
ATOM      3  C   UNL     1      -1.905   1.321  -0.581  0.00  0.00    +0.064 C 
ATOM      4  C   UNL     1      -1.754  -0.178  -0.535  0.00  0.00    +0.029 A 
ATOM      5  C   UNL     1      -1.938  -1.040  -1.602  0.00  0.00    +0.058 A 
ATOM      6  C   UNL     1      -1.698  -2.347  -1.128  0.00  0.00    +0.044 A 
ATOM      7  C   UNL     1      -1.376  -2.235   0.207  0.00  0.00    +0.087 A 
ATOM      8  N   UNL     1      -1.412  -0.897   0.544  0.00  0.00    -0.336 N 
BRANCH   5   9
ATOM      9  C   UNL     1      -2.316  -0.663  -2.976  0.00  0.00    +0.243 C 
ATOM     10  O   UNL     1      -2.495   0.506  -3.258  0.00  0.00    -0.270 OA
ATOM     11  N   UNL     1      -2.461  -1.614  -3.920  0.00  0.00    -0.325 N 
ATOM     12  H   UNL     1      -2.318  -2.546  -3.695  0.00  0.00    +0.145 HD
ATOM     13  H   UNL     1      -2.710  -1.365  -4.824  0.00  0.00    +0.145 HD
ENDBRANCH   5   9
BRANCH   8  14
ATOM     14  C   UNL     1      -1.125  -0.349   1.872  0.00  0.00    +0.164 C 
BRANCH  14  15
ATOM     15  C   UNL     1      -2.398  -0.289   2.677  0.00  0.00    +0.009 A 
ATOM     16  C   UNL     1      -2.934  -1.225   3.498  0.00  0.00    +0.013 A 
ATOM     17  C   UNL     1      -4.126  -0.949   4.141  0.00  0.00    +0.008 A 
ATOM     18  C   UNL     1      -4.724   0.250   3.932  0.00  0.00    +0.045 A 
ATOM     19  S   UNL     1      -3.588   1.036   2.801  0.00  0.00    -0.100 S 
ENDBRANCH  14  15
ENDBRANCH   8  14
ENDBRANCH   1   7
BRANCH   1  20
ATOM     20  C   UNL     1      -1.054  -4.720   0.564  0.00  0.00    +0.165 C 
BRANCH  20  21
ATOM     21  N   UNL     1      -0.697  -5.637   1.655  0.00  0.00    -0.292 NA
ATOM     22  C   UNL     1      -1.730  -5.641   2.699  0.00  0.00    +0.104 C 
ATOM     23  C   UNL     1      -1.240  -6.463   3.895  0.00  0.00    +0.123 C 
ATOM     24  N   UNL     1      -0.837  -7.794   3.414  0.00  0.00    -0.295 N 
ATOM     25  C   UNL     1       0.093  -7.870   2.277  0.00  0.00    +0.123 C 
ATOM     26  C   UNL     1      -0.450  -6.992   1.144  0.00  0.00    +0.104 C 
ATOM     27  C   UNL     1      -1.307  -8.913   3.999  0.00  0.00    +0.247 C 
ATOM     28  O   UNL     1      -2.019  -8.832   4.981  0.00  0.00    -0.270 OA
BRANCH  27  29
ATOM     29  C   UNL     1      -0.957 -10.238   3.447  0.00  0.00    +0.037 A 
ATOM     30  C   UNL     1       0.374 -10.548   3.160  0.00  0.00    +0.014 A 
ATOM     31  C   UNL     1       0.695 -11.787   2.646  0.00  0.00    +0.021 A 
ATOM     32  C   UNL     1      -0.300 -12.723   2.414  0.00  0.00    +0.041 A 
ATOM     33  C   UNL     1      -1.622 -12.421   2.698  0.00  0.00    +0.021 A 
ATOM     34  C   UNL     1      -1.954 -11.188   3.218  0.00  0.00    +0.014 A 
ATOM     35 CL   UNL     1       0.111 -14.280   1.766  0.00  0.00    -0.084 Cl
ENDBRANCH  27  29
ENDBRANCH  20  21
ENDBRANCH   1  20
TORSDOF 7
