REMARK  Name = ZINC33666182
REMARK  12 active torsions:
REMARK  status: ('A' for Active; 'I' for Inactive)
REMARK    1  A    between atoms: C_1  and  C_2
REMARK    2  A    between atoms: C_5  and  N_8
REMARK    3  A    between atoms: C_9  and  C_35
REMARK    4  A    between atoms: C_12  and  S_13
REMARK    5  A    between atoms: S_13  and  C_14
REMARK    6  A    between atoms: C_14  and  C_15
REMARK    7  A    between atoms: C_15  and  C_16
REMARK    8  A    between atoms: C_16  and  C_17
REMARK    9  A    between atoms: N_19  and  C_20
REMARK   10  A    between atoms: C_20  and  C_22
REMARK   11  A    between atoms: C_20  and  C_29
REMARK   12  A    between atoms: C_22  and  C_23
REMARK                            x       y       z     vdW  Elec       q    Type
REMARK                         _______ _______ _______ _____ _____    ______ ____
ROOT
ATOM      1  C   UNL     1      -3.292   3.228   5.660  0.00  0.00    +0.020 C 
ENDROOT
BRANCH   1   2
ATOM      2  C   UNL     1      -3.610   4.555   6.353  0.00  0.00    +0.078 C 
BRANCH   2   3
ATOM      3  S   UNL     1      -3.398   4.368   8.141  0.00  0.00    -0.086 S 
BRANCH   3   8
ATOM      4  N   UNL     1      -3.837   6.449   9.962  0.00  0.00    -0.268 N 
ATOM      5  C   UNL     1      -4.218   7.773   9.884  0.00  0.00    +0.205 A 
ATOM      6  N   UNL     1      -4.409   8.043   8.611  0.00  0.00    -0.125 NA
ATOM      7  N   UNL     1      -4.173   6.999   7.900  0.00  0.00    -0.122 NA
ATOM      8  C   UNL     1      -3.817   5.996   8.671  0.00  0.00    +0.196 A 
BRANCH   4  13
ATOM      9  C   UNL     1      -2.607   3.504  14.655  0.00  0.00    +0.044 C 
ATOM     10  C   UNL     1      -2.933   4.286  13.409  0.00  0.00    -0.050 A 
ATOM     11  C   UNL     1      -1.949   4.530  12.470  0.00  0.00    +0.005 A 
ATOM     12  C   UNL     1      -2.245   5.247  11.326  0.00  0.00    +0.026 A 
ATOM     13  C   UNL     1      -3.534   5.722  11.121  0.00  0.00    +0.051 A 
ATOM     14  C   UNL     1      -4.519   5.480  12.069  0.00  0.00    +0.026 A 
ATOM     15  C   UNL     1      -4.217   4.758  13.208  0.00  0.00    +0.005 A 
ENDBRANCH   4  13
BRANCH   5  16
ATOM     16  C   UNL     1      -4.386   8.704  11.010  0.00  0.00    +0.172 A 
ATOM     17  C   UNL     1      -5.027   9.905  10.967  0.00  0.00    +0.053 A 
ATOM     18  C   UNL     1      -4.949  10.453  12.262  0.00  0.00    +0.042 A 
ATOM     19  C   UNL     1      -4.266   9.575  13.023  0.00  0.00    +0.196 A 
ATOM     20  O   UNL     1      -3.927   8.519  12.264  0.00  0.00    -0.460 OA
ENDBRANCH   5  16
ENDBRANCH   3   8
ENDBRANCH   2   3
ENDBRANCH   1   2
BRANCH   1  21
ATOM     21  C   UNL     1      -3.472   3.386   4.149  0.00  0.00    +0.096 C 
BRANCH  21  22
ATOM     22  C   UNL     1      -3.159   2.080   3.467  0.00  0.00    +0.214 C 
ATOM     23  O   UNL     1      -2.825   1.117   4.125  0.00  0.00    -0.276 OA
ATOM     24  N   UNL     1      -3.249   1.981   2.126  0.00  0.00    -0.308 N 
ATOM     25  H   UNL     1      -3.552   2.854   1.529  0.00  0.00    +0.149 HD
BRANCH  24  26
ATOM     26  C   UNL     1      -2.945   0.711   1.462  0.00  0.00    +0.107 C 
BRANCH  26  27
ATOM     27  C   UNL     1      -4.172  -0.164   1.465  0.00  0.00    -0.027 A 
ATOM     28  C   UNL     1      -5.418   0.391   1.239  0.00  0.00    +0.005 A 
ATOM     29  C   UNL     1      -6.543  -0.412   1.237  0.00  0.00    +0.000 A 
ATOM     30  C   UNL     1      -6.423  -1.769   1.471  0.00  0.00    +0.000 A 
ATOM     31  C   UNL     1      -5.178  -2.324   1.703  0.00  0.00    +0.000 A 
ATOM     32  C   UNL     1      -4.053  -1.521   1.700  0.00  0.00    +0.005 A 
ENDBRANCH  26  27
BRANCH  26  33
ATOM     33  C   UNL     1      -2.514   0.980   0.019  0.00  0.00    +0.062 C 
BRANCH  33  34
ATOM     34  C   UNL     1      -1.219   1.751   0.017  0.00  0.00    -0.045 A 
ATOM     35  C   UNL     1      -0.013   1.076   0.008  0.00  0.00    +0.004 A 
ATOM     36  C   UNL     1       1.175   1.783   0.000  0.00  0.00    +0.000 A 
ATOM     37  C   UNL     1       1.156   3.165   0.008  0.00  0.00    +0.000 A 
ATOM     38  C   UNL     1      -0.050   3.840   0.022  0.00  0.00    +0.000 A 
ATOM     39  C   UNL     1      -1.238   3.133   0.030  0.00  0.00    +0.004 A 
ENDBRANCH  33  34
ENDBRANCH  26  33
ENDBRANCH  24  26
ENDBRANCH  21  22
ENDBRANCH   1  21
TORSDOF 11
