REMARK  Name = ZINC36206459
REMARK  15 active torsions:
REMARK  status: ('A' for Active; 'I' for Inactive)
REMARK    1  A    between atoms: C_1  and  C_2
REMARK    2  A    between atoms: C_5  and  C_9
REMARK    3  A    between atoms: C_6  and  C_8
REMARK    4  A    between atoms: C_18  and  C_20
REMARK    5  A    between atoms: C_20  and  N_21
REMARK    6  A    between atoms: N_21  and  C_22
REMARK    7  A    between atoms: N_21  and  C_27
REMARK    8  A    between atoms: C_22  and  C_23
REMARK    9  A    between atoms: C_23  and  C_24
REMARK   10  A    between atoms: C_24  and  O_25
REMARK   11  A    between atoms: O_25  and  C_26
REMARK   12  A    between atoms: C_27  and  C_28
REMARK   13  A    between atoms: C_28  and  C_29
REMARK   14  A    between atoms: C_28  and  C_30
REMARK   15  A    between atoms: C_28  and  O_31
REMARK                            x       y       z     vdW  Elec       q    Type
REMARK                         _______ _______ _______ _____ _____    ______ ____
ROOT
ATOM      1  C   UNL     1      -0.837  -2.897   0.722  0.00  0.00    +0.004 A 
ATOM      2  C   UNL     1      -0.041  -3.176  -0.339  0.00  0.00    +0.056 A 
ATOM      3  S   UNL     1      -0.355  -4.903  -0.648  0.00  0.00    -0.076 S 
ATOM      4  C   UNL     1      -1.536  -5.207   0.641  0.00  0.00    +0.116 A 
ATOM      5  C   UNL     1      -1.655  -3.965   1.284  0.00  0.00    +0.080 A 
ATOM      6  C   UNL     1      -2.561  -3.924   2.391  0.00  0.00    +0.260 A 
ATOM      7  O   UNL     1      -2.736  -2.888   3.011  0.00  0.00    -0.267 OA
ATOM      8  N   UNL     1      -3.219  -5.046   2.738  0.00  0.00    -0.312 N 
ATOM      9  H   UNL     1      -3.834  -5.024   3.487  0.00  0.00    +0.170 HD
ATOM     10  C   UNL     1      -3.038  -6.208   2.059  0.00  0.00    +0.094 A 
ATOM     11  N   UNL     1      -2.225  -6.274   1.038  0.00  0.00    -0.229 NA
ENDROOT
BRANCH   1  16
ATOM     12  C   UNL     1      -0.971   2.399   2.979  0.00  0.00    +0.044 C 
ATOM     13  C   UNL     1      -0.936   1.013   2.388  0.00  0.00    -0.050 A 
ATOM     14  C   UNL     1      -1.393   0.801   1.099  0.00  0.00    +0.004 A 
ATOM     15  C   UNL     1      -1.363  -0.465   0.553  0.00  0.00    +0.009 A 
ATOM     16  C   UNL     1      -0.871  -1.533   1.303  0.00  0.00    -0.014 A 
ATOM     17  C   UNL     1      -0.412  -1.314   2.600  0.00  0.00    -0.042 A 
ATOM     18  C   UNL     1      -0.441  -0.042   3.134  0.00  0.00    +0.007 A 
ATOM     19  C   UNL     1       0.122  -2.463   3.417  0.00  0.00    +0.044 C 
ENDBRANCH   1  16
BRANCH  10  20
ATOM     20  C   UNL     1      -3.796  -7.439   2.483  0.00  0.00    -0.003 C 
BRANCH  20  21
ATOM     21  N   UNL     1      -3.323  -8.595   1.710  0.00  0.00    +0.386 N 
ATOM     22  H   UNL     1      -2.952  -8.280   0.826  0.00  0.00    -0.081 HD
BRANCH  21  23
ATOM     23  C   UNL     1      -4.443  -9.516   1.471  0.00  0.00    -0.076 C 
BRANCH  23  24
ATOM     24  C   UNL     1      -3.991 -10.636   0.532  0.00  0.00    +0.009 C 
BRANCH  24  25
ATOM     25  C   UNL     1      -5.189 -11.521   0.181  0.00  0.00    +0.157 C 
BRANCH  25  26
ATOM     26  O   UNL     1      -4.767 -12.567  -0.697  0.00  0.00    -0.383 OA
ATOM     27  C   UNL     1      -5.816 -13.456  -1.088  0.00  0.00    +0.193 C 
ENDBRANCH  25  26
ENDBRANCH  24  25
ENDBRANCH  23  24
ENDBRANCH  21  23
BRANCH  21  28
ATOM     28  C   UNL     1      -2.270  -9.290   2.463  0.00  0.00    -0.044 C 
BRANCH  28  29
ATOM     29  C   UNL     1      -0.906  -8.708   2.088  0.00  0.00    +0.046 C 
ATOM     30  C   UNL     1       0.192  -9.441   2.861  0.00  0.00    +0.039 C 
ATOM     31  C   UNL     1      -0.673  -8.880   0.585  0.00  0.00    +0.039 C 
BRANCH  29  32
ATOM     32  O   UNL     1      -0.874  -7.318   2.419  0.00  0.00    -0.391 OA
ATOM     33  H   UNL     1      -0.063  -6.868   2.148  0.00  0.00    +0.210 HD
ENDBRANCH  29  32
ENDBRANCH  28  29
ENDBRANCH  21  28
ENDBRANCH  20  21
ENDBRANCH  10  20
TORSDOF 10
