REMARK  Name = ZINC25677399
REMARK  12 active torsions:
REMARK  status: ('A' for Active; 'I' for Inactive)
REMARK    1  A    between atoms: C_1  and  C_2
REMARK    2  A    between atoms: C_5  and  S_9
REMARK    3  A    between atoms: C_6  and  C_8
REMARK    4  A    between atoms: S_9  and  N_12
REMARK    5  A    between atoms: N_15  and  C_18
REMARK    6  A    between atoms: C_18  and  C_19
REMARK    7  A    between atoms: N_21  and  C_22
REMARK    8  A    between atoms: C_22  and  C_23
REMARK    9  A    between atoms: C_23  and  S_24
REMARK   10  A    between atoms: S_24  and  C_25
REMARK   11  A    between atoms: C_25  and  C_26
REMARK   12  A    between atoms: C_31  and  C_32
REMARK                            x       y       z     vdW  Elec       q    Type
REMARK                         _______ _______ _______ _____ _____    ______ ____
ROOT
ATOM      1  N   UNL     1       9.528  -3.590  -6.846  0.00  0.00    -0.180 NA
ATOM      2  C   UNL     1      10.389  -2.616  -6.157  0.00  0.00    +0.091 C 
ATOM      3  C   UNL     1      10.069  -2.659  -4.659  0.00  0.00    -0.061 C 
ATOM      4  N   UNL     1       8.627  -2.462  -4.463  0.00  0.00    +0.387 N 
ATOM      5  C   UNL     1       7.852  -3.548  -5.077  0.00  0.00    -0.061 C 
ATOM      6  C   UNL     1       8.081  -3.542  -6.593  0.00  0.00    +0.091 C 
ATOM      7  H   UNL     1       8.346  -1.525  -4.967  0.00  0.00    -0.081 HD
ENDROOT
BRANCH   1   8
ATOM      8  S   UNL     1      10.173  -4.711  -7.881  0.00  0.00    +0.061 S 
ATOM      9  O   UNL     1       9.166  -5.006  -8.839  0.00  0.00    -0.153 OA
ATOM     10  O   UNL     1      11.459  -4.231  -8.251  0.00  0.00    -0.153 OA
BRANCH   8  15
ATOM     11  C   UNL     1      11.068  -9.763  -4.707  0.00  0.00    +0.044 C 
ATOM     12  C   UNL     1      10.844  -8.501  -5.499  0.00  0.00    -0.050 A 
ATOM     13  C   UNL     1       9.897  -8.476  -6.506  0.00  0.00    +0.005 A 
ATOM     14  C   UNL     1       9.692  -7.318  -7.233  0.00  0.00    +0.029 A 
ATOM     15  C   UNL     1      10.434  -6.186  -6.954  0.00  0.00    +0.108 A 
ATOM     16  C   UNL     1      11.385  -6.213  -5.951  0.00  0.00    -0.024 A 
ATOM     17  C   UNL     1      11.587  -7.369  -5.220  0.00  0.00    +0.008 A 
ATOM     18  C   UNL     1      12.199  -4.981  -5.651  0.00  0.00    +0.046 C 
ENDBRANCH   8  15
ENDBRANCH   1   8
BRANCH   4  19
ATOM     19  C   UNL     1       8.302  -2.325  -3.037  0.00  0.00    +0.019 C 
BRANCH  19  20
ATOM     20  C   UNL     1       6.870  -1.882  -2.888  0.00  0.00    +0.196 C 
ATOM     21  O   UNL     1       6.186  -1.698  -3.873  0.00  0.00    -0.278 OA
ATOM     22  N   UNL     1       6.348  -1.690  -1.660  0.00  0.00    -0.316 N 
ATOM     23  H   UNL     1       6.968  -1.856  -0.767  0.00  0.00    +0.149 HD
BRANCH  22  24
ATOM     24  C   UNL     1       4.955  -1.259  -1.515  0.00  0.00    +0.115 C 
BRANCH  24  25
ATOM     25  C   UNL     1       4.618  -1.116  -0.030  0.00  0.00    +0.088 C 
BRANCH  25  26
ATOM     26  S   UNL     1       2.893  -0.584   0.150  0.00  0.00    -0.154 S 
BRANCH  26  27
ATOM     27  C   UNL     1       2.655  -0.463   1.944  0.00  0.00    +0.105 C 
BRANCH  27  28
ATOM     28  C   UNL     1       1.244  -0.023   2.236  0.00  0.00    -0.020 A 
ATOM     29  C   UNL     1       0.946   1.320   2.339  0.00  0.00    +0.006 A 
ATOM     30  C   UNL     1      -0.350   1.726   2.605  0.00  0.00    +0.000 A 
ATOM     31  C   UNL     1      -1.355   0.789   2.770  0.00  0.00    +0.001 A 
ATOM     32  C   UNL     1      -1.072  -0.557   2.665  0.00  0.00    +0.019 A 
ATOM     33  C   UNL     1       0.235  -0.974   2.401  0.00  0.00    +0.056 A 
BRANCH  33  34
ATOM     34  C   UNL     1       0.537  -2.369   2.296  0.00  0.00    +0.099 C 
ATOM     35  N   UNL     1       0.777  -3.477   2.212  0.00  0.00    -0.191 NA
ENDBRANCH  33  34
ENDBRANCH  27  28
ENDBRANCH  26  27
ENDBRANCH  25  26
ENDBRANCH  24  25
ENDBRANCH  22  24
ENDBRANCH  19  20
ENDBRANCH   4  19
TORSDOF 10
