REMARK  Name = ZINC67387698
REMARK  8 active torsions:
REMARK  status: ('A' for Active; 'I' for Inactive)
REMARK    1  A    between atoms: C_1  and  C_2
REMARK    2  A    between atoms: C_2  and  C_3
REMARK    3  A    between atoms: C_2  and  C_4
REMARK    4  A    between atoms: C_4  and  C_5
REMARK    5  A    between atoms: C_5  and  C_6
REMARK    6  A    between atoms: N_8  and  N_9
REMARK    7  A    between atoms: N_12  and  C_13
REMARK    8  A    between atoms: C_19  and  C_21
REMARK                            x       y       z     vdW  Elec       q    Type
REMARK                         _______ _______ _______ _____ _____    ______ ____
ROOT
ATOM      1  N   UNL     1       0.857  -0.860   6.081  0.00  0.00    -0.218 N 
ATOM      2  C   UNL     1       0.349  -0.633   7.309  0.00  0.00    +0.316 C 
ATOM      3  O   UNL     1       0.937  -1.036   8.294  0.00  0.00    -0.251 OA
ATOM      4  N   UNL     1      -0.810   0.040   7.444  0.00  0.00    -0.295 N 
ATOM      5  H   UNL     1       1.692  -1.345   5.983  0.00  0.00    +0.174 HD
ATOM      6  H   UNL     1      -1.279   0.361   6.659  0.00  0.00    +0.151 HD
ENDROOT
BRANCH   4   7
ATOM      7  C   UNL     1      -1.362   0.287   8.779  0.00  0.00    +0.086 C 
ATOM      8  C   UNL     1      -0.730   1.550   9.367  0.00  0.00    +0.023 C 
ATOM      9  C   UNL     1      -1.036   2.743   8.460  0.00  0.00    +0.002 C 
ATOM     10  C   UNL     1      -2.551   2.931   8.358  0.00  0.00    +0.001 C 
ATOM     11  C   UNL     1      -3.183   1.668   7.770  0.00  0.00    +0.014 C 
ATOM     12  C   UNL     1      -2.877   0.474   8.677  0.00  0.00    +0.113 C 
BRANCH  12  13
ATOM     13  C   UNL     1      -3.510  -0.788   8.089  0.00  0.00    +0.395 C 
ATOM     14  F   UNL     1      -3.229  -1.880   8.919  0.00  0.00    -0.170 F 
ATOM     15  F   UNL     1      -4.895  -0.617   7.997  0.00  0.00    -0.170 F 
ATOM     16  F   UNL     1      -2.982  -1.024   6.815  0.00  0.00    -0.170 F 
ENDBRANCH  12  13
ENDBRANCH   4   7
BRANCH   1  19
ATOM     17  C   UNL     1       0.687  -0.623   3.718  0.00  0.00    +0.229 C 
ATOM     18  O   UNL     1       1.731  -1.229   3.596  0.00  0.00    -0.274 OA
ATOM     19  N   UNL     1       0.179  -0.396   4.946  0.00  0.00    -0.233 N 
ATOM     20  H   UNL     1      -0.655   0.089   5.044  0.00  0.00    +0.173 HD
BRANCH  17  21
ATOM     21  C   UNL     1      -0.042  -0.124   2.497  0.00  0.00    +0.097 C 
BRANCH  21  22
ATOM     22  C   UNL     1       0.742  -0.511   1.242  0.00  0.00    +0.012 C 
BRANCH  22  24
ATOM     23  C   UNL     1      -0.019   1.526   0.010  0.00  0.00    +0.007 C 
ATOM     24  C   UNL     1       0.002  -0.004   0.002  0.00  0.00    -0.017 C 
ATOM     25  C   UNL     1       0.718  -0.497  -1.257  0.00  0.00    +0.007 C 
ENDBRANCH  22  24
ENDBRANCH  21  22
ENDBRANCH  17  21
ENDBRANCH   1  19
TORSDOF 6
