REMARK  Name = ZINC35575948
REMARK  6 active torsions:
REMARK  status: ('A' for Active; 'I' for Inactive)
REMARK    1  A    between atoms: C_1  and  C_2
REMARK    2  A    between atoms: C_5  and  N_9
REMARK    3  A    between atoms: C_10  and  C_16
REMARK    4  A    between atoms: C_19  and  N_22
REMARK    5  A    between atoms: C_23  and  C_25
REMARK    6  A    between atoms: C_26  and  C_27
REMARK                            x       y       z     vdW  Elec       q    Type
REMARK                         _______ _______ _______ _____ _____    ______ ____
ROOT
ATOM      1  C   UNL     1       1.265  -4.351   2.112  0.00  0.00    -0.017 A 
ATOM      2  C   UNL     1       2.359  -3.748   1.518  0.00  0.00    +0.008 A 
ATOM      3  C   UNL     1       3.378  -3.239   2.300  0.00  0.00    +0.023 A 
ATOM      4  C   UNL     1       3.303  -3.332   3.684  0.00  0.00    +0.034 A 
ATOM      5  C   UNL     1       2.202  -3.938   4.277  0.00  0.00    +0.023 A 
ATOM      6  C   UNL     1       1.185  -4.440   3.490  0.00  0.00    +0.008 A 
ENDROOT
BRANCH   1   8
ATOM      7  N   UNL     1       0.031  -4.150  -0.005  0.00  0.00    -0.254 N 
ATOM      8  C   UNL     1       0.156  -4.905   1.256  0.00  0.00    +0.170 C 
ATOM      9  S   UNL     1       0.579  -6.588   0.630  0.00  0.00    -0.124 S 
ATOM     10  C   UNL     1      -0.042  -6.331  -1.089  0.00  0.00    +0.167 C 
ATOM     11  C   UNL     1      -0.074  -4.812  -1.149  0.00  0.00    +0.231 C 
ATOM     12  O   UNL     1      -0.188  -4.228  -2.206  0.00  0.00    -0.274 OA
BRANCH   7  17
ATOM     13  C   UNL     1      -0.026   1.524   0.048  0.00  0.00    +0.047 C 
ATOM     14  C   UNL     1      -0.010   0.017   0.033  0.00  0.00    -0.015 A 
ATOM     15  C   UNL     1      -1.032  -0.689   0.640  0.00  0.00    +0.008 A 
ATOM     16  C   UNL     1      -1.021  -2.070   0.629  0.00  0.00    +0.024 A 
ATOM     17  C   UNL     1       0.018  -2.751   0.007  0.00  0.00    +0.040 A 
ATOM     18  C   UNL     1       1.043  -2.041  -0.603  0.00  0.00    +0.062 A 
ATOM     19  C   UNL     1       1.024  -0.657  -0.593  0.00  0.00    +0.128 A 
ATOM     20  F   UNL     1       2.018   0.035  -1.191  0.00  0.00    -0.205 F 
ENDBRANCH   7  17
ENDBRANCH   1   8
BRANCH   4  21
ATOM     21  N   UNL     1       4.332  -2.818   4.478  0.00  0.00    -0.282 N 
ATOM     22  C   UNL     1       4.670  -3.437   5.626  0.00  0.00    +0.241 C 
ATOM     23  O   UNL     1       4.148  -4.495   5.924  0.00  0.00    -0.270 OA
ATOM     24  H   UNL     1       4.803  -2.017   4.202  0.00  0.00    +0.155 HD
BRANCH  22  25
ATOM     25  C   UNL     1       5.665  -2.836   6.516  0.00  0.00    +0.068 C 
ATOM     26  C   UNL     1       6.003  -3.455   7.665  0.00  0.00    +0.013 C 
BRANCH  26  27
ATOM     27  C   UNL     1       7.004  -2.851   8.560  0.00  0.00    -0.025 A 
ATOM     28  C   UNL     1       7.602  -1.632   8.224  0.00  0.00    +0.008 A 
ATOM     29  C   UNL     1       8.538  -1.072   9.067  0.00  0.00    +0.001 A 
ATOM     30  C   UNL     1       8.887  -1.713  10.243  0.00  0.00    +0.000 A 
ATOM     31  C   UNL     1       8.300  -2.920  10.582  0.00  0.00    +0.001 A 
ATOM     32  C   UNL     1       7.357  -3.490   9.752  0.00  0.00    +0.008 A 
ENDBRANCH  26  27
ENDBRANCH  22  25
ENDBRANCH   4  21
TORSDOF 5
