REMARK  Name = ZINC48971515
REMARK  7 active torsions:
REMARK  status: ('A' for Active; 'I' for Inactive)
REMARK    1  A    between atoms: C_1  and  N_2
REMARK    2  A    between atoms: N_2  and  C_3
REMARK    3  A    between atoms: N_2  and  C_10
REMARK    4  A    between atoms: C_3  and  C_4
REMARK    5  A    between atoms: C_13  and  S_17
REMARK    6  A    between atoms: C_15  and  N_16
REMARK    7  A    between atoms: S_17  and  N_20
REMARK                            x       y       z     vdW  Elec       q    Type
REMARK                         _______ _______ _______ _____ _____    ______ ____
ROOT
ATOM      1  C   UNL     1       0.000  -0.698  -1.214  0.00  0.00    +0.051 A 
ATOM      2  C   UNL     1       1.199  -1.031  -1.827  0.00  0.00    +0.027 A 
ATOM      3  C   UNL     1       1.194  -1.716  -3.028  0.00  0.00    +0.030 A 
ATOM      4  C   UNL     1      -0.003  -2.071  -3.621  0.00  0.00    +0.107 A 
ATOM      5  C   UNL     1      -1.203  -1.743  -3.018  0.00  0.00    +0.053 A 
ATOM      6  C   UNL     1      -1.208  -1.060  -1.810  0.00  0.00    +0.048 A 
ENDROOT
BRANCH   6   7
ATOM      7  N   UNL     1      -2.421  -0.732  -1.195  0.00  0.00    -0.356 N 
ATOM      8  H   UNL     1      -2.423  -0.251  -0.352  0.00  0.00    +0.142 HD
ATOM      9  H   UNL     1      -3.260  -0.985  -1.610  0.00  0.00    +0.142 HD
ENDBRANCH   6   7
BRANCH   4  10
ATOM     10  S   UNL     1       0.000  -2.944  -5.152  0.00  0.00    +0.056 S 
ATOM     11  O   UNL     1      -1.251  -2.681  -5.772  0.00  0.00    -0.153 OA
ATOM     12  O   UNL     1       1.240  -2.652  -5.783  0.00  0.00    -0.153 OA
BRANCH  10  13
ATOM     13  N   UNL     1       0.020  -4.560  -4.794  0.00  0.00    -0.204 NA
ATOM     14  H   UNL     1       0.028  -4.852  -3.869  0.00  0.00    +0.144 HD
ATOM     15  H   UNL     1       0.025  -5.215  -5.509  0.00  0.00    +0.144 HD
ENDBRANCH  10  13
ENDBRANCH   4  10
BRANCH   1  17
ATOM     16  C   UNL     1      -0.018   1.461   0.010  0.00  0.00    +0.129 C 
ATOM     17  N   UNL     1       0.002  -0.004   0.002  0.00  0.00    -0.327 N 
BRANCH  17  18
ATOM     18  C   UNL     1       0.024  -0.743   1.267  0.00  0.00    +0.147 C 
BRANCH  18  19
ATOM     19  C   UNL     1      -1.389  -1.016   1.714  0.00  0.00    +0.008 A 
ATOM     20  C   UNL     1      -2.180  -2.082   1.440  0.00  0.00    +0.014 A 
ATOM     21  C   UNL     1      -3.459  -2.121   1.964  0.00  0.00    +0.028 A 
ATOM     22  C   UNL     1      -3.883  -1.090   2.737  0.00  0.00    +0.078 A 
ATOM     23  S   UNL     1      -2.452  -0.022   2.748  0.00  0.00    -0.080 S 
ATOM     24 CL   UNL     1      -5.418  -0.869   3.518  0.00  0.00    -0.076 Cl
ENDBRANCH  18  19
ENDBRANCH  17  18
ENDBRANCH   1  17
TORSDOF 6
