REMARK  Name = ZINC39327996
REMARK  14 active torsions:
REMARK  status: ('A' for Active; 'I' for Inactive)
REMARK    1  A    between atoms: C_1  and  C_2
REMARK    2  A    between atoms: C_2  and  O_3
REMARK    3  A    between atoms: O_3  and  C_4
REMARK    4  A    between atoms: C_4  and  C_6
REMARK    5  A    between atoms: C_7  and  C_25
REMARK    6  A    between atoms: C_9  and  N_24
REMARK    7  A    between atoms: C_10  and  C_22
REMARK    8  A    between atoms: C_11  and  C_13
REMARK    9  A    between atoms: C_16  and  C_19
REMARK   10  A    between atoms: C_19  and  C_20
REMARK   11  A    between atoms: C_19  and  C_21
REMARK   12  A    between atoms: C_25  and  S_26
REMARK   13  A    between atoms: S_26  and  C_27
REMARK   14  A    between atoms: C_28  and  C_36
REMARK                            x       y       z     vdW  Elec       q    Type
REMARK                         _______ _______ _______ _____ _____    ______ ____
ROOT
ATOM      1  C   UNL     1       1.330  -2.341  -2.532  0.00  0.00    +0.088 C 
ATOM      2  C   UNL     1       1.609  -3.650  -2.580  0.00  0.00    +0.128 C 
ATOM      3  O   UNL     1       2.315  -4.189  -3.586  0.00  0.00    -0.444 OA
ATOM      4  C   UNL     1       2.444  -3.522  -4.747  0.00  0.00    +0.198 C 
ATOM      5  C   UNL     1       2.212  -2.189  -4.827  0.00  0.00    +0.098 C 
ATOM      6  C   UNL     1       1.795  -1.405  -3.615  0.00  0.00    +0.105 C 
ENDROOT
BRANCH   6   7
ATOM      7  C   UNL     1       2.969  -0.604  -3.114  0.00  0.00    -0.034 A 
ATOM      8  C   UNL     1       4.125  -1.248  -2.715  0.00  0.00    +0.005 A 
ATOM      9  C   UNL     1       5.202  -0.513  -2.255  0.00  0.00    +0.004 A 
ATOM     10  C   UNL     1       5.123   0.866  -2.196  0.00  0.00    -0.045 A 
ATOM     11  C   UNL     1       3.966   1.510  -2.596  0.00  0.00    +0.004 A 
ATOM     12  C   UNL     1       2.891   0.775  -3.059  0.00  0.00    +0.005 A 
BRANCH  10  13
ATOM     13  C   UNL     1       6.296   1.667  -1.694  0.00  0.00    +0.013 C 
ATOM     14  C   UNL     1       6.767   2.624  -2.791  0.00  0.00    +0.012 C 
ATOM     15  C   UNL     1       5.875   2.472  -0.462  0.00  0.00    +0.012 C 
ENDBRANCH  10  13
ENDBRANCH   6   7
BRANCH   4  16
ATOM     16  N   UNL     1       2.820  -4.206  -5.877  0.00  0.00    -0.328 N 
ATOM     17  H   UNL     1       2.989  -5.160  -5.832  0.00  0.00    +0.145 HD
ATOM     18  H   UNL     1       2.916  -3.736  -6.719  0.00  0.00    +0.145 HD
ENDBRANCH   4  16
BRANCH   1  19
ATOM     19  C   UNL     1       0.580  -1.829  -1.445  0.00  0.00    +0.339 C 
ATOM     20  O   UNL     1      -0.609  -1.605  -1.578  0.00  0.00    -0.245 OA
BRANCH  19  21
ATOM     21  O   UNL     1       1.183  -1.588  -0.262  0.00  0.00    -0.462 OA
BRANCH  21  23
ATOM     22  C   UNL     1       1.218  -0.865   2.043  0.00  0.00    +0.048 C 
ATOM     23  C   UNL     1       0.365  -1.072   0.790  0.00  0.00    +0.229 C 
ENDBRANCH  21  23
ENDBRANCH  19  21
ENDBRANCH   1  19
BRANCH   5  24
ATOM     24  C   UNL     1       2.362  -1.519  -6.084  0.00  0.00    +0.101 C 
ATOM     25  N   UNL     1       2.481  -0.987  -7.081  0.00  0.00    -0.191 NA
ENDBRANCH   5  24
BRANCH   2  26
ATOM     26  C   UNL     1       1.115  -4.544  -1.472  0.00  0.00    +0.150 C 
BRANCH  26  27
ATOM     27  S   UNL     1      -0.304  -5.508  -2.060  0.00  0.00    -0.097 S 
BRANCH  27  28
ATOM     28  C   UNL     1      -0.758  -6.489  -0.668  0.00  0.00    +0.115 A 
ATOM     29  C   UNL     1      -1.841  -7.382  -0.766  0.00  0.00    +0.084 A 
ATOM     30  C   UNL     1      -2.179  -8.148   0.354  0.00  0.00    +0.027 A 
ATOM     31  C   UNL     1      -1.433  -7.995   1.512  0.00  0.00    -0.025 A 
ATOM     32  C   UNL     1      -0.381  -7.096   1.535  0.00  0.00    +0.046 A 
ATOM     33  N   UNL     1      -0.077  -6.386   0.460  0.00  0.00    -0.244 NA
ATOM     34  C   UNL     1       0.271  -7.114   2.903  0.00  0.00    +0.056 C 
ATOM     35  C   UNL     1      -0.760  -7.786   3.834  0.00  0.00    +0.011 C 
ATOM     36  C   UNL     1      -1.560  -8.674   2.858  0.00  0.00    +0.037 C 
BRANCH  29  37
ATOM     37  C   UNL     1      -2.581  -7.504  -1.985  0.00  0.00    +0.102 C 
ATOM     38  N   UNL     1      -3.168  -7.601  -2.953  0.00  0.00    -0.191 NA
ENDBRANCH  29  37
ENDBRANCH  27  28
ENDBRANCH  26  27
ENDBRANCH   2  26
TORSDOF 11
