REMARK  Name = ZINC22473225
REMARK  9 active torsions:
REMARK  status: ('A' for Active; 'I' for Inactive)
REMARK    1  A    between atoms: C_4  and  C_7
REMARK    2  A    between atoms: C_7  and  N_8
REMARK    3  A    between atoms: N_8  and  C_9
REMARK    4  A    between atoms: C_9  and  C_10
REMARK    5  A    between atoms: C_10  and  C_11
REMARK    6  A    between atoms: C_11  and  N_12
REMARK    7  A    between atoms: C_15  and  O_16
REMARK    8  A    between atoms: C_24  and  C_26
REMARK    9  A    between atoms: C_27  and  C_28
REMARK                            x       y       z     vdW  Elec       q    Type
REMARK                         _______ _______ _______ _____ _____    ______ ____
ROOT
ATOM      1  N   UNL     1      -0.020   1.094   2.454  0.00  0.00    -0.294 N 
ATOM      2  C   UNL     1      -0.355  -0.091   3.001  0.00  0.00    +0.240 C 
ATOM      3  O   UNL     1      -1.247  -0.759   2.509  0.00  0.00    -0.271 OA
ENDROOT
BRANCH   2   4
ATOM      4  C   UNL     1       0.329  -0.560   4.147  0.00  0.00    +0.071 C 
ATOM      5  C   UNL     1      -0.008  -1.753   4.698  0.00  0.00    +0.051 C 
BRANCH   5   6
ATOM      6  C   UNL     1       0.677  -2.222   5.845  0.00  0.00    +0.128 A 
ATOM      7  C   UNL     1       0.436  -3.408   6.508  0.00  0.00    +0.049 A 
ATOM      8  C   UNL     1       1.345  -3.461   7.575  0.00  0.00    +0.042 A 
ATOM      9  C   UNL     1       2.082  -2.329   7.529  0.00  0.00    +0.195 A 
ATOM     10  O   UNL     1       1.679  -1.587   6.489  0.00  0.00    -0.464 OA
ENDBRANCH   5   6
ENDBRANCH   2   4
BRANCH   1  11
ATOM     11  C   UNL     1       1.052   1.897   3.046  0.00  0.00    +0.143 C 
BRANCH  11  15
ATOM     12  C   UNL     1      -0.593   4.527   5.982  0.00  0.00    +0.000 A 
ATOM     13  C   UNL     1      -0.164   3.265   6.348  0.00  0.00    +0.000 A 
ATOM     14  C   UNL     1       0.368   2.413   5.397  0.00  0.00    +0.005 A 
ATOM     15  C   UNL     1       0.472   2.825   4.082  0.00  0.00    -0.030 A 
ATOM     16  C   UNL     1       0.048   4.089   3.717  0.00  0.00    +0.005 A 
ATOM     17  C   UNL     1      -0.489   4.938   4.667  0.00  0.00    +0.000 A 
ENDBRANCH  11  15
ENDBRANCH   1  11
BRANCH   1  18
ATOM     18  C   UNL     1      -0.729   1.579   1.267  0.00  0.00    +0.110 C 
BRANCH  18  19
ATOM     19  C   UNL     1      -0.013   1.086   0.008  0.00  0.00    +0.040 C 
BRANCH  19  20
ATOM     20  C   UNL     1      -0.753   1.593  -1.232  0.00  0.00    +0.114 C 
BRANCH  20  21
ATOM     21  N   UNL     1      -0.067   1.120  -2.437  0.00  0.00    -0.384 N 
ATOM     22  C   UNL     1      -0.554   1.453  -3.681  0.00  0.00    +0.053 A 
ATOM     23  C   UNL     1      -1.679   2.226  -3.817  0.00  0.00    +0.113 A 
ATOM     24  C   UNL     1      -2.150   2.548  -5.096  0.00  0.00    +0.286 A 
ATOM     25  O   UNL     1      -1.530   2.120  -6.208  0.00  0.00    -0.425 OA
ATOM     26  C   UNL     1      -0.418   1.356  -6.153  0.00  0.00    +0.141 A 
ATOM     27  C   UNL     1       0.121   0.996  -4.908  0.00  0.00    +0.041 A 
ATOM     28  C   UNL     1       1.274   0.212  -4.846  0.00  0.00    +0.013 A 
ATOM     29  C   UNL     1       1.881  -0.199  -6.012  0.00  0.00    +0.001 A 
ATOM     30  C   UNL     1       1.352   0.162  -7.242  0.00  0.00    +0.004 A 
ATOM     31  C   UNL     1       0.206   0.926  -7.317  0.00  0.00    +0.047 A 
ATOM     32  H   UNL     1       0.837   0.499  -2.348  0.00  0.00    +0.160 HD
BRANCH  24  33
ATOM     33  O   UNL     1      -3.151   3.235  -5.203  0.00  0.00    -0.480 OA
ATOM     34  H   UNL     1      -3.534   3.497  -6.200  0.00  0.00    +0.295 HD
ENDBRANCH  24  33
ENDBRANCH  20  21
ENDBRANCH  19  20
ENDBRANCH  18  19
ENDBRANCH   1  18
TORSDOF 9
