REMARK  Name = ZINC66674165
REMARK  7 active torsions:
REMARK  status: ('A' for Active; 'I' for Inactive)
REMARK    1  A    between atoms: C_1  and  C_2
REMARK    2  A    between atoms: C_2  and  C_4
REMARK    3  A    between atoms: C_2  and  N_15
REMARK    4  A    between atoms: C_7  and  S_10
REMARK    5  A    between atoms: S_10  and  N_13
REMARK    6  A    between atoms: N_13  and  C_14
REMARK    7  A    between atoms: C_16  and  C_18
REMARK                            x       y       z     vdW  Elec       q    Type
REMARK                         _______ _______ _______ _____ _____    ______ ____
ROOT
ATOM      1  C   UNL     1      -0.019   1.526   0.010  0.00  0.00    +0.033 C 
ATOM      2  C   UNL     1       0.002  -0.004   0.002  0.00  0.00    +0.100 C 
ENDROOT
BRANCH   2   3
ATOM      3  C   UNL     1       0.731  -0.503   1.223  0.00  0.00    -0.027 A 
ATOM      4  C   UNL     1       0.081  -0.558   2.442  0.00  0.00    +0.007 A 
ATOM      5  C   UNL     1       0.749  -1.016   3.562  0.00  0.00    +0.029 A 
ATOM      6  C   UNL     1       2.068  -1.420   3.463  0.00  0.00    +0.105 A 
ATOM      7  C   UNL     1       2.718  -1.365   2.244  0.00  0.00    +0.029 A 
ATOM      8  C   UNL     1       2.048  -0.911   1.123  0.00  0.00    +0.007 A 
BRANCH   6   9
ATOM      9  S   UNL     1       2.921  -2.002   4.890  0.00  0.00    +0.058 S 
ATOM     10  O   UNL     1       4.306  -1.804   4.645  0.00  0.00    -0.153 OA
ATOM     11  O   UNL     1       2.259  -1.441   6.016  0.00  0.00    -0.153 OA
BRANCH   9  12
ATOM     12  N   UNL     1       2.683  -3.639   4.969  0.00  0.00    -0.193 NA
ATOM     13  C   UNL     1       3.227  -4.509   3.924  0.00  0.00    +0.127 C 
ATOM     14  H   UNL     1       2.183  -4.022   5.707  0.00  0.00    +0.148 HD
ENDBRANCH   9  12
ENDBRANCH   6   9
ENDBRANCH   2   3
BRANCH   2  15
ATOM     15  N   UNL     1      -1.372  -0.511   0.012  0.00  0.00    -0.308 N 
ATOM     16  C   UNL     1      -2.051  -0.643  -1.145  0.00  0.00    +0.220 C 
ATOM     17  O   UNL     1      -1.524  -0.341  -2.194  0.00  0.00    -0.275 OA
ATOM     18  H   UNL     1      -1.794  -0.752   0.852  0.00  0.00    +0.149 HD
BRANCH  16  19
ATOM     19  C   UNL     1      -3.465  -1.164  -1.134  0.00  0.00    +0.048 C 
ATOM     20  C   UNL     1      -4.344  -0.237  -0.293  0.00  0.00    +0.019 C 
ATOM     21  C   UNL     1      -5.779  -0.766  -0.282  0.00  0.00    -0.009 C 
ATOM     22  C   UNL     1      -6.315  -0.817  -1.714  0.00  0.00    +0.007 C 
ATOM     23  C   UNL     1      -5.436  -1.745  -2.555  0.00  0.00    -0.009 C 
ATOM     24  C   UNL     1      -4.000  -1.215  -2.566  0.00  0.00    +0.019 C 
ATOM     25  C   UNL     1      -5.456  -3.151  -1.953  0.00  0.00    +0.007 C 
ATOM     26  C   UNL     1      -4.920  -3.100  -0.521  0.00  0.00    -0.009 C 
ATOM     27  C   UNL     1      -5.800  -2.173   0.320  0.00  0.00    +0.007 C 
ATOM     28  C   UNL     1      -3.485  -2.571  -0.532  0.00  0.00    +0.019 C 
ENDBRANCH  16  19
ENDBRANCH   2  15
TORSDOF 5
