REMARK  Name = ZINC61642015
REMARK  10 active torsions:
REMARK  status: ('A' for Active; 'I' for Inactive)
REMARK    1  A    between atoms: C_1  and  C_2
REMARK    2  A    between atoms: C_2  and  C_3
REMARK    3  A    between atoms: C_3  and  C_5
REMARK    4  A    between atoms: C_3  and  N_23
REMARK    5  A    between atoms: C_5  and  C_7
REMARK    6  A    between atoms: C_5  and  N_13
REMARK    7  A    between atoms: C_17  and  C_19
REMARK    8  A    between atoms: C_19  and  N_20
REMARK    9  A    between atoms: N_20  and  C_21
REMARK   10  A    between atoms: N_20  and  C_22
REMARK                            x       y       z     vdW  Elec       q    Type
REMARK                         _______ _______ _______ _____ _____    ______ ____
ROOT
ATOM      1  C   UNL     1       0.415  -2.488   0.718  0.00  0.00    +0.079 C 
ENDROOT
BRANCH   1   2
ATOM      2  C   UNL     1       0.672  -2.577   2.200  0.00  0.00    +0.007 A 
ATOM      3  C   UNL     1      -0.100  -3.126   3.169  0.00  0.00    +0.014 A 
ATOM      4  C   UNL     1       0.342  -3.093   4.479  0.00  0.00    +0.028 A 
ATOM      5  C   UNL     1       1.535  -2.510   4.755  0.00  0.00    +0.078 A 
ATOM      6  S   UNL     1       2.077  -1.992   3.134  0.00  0.00    -0.080 S 
ATOM      7 CL   UNL     1       2.333  -2.324   6.285  0.00  0.00    -0.076 Cl
ENDBRANCH   1   2
BRANCH   1   8
ATOM      8  N   UNL     1       1.683  -2.631  -0.009  0.00  0.00    -0.295 NA
ATOM      9  C   UNL     1       1.471  -2.538  -1.469  0.00  0.00    +0.085 C 
ATOM     10  C   UNL     1       2.522  -3.494  -2.084  0.00  0.00    +0.017 C 
ATOM     11  C   UNL     1       2.531  -4.654  -1.054  0.00  0.00    +0.018 C 
ATOM     12  C   UNL     1       2.320  -3.927   0.291  0.00  0.00    +0.041 C 
BRANCH  12  13
ATOM     13  C   UNL     1       1.408  -4.759   1.195  0.00  0.00    -0.061 C 
BRANCH  13  14
ATOM     14  N   UNL     1       1.953  -6.116   1.325  0.00  0.00    +0.377 N 
ATOM     15  C   UNL     1       3.263  -6.056   1.988  0.00  0.00    -0.097 C 
ATOM     16  C   UNL     1       1.036  -6.938   2.127  0.00  0.00    -0.097 C 
ATOM     17  H   UNL     1       2.058  -6.526   0.409  0.00  0.00    -0.083 HD
ENDBRANCH  13  14
ENDBRANCH  12  13
ENDBRANCH   1   8
BRANCH   1  18
ATOM     18  C   UNL     1      -0.210  -1.130   0.390  0.00  0.00    -0.053 C 
BRANCH  18  19
ATOM     19  N   UNL     1      -1.350  -0.886   1.284  0.00  0.00    +0.381 N 
ATOM     20  H   UNL     1      -2.038  -1.613   1.157  0.00  0.00    -0.090 HD
ATOM     21  H   UNL     1      -1.032  -0.887   2.242  0.00  0.00    -0.090 HD
ATOM     22  H   UNL     1      -1.762   0.009   1.067  0.00  0.00    -0.090 HD
ENDBRANCH  18  19
BRANCH  18  24
ATOM     23  C   UNL     1      -1.482   0.152  -1.336  0.00  0.00    +0.002 C 
ATOM     24  C   UNL     1      -0.692  -1.129  -1.063  0.00  0.00    -0.018 C 
ENDBRANCH  18  24
ENDBRANCH   1  18
TORSDOF 7
