REMARK  Name = ZINC35427006
REMARK  7 active torsions:
REMARK  status: ('A' for Active; 'I' for Inactive)
REMARK    1  A    between atoms: C_1  and  C_2
REMARK    2  A    between atoms: C_2  and  O_3
REMARK    3  A    between atoms: O_3  and  C_4
REMARK    4  A    between atoms: C_4  and  C_6
REMARK    5  A    between atoms: C_6  and  N_7
REMARK    6  A    between atoms: C_22  and  C_24
REMARK    7  A    between atoms: N_32  and  C_35
REMARK                            x       y       z     vdW  Elec       q    Type
REMARK                         _______ _______ _______ _____ _____    ______ ____
ROOT
ATOM      1  N   UNL     1      -3.220  -3.604   0.025  0.00  0.00    -0.289 N 
ATOM      2  C   UNL     1      -4.223  -4.503   0.002  0.00  0.00    +0.304 C 
ATOM      3  O   UNL     1      -5.378  -4.124  -0.050  0.00  0.00    -0.253 OA
ATOM      4  N   UNL     1      -3.948  -5.822   0.037  0.00  0.00    -0.269 N 
ATOM      5  C   UNL     1      -2.563  -6.320   0.106  0.00  0.00    +0.148 C 
ATOM      6  C   UNL     1      -2.415  -7.513   1.024  0.00  0.00    +0.004 A 
ATOM      7  C   UNL     1      -1.734  -7.460   2.254  0.00  0.00    -0.034 A 
ATOM      8  C   UNL     1      -1.647  -8.606   2.983  0.00  0.00    -0.021 A 
ATOM      9  S   UNL     1      -2.514  -9.799   1.999  0.00  0.00    -0.077 S 
ATOM     10  C   UNL     1      -2.955  -8.713   0.676  0.00  0.00    +0.090 A 
ATOM     11  N   UNL     1      -3.697  -8.929  -0.479  0.00  0.00    -0.312 N 
ATOM     12  C   UNL     1      -3.653  -9.919  -1.400  0.00  0.00    +0.092 A 
ATOM     13  C   UNL     1      -4.543  -9.623  -2.375  0.00  0.00    +0.020 A 
ATOM     14  C   UNL     1      -5.171  -8.409  -2.023  0.00  0.00    +0.025 A 
ATOM     15  C   UNL     1      -4.657  -8.016  -0.849  0.00  0.00    +0.049 A 
ATOM     16  C   UNL     1      -5.025  -6.841   0.013  0.00  0.00    +0.155 C 
ATOM     17  C   UNL     1      -0.969  -8.781   4.301  0.00  0.00    -0.036 C 
ATOM     18  N   UNL     1      -0.093  -7.616   4.530  0.00  0.00    +0.381 N 
ATOM     19  C   UNL     1      -0.853  -6.381   4.297  0.00  0.00    -0.074 C 
ATOM     20  C   UNL     1      -1.099  -6.183   2.799  0.00  0.00    +0.018 C 
ATOM     21  C   UNL     1       0.396  -7.636   5.915  0.00  0.00    -0.096 C 
ATOM     22  H   UNL     1      -2.299  -3.906   0.067  0.00  0.00    +0.151 HD
ATOM     23  H   UNL     1       0.690  -7.654   3.896  0.00  0.00    -0.082 HD
ENDROOT
BRANCH  16  24
ATOM     24  C   UNL     1      -5.280  -7.319   1.420  0.00  0.00    -0.021 A 
ATOM     25  C   UNL     1      -4.909  -6.532   2.494  0.00  0.00    +0.007 A 
ATOM     26  C   UNL     1      -5.143  -6.969   3.784  0.00  0.00    +0.020 A 
ATOM     27  C   UNL     1      -5.747  -8.194   4.000  0.00  0.00    +0.041 A 
ATOM     28  C   UNL     1      -6.118  -8.981   2.925  0.00  0.00    +0.020 A 
ATOM     29  C   UNL     1      -5.889  -8.540   1.635  0.00  0.00    +0.007 A 
ATOM     30 CL   UNL     1      -6.040  -8.745   5.621  0.00  0.00    -0.084 Cl
ENDBRANCH  16  24
BRANCH   1  31
ATOM     31  C   UNL     1      -3.519  -2.170  -0.012  0.00  0.00    +0.226 C 
BRANCH  31  32
ATOM     32  C   UNL     1      -2.232  -1.387   0.024  0.00  0.00    +0.324 C 
ATOM     33  O   UNL     1      -1.173  -1.968   0.076  0.00  0.00    -0.249 OA
BRANCH  32  34
ATOM     34  O   UNL     1      -2.261  -0.046  -0.001  0.00  0.00    -0.464 OA
BRANCH  34  36
ATOM     35  C   UNL     1      -1.237   2.143  -0.001  0.00  0.00    +0.048 C 
ATOM     36  C   UNL     1      -1.004   0.632   0.036  0.00  0.00    +0.229 C 
ENDBRANCH  34  36
ENDBRANCH  32  34
ENDBRANCH  31  32
ENDBRANCH   1  31
TORSDOF 5
