REMARK  Name = ZINC43410372
REMARK  3 active torsions:
REMARK  status: ('A' for Active; 'I' for Inactive)
REMARK    1  A    between atoms: C_1  and  C_2
REMARK    2  A    between atoms: C_5  and  C_23
REMARK    3  A    between atoms: C_11  and  C_20
REMARK                            x       y       z     vdW  Elec       q    Type
REMARK                         _______ _______ _______ _____ _____    ______ ____
ROOT
ATOM      1  C   UNL     1      -2.084  -1.384  -1.154  0.00  0.00    +0.009 C 
ATOM      2  C   UNL     1      -1.431  -1.925   0.119  0.00  0.00    +0.004 C 
ATOM      3  C   UNL     1      -2.123  -1.324   1.344  0.00  0.00    +0.009 C 
ATOM      4  C   UNL     1      -1.492  -1.889   2.618  0.00  0.00    +0.004 C 
ATOM      5  C   UNL     1      -0.010  -1.504   2.663  0.00  0.00    +0.109 C 
ATOM      6  N   UNL     1       0.633  -1.952   1.421  0.00  0.00    -0.314 N 
ATOM      7  C   UNL     1       0.052  -1.541   0.135  0.00  0.00    +0.109 C 
ATOM      8  C   UNL     1       1.765  -2.747   1.460  0.00  0.00    +0.132 A 
ATOM      9  C   UNL     1       3.038  -2.159   1.363  0.00  0.00    +0.052 A 
ATOM     10  C   UNL     1       4.159  -2.990   1.401  0.00  0.00    +0.020 A 
ATOM     11  C   UNL     1       3.974  -4.361   1.536  0.00  0.00    -0.025 A 
ATOM     12  C   UNL     1       2.696  -4.867   1.632  0.00  0.00    +0.047 A 
ATOM     13  N   UNL     1       1.647  -4.055   1.593  0.00  0.00    -0.236 NA
ATOM     14  C   UNL     1       2.425  -6.341   1.799  0.00  0.00    +0.056 C 
ATOM     15  C   UNL     1       3.648  -7.161   1.399  0.00  0.00    +0.006 C 
ATOM     16  C   UNL     1       4.869  -6.607   2.144  0.00  0.00    +0.005 C 
ATOM     17  C   UNL     1       5.201  -5.233   1.567  0.00  0.00    +0.037 C 
ATOM     18  C   UNL     1      -2.207  -1.314   3.842  0.00  0.00    +0.009 C 
ENDROOT
BRANCH   9  19
ATOM     19  C   UNL     1       3.186  -0.697   1.223  0.00  0.00    +0.098 C 
ATOM     20  N   UNL     1       2.652   0.117   2.134  0.00  0.00    -0.387 N 
ATOM     21  N   UNL     1       3.853  -0.191   0.186  0.00  0.00    -0.344 N 
ATOM     22  H   UNL     1       2.234  -0.252   2.928  0.00  0.00    +0.157 HD
ATOM     23  H   UNL     1       4.241  -0.783  -0.476  0.00  0.00    +0.144 HD
ATOM     24  H   UNL     1       3.950   0.770   0.095  0.00  0.00    +0.144 HD
ATOM     25  H   UNL     1       2.681   1.077   2.003  0.00  0.00    +0.157 HD
ENDBRANCH   9  19
TORSDOF 1
