REMARK  Name = ZINC59168342
REMARK  6 active torsions:
REMARK  status: ('A' for Active; 'I' for Inactive)
REMARK    1  A    between atoms: C_4  and  C_7
REMARK    2  A    between atoms: C_13  and  C_16
REMARK    3  A    between atoms: C_21  and  O_22
REMARK    4  A    between atoms: O_22  and  C_23
REMARK    5  A    between atoms: C_23  and  C_25
REMARK    6  A    between atoms: C_26  and  C_27
REMARK                            x       y       z     vdW  Elec       q    Type
REMARK                         _______ _______ _______ _____ _____    ______ ____
ROOT
ATOM      1  C   UNL     1       3.422  -5.404   1.466  0.00  0.00    +0.028 A 
ATOM      2  C   UNL     1       2.434  -5.123   2.390  0.00  0.00    +0.025 A 
ATOM      3  C   UNL     1       2.137  -6.037   3.385  0.00  0.00    +0.018 A 
ATOM      4  C   UNL     1       2.828  -7.233   3.458  0.00  0.00    +0.019 A 
ATOM      5  C   UNL     1       3.816  -7.518   2.536  0.00  0.00    +0.048 A 
ATOM      6  C   UNL     1       4.112  -6.606   1.533  0.00  0.00    +0.138 A 
ATOM      7 BR   UNL     1       0.785  -5.649   4.649  0.00  0.00    -0.050 Br
ENDROOT
BRANCH   1  14
ATOM      8  C   UNL     1       3.778  -0.659   0.037  0.00  0.00    +0.182 A 
ATOM      9  N   UNL     1       4.955  -0.150  -0.229  0.00  0.00    -0.127 NA
ATOM     10  N   UNL     1       5.854  -1.069  -0.171  0.00  0.00    -0.120 NA
ATOM     11  C   UNL     1       5.297  -2.207   0.117  0.00  0.00    +0.211 A 
ATOM     12  N   UNL     1       3.952  -2.014   0.302  0.00  0.00    -0.220 N 
ATOM     13  N   UNL     1       3.175  -3.069   0.681  0.00  0.00    -0.263 N 
ATOM     14  C   UNL     1       3.746  -4.409   0.382  0.00  0.00    +0.186 C 
ATOM     15  S   UNL     1       5.533  -3.952   0.382  0.00  0.00    -0.056 S 
ATOM     16  H   UNL     1       2.915  -2.995   1.653  0.00  0.00    +0.168 HD
BRANCH   8  20
ATOM     17  C   UNL     1       0.092   1.451   0.098  0.00  0.00    +0.000 A 
ATOM     18  C   UNL     1       1.286   2.150   0.104  0.00  0.00    +0.001 A 
ATOM     19  C   UNL     1       2.487   1.471   0.085  0.00  0.00    +0.011 A 
ATOM     20  C   UNL     1       2.495   0.075   0.059  0.00  0.00    +0.021 A 
ATOM     21  C   UNL     1       1.287  -0.624   0.053  0.00  0.00    +0.011 A 
ATOM     22  C   UNL     1       0.093   0.068   0.072  0.00  0.00    +0.001 A 
ENDBRANCH   8  20
ENDBRANCH   1  14
BRANCH   6  23
ATOM     23  O   UNL     1       5.080  -6.887   0.622  0.00  0.00    -0.422 OA
BRANCH  23  24
ATOM     24  C   UNL     1       4.707  -7.457  -0.544  0.00  0.00    +0.337 C 
ATOM     25  O   UNL     1       3.527  -7.620  -0.791  0.00  0.00    -0.245 OA
BRANCH  24  26
ATOM     26  C   UNL     1       5.688  -7.863  -1.477  0.00  0.00    +0.095 C 
ATOM     27  C   UNL     1       5.312  -8.435  -2.649  0.00  0.00    +0.053 C 
BRANCH  27  28
ATOM     28  C   UNL     1       6.294  -8.842  -3.584  0.00  0.00    +0.128 A 
ATOM     29  C   UNL     1       6.056  -9.429  -4.810  0.00  0.00    +0.049 A 
ATOM     30  C   UNL     1       7.311  -9.659  -5.393  0.00  0.00    +0.042 A 
ATOM     31  C   UNL     1       8.244  -9.215  -4.521  0.00  0.00    +0.195 A 
ATOM     32  O   UNL     1       7.630  -8.720  -3.438  0.00  0.00    -0.464 OA
ENDBRANCH  27  28
ENDBRANCH  24  26
ENDBRANCH  23  24
ENDBRANCH   6  23
TORSDOF 6
