REMARK  Name = ZINC09464268
REMARK  10 active torsions:
REMARK  status: ('A' for Active; 'I' for Inactive)
REMARK    1  A    between atoms: C_1  and  C_2
REMARK    2  A    between atoms: C_4  and  C_13
REMARK    3  A    between atoms: C_5  and  C_12
REMARK    4  A    between atoms: N_6  and  C_7
REMARK    5  A    between atoms: C_7  and  C_8
REMARK    6  A    between atoms: C_13  and  C_15
REMARK    7  A    between atoms: C_15  and  O_16
REMARK    8  A    between atoms: O_16  and  C_17
REMARK    9  A    between atoms: C_17  and  C_19
REMARK   10  A    between atoms: C_21  and  N_26
REMARK                            x       y       z     vdW  Elec       q    Type
REMARK                         _______ _______ _______ _____ _____    ______ ____
ROOT
ATOM      1  O   UNL     1       3.855   1.207   7.027  0.00  0.00    -0.452 OA
ENDROOT
BRANCH   1   2
ATOM      2  C   UNL     1       4.269   0.470   8.075  0.00  0.00    +0.358 C 
ATOM      3  O   UNL     1       3.742  -0.599   8.312  0.00  0.00    -0.243 OA
BRANCH   2   4
ATOM      4  C   UNL     1       5.364   0.961   8.939  0.00  0.00    +0.146 A 
ATOM      5  C   UNL     1       5.783   0.196  10.024  0.00  0.00    +0.093 A 
ATOM      6  C   UNL     1       6.822   0.672  10.826  0.00  0.00    +0.067 A 
ATOM      7  C   UNL     1       7.391   1.904  10.510  0.00  0.00    +0.098 A 
ATOM      8  C   UNL     1       6.915   2.609   9.415  0.00  0.00    +0.128 A 
ATOM      9 CL   UNL     1       7.619   4.145   9.015  0.00  0.00    -0.062 Cl
ATOM     10 CL   UNL     1       8.681   2.549  11.476  0.00  0.00    -0.079 Cl
ATOM     11 CL   UNL     1       5.029  -1.328  10.371  0.00  0.00    -0.079 Cl
ATOM     12  N   UNL     1       5.911   2.175   8.612  0.00  0.00    -0.338 N 
ATOM     13  H   UNL     1       5.582   2.721   7.808  0.00  0.00    +0.167 HD
BRANCH   6  14
ATOM     14  N   UNL     1       7.275  -0.064  11.919  0.00  0.00    -0.356 N 
ATOM     15  H   UNL     1       7.995   0.279  12.470  0.00  0.00    +0.142 HD
ATOM     16  H   UNL     1       6.870  -0.921  12.128  0.00  0.00    +0.142 HD
ENDBRANCH   6  14
ENDBRANCH   2   4
ENDBRANCH   1   2
BRANCH   1  17
ATOM     17  C   UNL     1       2.775   0.663   6.223  0.00  0.00    +0.312 C 
BRANCH  17  18
ATOM     18  C   UNL     1       2.450   1.619   5.104  0.00  0.00    +0.202 C 
ATOM     19  O   UNL     1       3.068   2.658   4.995  0.00  0.00    -0.288 OA
BRANCH  18  23
ATOM     20  C   UNL     1      -1.342  -0.772   2.683  0.00  0.00    +0.063 C 
ATOM     21  C   UNL     1      -0.287   0.224   3.091  0.00  0.00    +0.017 A 
ATOM     22  C   UNL     1       0.548   0.090   4.135  0.00  0.00    +0.034 A 
ATOM     23  C   UNL     1       1.389   1.295   4.149  0.00  0.00    +0.042 A 
ATOM     24  C   UNL     1       0.972   2.059   3.076  0.00  0.00    +0.027 A 
ATOM     25  N   UNL     1      -0.025   1.403   2.455  0.00  0.00    -0.339 N 
ATOM     26  C   UNL     1       1.536   3.397   2.671  0.00  0.00    +0.064 C 
BRANCH  25  27
ATOM     27  C   UNL     1      -0.733   1.888   1.268  0.00  0.00    +0.234 C 
BRANCH  27  28
ATOM     28  C   UNL     1      -0.017   1.395   0.010  0.00  0.00    +0.407 C 
ATOM     29  F   UNL     1       0.002  -0.004   0.002  0.00  0.00    -0.169 F 
ATOM     30  F   UNL     1       1.296   1.879  -0.000  0.00  0.00    -0.169 F 
ATOM     31  F   UNL     1      -0.694   1.858  -1.124  0.00  0.00    -0.169 F 
ENDBRANCH  27  28
ENDBRANCH  25  27
ENDBRANCH  18  23
ENDBRANCH  17  18
ENDBRANCH   1  17
TORSDOF 8
