REMARK  Name = ZINC40425661
REMARK  8 active torsions:
REMARK  status: ('A' for Active; 'I' for Inactive)
REMARK    1  A    between atoms: C_4  and  O_7
REMARK    2  A    between atoms: O_7  and  C_8
REMARK    3  A    between atoms: C_8  and  C_9
REMARK    4  A    between atoms: N_11  and  C_12
REMARK    5  A    between atoms: C_15  and  N_18
REMARK    6  A    between atoms: N_22  and  C_25
REMARK    7  A    between atoms: C_25  and  C_26
REMARK    8  A    between atoms: C_31  and  C_32
REMARK                            x       y       z     vdW  Elec       q    Type
REMARK                         _______ _______ _______ _____ _____    ______ ____
ROOT
ATOM      1  C   UNL     1       6.455  -4.409  -0.011  0.00  0.00    +0.034 A 
ATOM      2  C   UNL     1       7.506  -3.506   0.079  0.00  0.00    +0.025 A 
ATOM      3  C   UNL     1       8.806  -3.966   0.155  0.00  0.00    +0.025 A 
ATOM      4  C   UNL     1       9.062  -5.330   0.142  0.00  0.00    +0.038 A 
ATOM      5  C   UNL     1       8.010  -6.233   0.053  0.00  0.00    +0.025 A 
ATOM      6  C   UNL     1       6.710  -5.774  -0.018  0.00  0.00    +0.025 A 
ENDROOT
BRANCH   4   7
ATOM      7  N   UNL     1      10.380  -5.797   0.219  0.00  0.00    -0.255 N 
ATOM      8  C   UNL     1      10.957  -6.508  -0.923  0.00  0.00    +0.117 C 
ATOM      9  C   UNL     1      12.473  -6.280  -0.944  0.00  0.00    +0.038 C 
ATOM     10  C   UNL     1      13.050  -6.712   0.408  0.00  0.00    +0.111 C 
ATOM     11  N   UNL     1      12.359  -5.990   1.478  0.00  0.00    -0.281 N 
ATOM     12  C   UNL     1      11.091  -5.578   1.336  0.00  0.00    +0.309 C 
ATOM     13  O   UNL     1      10.562  -4.987   2.257  0.00  0.00    -0.252 OA
BRANCH  11  14
ATOM     14  C   UNL     1      13.070  -5.707   2.727  0.00  0.00    +0.145 C 
BRANCH  14  15
ATOM     15  C   UNL     1      13.866  -4.436   2.575  0.00  0.00    -0.013 A 
ATOM     16  C   UNL     1      13.758  -3.686   1.422  0.00  0.00    +0.006 A 
ATOM     17  C   UNL     1      14.488  -2.520   1.281  0.00  0.00    +0.000 A 
ATOM     18  C   UNL     1      15.331  -2.096   2.293  0.00  0.00    +0.001 A 
ATOM     19  C   UNL     1      15.449  -2.837   3.451  0.00  0.00    +0.019 A 
ATOM     20  C   UNL     1      14.710  -4.012   3.603  0.00  0.00    +0.056 A 
BRANCH  20  21
ATOM     21  C   UNL     1      14.823  -4.782   4.805  0.00  0.00    +0.099 C 
ATOM     22  N   UNL     1      14.912  -5.393   5.759  0.00  0.00    -0.191 NA
ENDBRANCH  20  21
ENDBRANCH  14  15
ENDBRANCH  11  14
ENDBRANCH   4   7
BRANCH   1  25
ATOM     23  C   UNL     1       4.142  -4.630   0.508  0.00  0.00    +0.255 C 
ATOM     24  O   UNL     1       4.376  -5.693   1.043  0.00  0.00    -0.272 OA
ATOM     25  N   UNL     1       5.136  -3.942  -0.088  0.00  0.00    -0.283 N 
ATOM     26  H   UNL     1       4.938  -3.125  -0.572  0.00  0.00    +0.155 HD
BRANCH  23  27
ATOM     27  C   UNL     1       2.740  -4.077   0.511  0.00  0.00    +0.324 C 
BRANCH  27  28
ATOM     28  O   UNL     1       1.873  -4.981   1.199  0.00  0.00    -0.483 OA
BRANCH  28  32
ATOM     29  C   UNL     1      -2.101  -3.913   1.485  0.00  0.00    +0.000 A 
ATOM     30  C   UNL     1      -1.664  -5.100   2.042  0.00  0.00    +0.004 A 
ATOM     31  C   UNL     1      -0.334  -5.460   1.948  0.00  0.00    +0.045 A 
ATOM     32  C   UNL     1       0.564  -4.629   1.293  0.00  0.00    +0.121 A 
ATOM     33  C   UNL     1       0.122  -3.438   0.735  0.00  0.00    +0.045 A 
ATOM     34  C   UNL     1      -1.209  -3.083   0.832  0.00  0.00    +0.004 A 
ENDBRANCH  28  32
ENDBRANCH  27  28
ENDBRANCH  23  27
ENDBRANCH   1  25
TORSDOF 8
