REMARK  Name = ZINC04817811
REMARK  9 active torsions:
REMARK  status: ('A' for Active; 'I' for Inactive)
REMARK    1  A    between atoms: C_1  and  C_2
REMARK    2  A    between atoms: C_9  and  C_26
REMARK    3  A    between atoms: C_9  and  O_27
REMARK    4  A    between atoms: C_10  and  C_23
REMARK    5  A    between atoms: C_12  and  C_14
REMARK    6  A    between atoms: C_17  and  N_20
REMARK    7  A    between atoms: N_20  and  C_21
REMARK    8  A    between atoms: N_20  and  C_22
REMARK    9  A    between atoms: C_23  and  C_25
REMARK                            x       y       z     vdW  Elec       q    Type
REMARK                         _______ _______ _______ _____ _____    ______ ____
ROOT
ATOM      1  C   UNL     1       0.125   1.302   0.287  0.00  0.00    +0.068 C 
ATOM      2  C   UNL     1       0.102  -0.200   0.159  0.00  0.00    +0.064 A 
ATOM      3  C   UNL     1       0.078  -0.918  -1.034  0.00  0.00    +0.004 A 
ATOM      4  C   UNL     1       0.061  -2.241  -0.727  0.00  0.00    +0.043 A 
ATOM      5  N   UNL     1       0.076  -2.352   0.612  0.00  0.00    -0.281 N 
ATOM      6  H   UNL     1       0.071  -3.181   1.116  0.00  0.00    +0.189 HD
ATOM      7  N   UNL     1       0.106  -1.057   1.150  0.00  0.00    -0.179 NA
ATOM      8  C   UNL     1       0.030  -3.347  -1.752  0.00  0.00    +0.090 C 
ATOM      9  C   UNL     1      -0.393  -2.747  -3.098  0.00  0.00    +0.079 C 
ATOM     10  C   UNL     1       0.460  -1.511  -3.398  0.00  0.00    +0.098 C 
ATOM     11  C   UNL     1       0.071  -0.377  -2.442  0.00  0.00    +0.065 C 
ATOM     12  C   UNL     1      -0.193  -3.785  -4.204  0.00  0.00    +0.042 C 
ENDROOT
BRANCH  11  13
ATOM     13  C   UNL     1       1.068   0.748  -2.558  0.00  0.00    -0.039 A 
ATOM     14  C   UNL     1       2.406   0.512  -2.304  0.00  0.00    +0.006 A 
ATOM     15  C   UNL     1       3.322   1.541  -2.409  0.00  0.00    +0.023 A 
ATOM     16  C   UNL     1       2.897   2.813  -2.770  0.00  0.00    +0.029 A 
ATOM     17  C   UNL     1       1.551   3.046  -3.025  0.00  0.00    +0.023 A 
ATOM     18  C   UNL     1       0.642   2.012  -2.923  0.00  0.00    +0.006 A 
BRANCH  16  19
ATOM     19  N   UNL     1       3.820   3.856  -2.877  0.00  0.00    -0.336 N 
ATOM     20  C   UNL     1       5.239   3.608  -2.608  0.00  0.00    +0.129 C 
ATOM     21  C   UNL     1       3.370   5.197  -3.258  0.00  0.00    +0.129 C 
ENDBRANCH  16  19
ENDBRANCH  11  13
BRANCH  10  22
ATOM     22  C   UNL     1       0.224  -1.072  -4.820  0.00  0.00    +0.137 C 
ATOM     23  O   UNL     1      -0.868  -1.200  -5.319  0.00  0.00    -0.297 OA
ATOM     24  C   UNL     1       1.352  -0.473  -5.620  0.00  0.00    +0.086 C 
ENDBRANCH  10  22
BRANCH   9  25
ATOM     25  O   UNL     1      -1.771  -2.372  -3.041  0.00  0.00    -0.388 OA
ATOM     26  H   UNL     1      -2.371  -3.107  -2.854  0.00  0.00    +0.210 HD
ENDBRANCH   9  25
TORSDOF 4
