REMARK  Name = ZINC37297585
REMARK  6 active torsions:
REMARK  status: ('A' for Active; 'I' for Inactive)
REMARK    1  A    between atoms: C_1  and  C_2
REMARK    2  A    between atoms: C_7  and  N_8
REMARK    3  A    between atoms: N_8  and  C_9
REMARK    4  A    between atoms: C_9  and  C_11
REMARK    5  A    between atoms: C_9  and  C_16
REMARK    6  A    between atoms: N_20  and  C_21
REMARK                            x       y       z     vdW  Elec       q    Type
REMARK                         _______ _______ _______ _____ _____    ______ ____
ROOT
ATOM      1  C   UNL     1       0.047  -0.757   3.679  0.00  0.00    +0.172 C 
ENDROOT
BRANCH   1   2
ATOM      2  C   UNL     1      -0.555   0.091   4.769  0.00  0.00    +0.113 A 
ATOM      3  N   UNL     1      -0.450   1.388   4.870  0.00  0.00    -0.348 N 
ATOM      4  C   UNL     1      -1.110   1.802   5.962  0.00  0.00    +0.102 A 
ATOM      5  C   UNL     1      -1.644   0.720   6.561  0.00  0.00    +0.104 A 
ATOM      6  N   UNL     1      -1.296  -0.365   5.802  0.00  0.00    -0.337 N 
ATOM      7  C   UNL     1      -1.658  -1.760   6.063  0.00  0.00    +0.150 C 
ATOM      8  H   UNL     1       0.029   1.962   4.252  0.00  0.00    +0.167 HD
ENDBRANCH   1   2
BRANCH   1   9
ATOM      9  C   UNL     1       1.471  -1.099   4.036  0.00  0.00    +0.017 A 
ATOM     10  C   UNL     1       1.967  -2.245   4.562  0.00  0.00    +0.013 A 
ATOM     11  C   UNL     1       3.324  -2.337   4.810  0.00  0.00    +0.008 A 
ATOM     12  C   UNL     1       4.118  -1.277   4.519  0.00  0.00    +0.045 A 
ATOM     13  S   UNL     1       2.942  -0.102   3.868  0.00  0.00    -0.099 S 
ENDBRANCH   1   9
BRANCH   1  14
ATOM     14  N   UNL     1       0.025  -0.016   2.415  0.00  0.00    -0.330 N 
ATOM     15  H   UNL     1       0.012   0.954   2.422  0.00  0.00    +0.147 HD
BRANCH  14  22
ATOM     16  C   UNL     1      -0.018   1.503   0.010  0.00  0.00    +0.045 C 
ATOM     17  C   UNL     1       0.002  -0.004   0.002  0.00  0.00    -0.029 A 
ATOM     18  C   UNL     1       0.006  -0.689  -1.198  0.00  0.00    +0.019 A 
ATOM     19  C   UNL     1       0.024  -2.072  -1.206  0.00  0.00    +0.014 A 
ATOM     20  C   UNL     1       0.039  -2.774  -0.014  0.00  0.00    +0.016 A 
ATOM     21  C   UNL     1       0.035  -2.095   1.189  0.00  0.00    +0.024 A 
ATOM     22  C   UNL     1       0.023  -0.706   1.200  0.00  0.00    +0.031 A 
ATOM     23  I   UNL     1       0.030  -3.106  -3.028  0.00  0.00    -0.044 I 
ENDBRANCH  14  22
ENDBRANCH   1  14
TORSDOF 4
