REMARK  Name = ZINC23157941
REMARK  7 active torsions:
REMARK  status: ('A' for Active; 'I' for Inactive)
REMARK    1  A    between atoms: C_1  and  C_2
REMARK    2  A    between atoms: C_7  and  O_30
REMARK    3  A    between atoms: C_8  and  C_10
REMARK    4  A    between atoms: C_10  and  C_12
REMARK    5  A    between atoms: C_10  and  N_20
REMARK    6  A    between atoms: C_16  and  O_18
REMARK    7  A    between atoms: O_18  and  C_19
REMARK                            x       y       z     vdW  Elec       q    Type
REMARK                         _______ _______ _______ _____ _____    ______ ____
ROOT
ATOM      1  C   UNL     1       0.085  -5.916   0.773  0.00  0.00    +0.130 C 
ENDROOT
BRANCH   1   2
ATOM      2  N   UNL     1      -1.043  -6.609   0.137  0.00  0.00    -0.286 NA
ATOM      3  C   UNL     1      -2.327  -6.042   0.578  0.00  0.00    +0.090 C 
ATOM      4  C   UNL     1      -3.425  -6.532  -0.367  0.00  0.00    +0.051 C 
ATOM      5  C   UNL     1      -3.343  -8.030  -0.516  0.00  0.00    -0.042 A 
ATOM      6  C   UNL     1      -4.441  -8.704  -1.030  0.00  0.00    +0.004 A 
ATOM      7  C   UNL     1      -4.407 -10.075  -1.187  0.00  0.00    +0.000 A 
ATOM      8  C   UNL     1      -3.273 -10.780  -0.831  0.00  0.00    +0.000 A 
ATOM      9  C   UNL     1      -2.180 -10.110  -0.319  0.00  0.00    +0.005 A 
ATOM     10  C   UNL     1      -2.213  -8.733  -0.158  0.00  0.00    -0.030 A 
ATOM     11  C   UNL     1      -1.000  -8.048   0.416  0.00  0.00    +0.120 C 
ENDBRANCH   1   2
BRANCH   1  19
ATOM     12  C   UNL     1      -0.018   1.503   0.010  0.00  0.00    +0.090 C 
ATOM     13  C   UNL     1       0.002  -0.004   0.002  0.00  0.00    +0.150 A 
ATOM     14  N   UNL     1       0.008  -0.769  -1.088  0.00  0.00    -0.205 NA
ATOM     15  C   UNL     1       0.026  -2.025  -0.733  0.00  0.00    +0.199 A 
ATOM     16  N   UNL     1       0.033  -2.116   0.625  0.00  0.00    -0.173 N 
ATOM     17  N   UNL     1       0.022  -0.766   1.063  0.00  0.00    -0.147 NA
ATOM     18  C   UNL     1       0.052  -3.377   1.171  0.00  0.00    +0.228 A 
ATOM     19  C   UNL     1       0.063  -4.460   0.386  0.00  0.00    +0.076 A 
ATOM     20  S   UNL     1       0.047  -3.727  -1.243  0.00  0.00    -0.047 S 
BRANCH  18  21
ATOM     21  O   UNL     1       0.060  -3.525   2.523  0.00  0.00    -0.492 OA
ATOM     22  H   UNL     1       0.050  -2.690   3.011  0.00  0.00    +0.294 HD
ENDBRANCH  18  21
ENDBRANCH   1  19
BRANCH   1  23
ATOM     23  C   UNL     1       1.379  -6.538   0.316  0.00  0.00    -0.022 A 
ATOM     24  C   UNL     1       1.535  -6.917  -1.005  0.00  0.00    +0.006 A 
ATOM     25  C   UNL     1       2.721  -7.488  -1.427  0.00  0.00    +0.004 A 
ATOM     26  C   UNL     1       3.754  -7.682  -0.530  0.00  0.00    +0.045 A 
ATOM     27  C   UNL     1       3.600  -7.302   0.795  0.00  0.00    +0.120 A 
ATOM     28  C   UNL     1       2.411  -6.724   1.215  0.00  0.00    +0.051 A 
BRANCH  27  29
ATOM     29  O   UNL     1       4.615  -7.492   1.679  0.00  0.00    -0.495 OA
ATOM     30  C   UNL     1       5.812  -8.087   1.175  0.00  0.00    +0.277 C 
ENDBRANCH  27  29
ENDBRANCH   1  23
TORSDOF 5
