REMARK  Name = ZINC14360817
REMARK  9 active torsions:
REMARK  status: ('A' for Active; 'I' for Inactive)
REMARK    1  A    between atoms: C_8  and  S_10
REMARK    2  A    between atoms: S_10  and  C_11
REMARK    3  A    between atoms: C_11  and  C_12
REMARK    4  A    between atoms: C_12  and  C_13
REMARK    5  A    between atoms: C_13  and  C_14
REMARK    6  A    between atoms: N_16  and  C_17
REMARK    7  A    between atoms: C_21  and  S_23
REMARK    8  A    between atoms: S_23  and  N_26
REMARK    9  A    between atoms: N_26  and  C_27
REMARK                            x       y       z     vdW  Elec       q    Type
REMARK                         _______ _______ _______ _____ _____    ______ ____
ROOT
ATOM      1  C   UNL     1      -2.467   0.963  -0.627  0.00  0.00    +0.035 A 
ATOM      2  C   UNL     1      -2.618  -0.299  -1.186  0.00  0.00    +0.023 A 
ATOM      3  C   UNL     1      -3.833  -0.951  -1.099  0.00  0.00    +0.004 A 
ATOM      4  C   UNL     1      -4.901  -0.344  -0.464  0.00  0.00    +0.029 A 
ATOM      5  C   UNL     1      -4.755   0.915   0.089  0.00  0.00    +0.110 A 
ATOM      6  C   UNL     1      -3.542   1.570   0.009  0.00  0.00    +0.052 A 
ENDROOT
BRANCH   1   9
ATOM      7  C   UNL     1      -0.089   0.918  -0.683  0.00  0.00    +0.217 C 
ATOM      8  O   UNL     1      -0.118  -0.279  -0.491  0.00  0.00    -0.275 OA
ATOM      9  N   UNL     1      -1.237   1.624  -0.711  0.00  0.00    -0.285 N 
ATOM     10  H   UNL     1      -1.210   2.591  -0.788  0.00  0.00    +0.155 HD
BRANCH   7  11
ATOM     11  C   UNL     1       1.229   1.615  -0.898  0.00  0.00    +0.097 C 
BRANCH  11  12
ATOM     12  C   UNL     1       2.365   0.592  -0.825  0.00  0.00    +0.020 C 
BRANCH  12  13
ATOM     13  C   UNL     1       3.704   1.300  -1.042  0.00  0.00    +0.077 C 
BRANCH  13  14
ATOM     14  S   UNL     1       5.047   0.089  -0.956  0.00  0.00    -0.099 S 
BRANCH  14  22
ATOM     15  C   UNL     1      10.908   2.618  -1.821  0.00  0.00    +0.002 A 
ATOM     16  C   UNL     1      10.427   3.908  -1.987  0.00  0.00    +0.001 A 
ATOM     17  C   UNL     1       9.065   4.137  -1.916  0.00  0.00    +0.017 A 
ATOM     18  C   UNL     1       8.213   3.088  -1.682  0.00  0.00    +0.040 A 
ATOM     19  C   UNL     1       8.667   1.761  -1.506  0.00  0.00    +0.079 A 
ATOM     20  C   UNL     1      10.065   1.564  -1.585  0.00  0.00    +0.029 A 
ATOM     21  N   UNL     1       7.706   0.838  -1.284  0.00  0.00    -0.233 NA
ATOM     22  C   UNL     1       6.429   1.146  -1.232  0.00  0.00    +0.136 A 
ATOM     23  S   UNL     1       6.452   2.910  -1.522  0.00  0.00    -0.061 S 
ENDBRANCH  14  22
ENDBRANCH  13  14
ENDBRANCH  12  13
ENDBRANCH  11  12
ENDBRANCH   7  11
ENDBRANCH   1   9
BRANCH   5  24
ATOM     24  S   UNL     1      -6.119   1.685   0.897  0.00  0.00    +0.072 S 
ATOM     25  O   UNL     1      -6.986   0.639   1.315  0.00  0.00    -0.150 OA
ATOM     26  O   UNL     1      -5.572   2.630   1.806  0.00  0.00    -0.150 OA
BRANCH  24  27
ATOM     27  N   UNL     1      -6.941   2.551  -0.249  0.00  0.00    -0.213 N 
ATOM     28  H   UNL     1      -7.038   3.512  -0.154  0.00  0.00    +0.174 HD
BRANCH  27  29
ATOM     29  C   UNL     1      -7.496   1.899  -1.355  0.00  0.00    +0.083 A 
ATOM     30  C   UNL     1      -8.029   0.625  -1.216  0.00  0.00    +0.027 A 
ATOM     31  C   UNL     1      -8.580  -0.015  -2.309  0.00  0.00    +0.002 A 
ATOM     32  C   UNL     1      -8.592   0.607  -3.544  0.00  0.00    +0.003 A 
ATOM     33  C   UNL     1      -8.058   1.874  -3.689  0.00  0.00    +0.040 A 
ATOM     34  C   UNL     1      -7.509   2.523  -2.598  0.00  0.00    +0.146 A 
ATOM     35  F   UNL     1      -6.986   3.760  -2.740  0.00  0.00    -0.204 F 
ENDBRANCH  27  29
ENDBRANCH  24  27
ENDBRANCH   5  24
TORSDOF 9
