REMARK  Name = ZINC59350303
REMARK  13 active torsions:
REMARK  status: ('A' for Active; 'I' for Inactive)
REMARK    1  A    between atoms: C_1  and  C_2
REMARK    2  A    between atoms: C_2  and  C_3
REMARK    3  A    between atoms: C_3  and  N_4
REMARK    4  A    between atoms: N_4  and  C_5
REMARK    5  A    between atoms: N_4  and  C_21
REMARK    6  A    between atoms: C_5  and  C_6
REMARK    7  A    between atoms: N_8  and  C_9
REMARK    8  A    between atoms: C_11  and  S_17
REMARK    9  A    between atoms: C_13  and  C_16
REMARK   10  A    between atoms: C_14  and  C_15
REMARK   11  A    between atoms: S_17  and  N_20
REMARK   12  A    between atoms: C_21  and  C_23
REMARK   13  A    between atoms: C_21  and  C_24
REMARK                            x       y       z     vdW  Elec       q    Type
REMARK                         _______ _______ _______ _____ _____    ______ ____
ROOT
ATOM      1  C   UNL     1      -1.610  -1.764  -0.296  0.00  0.00    +0.201 C 
ATOM      2  O   UNL     1      -1.081  -1.121   0.586  0.00  0.00    -0.278 OA
ATOM      3  N   UNL     1      -2.945  -1.947  -0.289  0.00  0.00    -0.287 N 
ATOM      4  H   UNL     1      -3.360  -2.518  -0.955  0.00  0.00    +0.155 HD
ENDROOT
BRANCH   3   5
ATOM      5  C   UNL     1      -3.733  -1.314   0.678  0.00  0.00    +0.038 A 
ATOM      6  C   UNL     1      -3.184  -0.970   1.907  0.00  0.00    +0.052 A 
ATOM      7  C   UNL     1      -3.964  -0.345   2.860  0.00  0.00    +0.107 A 
ATOM      8  C   UNL     1      -5.291  -0.062   2.592  0.00  0.00    +0.032 A 
ATOM      9  C   UNL     1      -5.841  -0.405   1.370  0.00  0.00    -0.044 A 
ATOM     10  C   UNL     1      -5.064  -1.024   0.411  0.00  0.00    -0.026 A 
ATOM     11  C   UNL     1      -5.662  -1.389  -0.923  0.00  0.00    +0.046 C 
ATOM     12  C   UNL     1      -7.288  -0.095   1.083  0.00  0.00    +0.044 C 
BRANCH   7  13
ATOM     13  S   UNL     1      -3.268   0.092   4.418  0.00  0.00    +0.056 S 
ATOM     14  O   UNL     1      -4.349   0.174   5.337  0.00  0.00    -0.153 OA
ATOM     15  O   UNL     1      -2.158  -0.770   4.623  0.00  0.00    -0.153 OA
BRANCH  13  16
ATOM     16  N   UNL     1      -2.657   1.624   4.269  0.00  0.00    -0.204 NA
ATOM     17  H   UNL     1      -2.630   2.213   5.039  0.00  0.00    +0.144 HD
ATOM     18  H   UNL     1      -2.326   1.933   3.411  0.00  0.00    +0.144 HD
ENDBRANCH  13  16
ENDBRANCH   7  13
ENDBRANCH   3   5
BRANCH   1  19
ATOM     19  C   UNL     1      -0.774  -2.358  -1.400  0.00  0.00    +0.020 C 
BRANCH  19  20
ATOM     20  N   UNL     1       0.614  -1.896  -1.266  0.00  0.00    +0.390 N 
ATOM     21  H   UNL     1       0.945  -2.092  -0.333  0.00  0.00    -0.080 HD
BRANCH  20  22
ATOM     22  C   UNL     1       1.460  -2.596  -2.242  0.00  0.00    -0.040 C 
ATOM     23  C   UNL     1       2.905  -2.115  -2.102  0.00  0.00    -0.008 C 
BRANCH  22  24
ATOM     24  C   UNL     1       1.397  -4.080  -1.988  0.00  0.00    -0.060 A 
ATOM     25  C   UNL     1       1.389  -4.559  -0.692  0.00  0.00    +0.003 A 
ATOM     26  C   UNL     1       1.333  -5.920  -0.457  0.00  0.00    +0.021 A 
ATOM     27  C   UNL     1       1.284  -6.804  -1.521  0.00  0.00    +0.059 A 
ATOM     28  C   UNL     1       1.291  -6.324  -2.819  0.00  0.00    +0.059 A 
ATOM     29  C   UNL     1       1.342  -4.961  -3.052  0.00  0.00    +0.023 A 
ATOM     30 CL   UNL     1       1.230  -7.431  -4.155  0.00  0.00    -0.082 Cl
ATOM     31 CL   UNL     1       1.213  -8.513  -1.227  0.00  0.00    -0.082 Cl
ENDBRANCH  22  24
ENDBRANCH  20  22
BRANCH  20  32
ATOM     32  C   UNL     1       0.675  -0.450  -1.513  0.00  0.00    -0.078 C 
BRANCH  32  34
ATOM     33  C   UNL     1       0.078   1.369  -3.119  0.00  0.00    +0.002 C 
ATOM     34  C   UNL     1       0.100  -0.144  -2.898  0.00  0.00    -0.022 C 
ENDBRANCH  32  34
ENDBRANCH  20  32
ENDBRANCH  19  20
ENDBRANCH   1  19
TORSDOF 9
