REMARK  Name = ZINC52344038
REMARK  8 active torsions:
REMARK  status: ('A' for Active; 'I' for Inactive)
REMARK    1  A    between atoms: C_1  and  C_2
REMARK    2  A    between atoms: C_2  and  C_3
REMARK    3  A    between atoms: C_3  and  C_5
REMARK    4  A    between atoms: C_3  and  N_11
REMARK    5  A    between atoms: N_11  and  S_12
REMARK    6  A    between atoms: S_12  and  C_15
REMARK    7  A    between atoms: C_18  and  C_20
REMARK    8  A    between atoms: C_20  and  N_21
REMARK                            x       y       z     vdW  Elec       q    Type
REMARK                         _______ _______ _______ _____ _____    ______ ____
ROOT
ATOM      1  S   UNL     1       2.642   0.874  -2.448  0.00  0.00    +0.065 S 
ATOM      2  O   UNL     1       4.029   1.090  -2.232  0.00  0.00    -0.153 OA
ATOM      3  O   UNL     1       2.132   0.367  -3.674  0.00  0.00    -0.153 OA
ENDROOT
BRANCH   1   4
ATOM      4  C   UNL     1       1.842   2.419  -2.171  0.00  0.00    +0.143 A 
ATOM      5  C   UNL     1       2.263   3.478  -1.437  0.00  0.00    +0.036 A 
ATOM      6  C   UNL     1       1.460   4.601  -1.360  0.00  0.00    +0.011 A 
ATOM      7  C   UNL     1       0.277   4.610  -2.020  0.00  0.00    -0.026 A 
ATOM      8  S   UNL     1       0.271   2.998  -2.789  0.00  0.00    -0.075 S 
BRANCH   7   9
ATOM      9  C   UNL     1      -0.762   5.699  -2.091  0.00  0.00    -0.043 C 
BRANCH   9  10
ATOM     10  N   UNL     1      -0.473   6.578  -3.232  0.00  0.00    +0.381 N 
ATOM     11  H   UNL     1      -1.168   7.307  -3.280  0.00  0.00    -0.090 HD
ATOM     12  H   UNL     1       0.440   6.991  -3.115  0.00  0.00    -0.090 HD
ATOM     13  H   UNL     1      -0.491   6.039  -4.085  0.00  0.00    -0.090 HD
ENDBRANCH   9  10
ENDBRANCH   7   9
ENDBRANCH   1   4
BRANCH   1  14
ATOM     14  N   UNL     1       2.133  -0.162  -1.260  0.00  0.00    -0.186 NA
ATOM     15  H   UNL     1       2.765  -0.496  -0.605  0.00  0.00    +0.148 HD
BRANCH  14  16
ATOM     16  C   UNL     1       0.728  -0.573  -1.199  0.00  0.00    +0.079 C 
BRANCH  16  17
ATOM     17  C   UNL     1       0.624  -2.075  -1.473  0.00  0.00    +0.008 C 
ATOM     18  C   UNL     1       1.426  -2.842  -0.420  0.00  0.00    +0.005 C 
ATOM     19  C   UNL     1       1.321  -4.343  -0.694  0.00  0.00    +0.000 C 
ATOM     20  C   UNL     1       1.882  -4.649  -2.084  0.00  0.00    +0.000 C 
ATOM     21  C   UNL     1       1.080  -3.881  -3.137  0.00  0.00    +0.000 C 
ATOM     22  C   UNL     1       1.184  -2.380  -2.864  0.00  0.00    +0.005 C 
ENDBRANCH  16  17
BRANCH  16  24
ATOM     23  C   UNL     1       0.188   1.244   0.429  0.00  0.00    +0.005 C 
ATOM     24  C   UNL     1       0.168  -0.268   0.191  0.00  0.00    +0.017 C 
ENDBRANCH  16  24
ENDBRANCH  14  16
ENDBRANCH   1  14
TORSDOF 7
