REMARK  Name = ZINC04742002
REMARK  9 active torsions:
REMARK  status: ('A' for Active; 'I' for Inactive)
REMARK    1  A    between atoms: C_1  and  C_2
REMARK    2  A    between atoms: C_2  and  O_3
REMARK    3  A    between atoms: O_3  and  C_4
REMARK    4  A    between atoms: C_4  and  C_6
REMARK    5  A    between atoms: C_7  and  C_29
REMARK    6  A    between atoms: C_18  and  C_20
REMARK    7  A    between atoms: C_23  and  O_28
REMARK    8  A    between atoms: C_24  and  O_26
REMARK    9  A    between atoms: O_26  and  C_27
REMARK                            x       y       z     vdW  Elec       q    Type
REMARK                         _______ _______ _______ _____ _____    ______ ____
ROOT
ATOM      1  C   UNL     1       1.409   5.827  -0.274  0.00  0.00    +0.080 C 
ATOM      2  C   UNL     1       2.749   5.856  -0.284  0.00  0.00    +0.020 C 
ATOM      3  N   UNL     1       3.511   4.746  -0.023  0.00  0.00    -0.288 N 
ATOM      4  C   UNL     1       2.869   3.515  -0.012  0.00  0.00    +0.202 A 
ATOM      5  N   UNL     1       3.392   2.324  -0.021  0.00  0.00    -0.214 NA
ATOM      6  C   UNL     1       2.401   1.391  -0.014  0.00  0.00    +0.091 A 
ATOM      7  C   UNL     1       2.401  -0.006  -0.021  0.00  0.00    +0.030 A 
ATOM      8  C   UNL     1       1.207  -0.691  -0.013  0.00  0.00    +0.002 A 
ATOM      9  C   UNL     1       0.002  -0.004   0.002  0.00  0.00    +0.002 A 
ATOM     10  C   UNL     1      -0.017   1.375   0.010  0.00  0.00    +0.028 A 
ATOM     11  C   UNL     1       1.176   2.084   0.002  0.00  0.00    +0.071 A 
ATOM     12  N   UNL     1       1.499   3.422   0.007  0.00  0.00    -0.300 N 
ATOM     13  C   UNL     1       0.614   4.587   0.032  0.00  0.00    +0.159 C 
ATOM     14  C   UNL     1       3.445   7.157  -0.593  0.00  0.00    +0.061 C 
ATOM     15  H   UNL     1       4.463   4.818   0.148  0.00  0.00    +0.155 HD
ENDROOT
BRANCH  13  16
ATOM     16  C   UNL     1      -0.010   4.714   1.398  0.00  0.00    -0.016 A 
ATOM     17  C   UNL     1       0.794   4.875   2.511  0.00  0.00    +0.010 A 
ATOM     18  C   UNL     1       0.227   4.998   3.766  0.00  0.00    +0.049 A 
ATOM     19  C   UNL     1      -1.151   4.949   3.911  0.00  0.00    +0.158 A 
ATOM     20  C   UNL     1      -1.960   4.782   2.791  0.00  0.00    +0.162 A 
ATOM     21  C   UNL     1      -1.385   4.665   1.536  0.00  0.00    +0.055 A 
BRANCH  20  22
ATOM     22  O   UNL     1      -3.312   4.733   2.929  0.00  0.00    -0.491 OA
ATOM     23  C   UNL     1      -4.079   4.559   1.736  0.00  0.00    +0.277 C 
ENDBRANCH  20  22
BRANCH  19  24
ATOM     24  O   UNL     1      -1.710   5.064   5.145  0.00  0.00    -0.503 OA
ATOM     25  H   UNL     1      -1.830   4.221   5.603  0.00  0.00    +0.292 HD
ENDBRANCH  19  24
ENDBRANCH  13  16
BRANCH   1  26
ATOM     26  C   UNL     1       0.708   7.019  -0.566  0.00  0.00    +0.339 C 
ATOM     27  O   UNL     1       1.322   8.040  -0.818  0.00  0.00    -0.245 OA
BRANCH  26  28
ATOM     28  O   UNL     1      -0.641   7.026  -0.565  0.00  0.00    -0.462 OA
BRANCH  28  30
ATOM     29  C   UNL     1      -2.801   8.079  -0.819  0.00  0.00    +0.048 C 
ATOM     30  C   UNL     1      -1.284   8.266  -0.868  0.00  0.00    +0.229 C 
ENDBRANCH  28  30
ENDBRANCH  26  28
ENDBRANCH   1  26
TORSDOF 6
