REMARK  Name = ZINC64788566
REMARK  5 active torsions:
REMARK  status: ('A' for Active; 'I' for Inactive)
REMARK    1  A    between atoms: C_1  and  C_2
REMARK    2  A    between atoms: C_2  and  O_3
REMARK    3  A    between atoms: O_3  and  C_4
REMARK    4  A    between atoms: C_9  and  C_10
REMARK    5  A    between atoms: N_21  and  C_24
REMARK                            x       y       z     vdW  Elec       q    Type
REMARK                         _______ _______ _______ _____ _____    ______ ____
ROOT
ATOM      1  C   UNL     1       2.349   0.904  -3.320  0.00  0.00    +0.112 C 
ATOM      2  C   UNL     1       1.239   0.457  -4.301  0.00  0.00    +0.078 C 
ATOM      3  C   UNL     1       1.975   0.428  -5.628  0.00  0.00    +0.038 C 
ATOM      4  N   UNL     1       3.296   0.467  -5.370  0.00  0.00    -0.283 N 
ATOM      5  N   UNL     1       3.577   0.485  -4.035  0.00  0.00    -0.235 NA
ATOM      6  C   UNL     1       1.393   0.371  -6.881  0.00  0.00    +0.118 C 
ATOM      7  C   UNL     1      -0.071   0.338  -7.048  0.00  0.00    +0.258 C 
ATOM      8  N   UNL     1      -0.569   0.283  -8.300  0.00  0.00    -0.235 N 
ATOM      9  C   UNL     1       0.234   0.258  -9.373  0.00  0.00    +0.320 C 
ATOM     10  O   UNL     1      -0.278   0.208 -10.474  0.00  0.00    -0.251 OA
ATOM     11  N   UNL     1       1.572   0.286  -9.296  0.00  0.00    -0.190 N 
ATOM     12  C   UNL     1       2.208   0.347  -8.108  0.00  0.00    +0.265 C 
ATOM     13  O   UNL     1       3.424   0.376  -8.051  0.00  0.00    -0.269 OA
ATOM     14  O   UNL     1      -0.811   0.359  -6.082  0.00  0.00    -0.270 OA
ATOM     15  H   UNL     1       4.343   1.109  -3.835  0.00  0.00    +0.145 HD
ATOM     16  H   UNL     1      -1.531   0.261  -8.427  0.00  0.00    +0.159 HD
ATOM     17  H   UNL     1       3.977   0.480  -6.061  0.00  0.00    +0.166 HD
ENDROOT
BRANCH  11  18
ATOM     18  C   UNL     1       2.327   0.256 -10.477  0.00  0.00    +0.046 A 
ATOM     19  C   UNL     1       2.723  -0.959 -11.018  0.00  0.00    +0.025 A 
ATOM     20  C   UNL     1       3.466  -0.986 -12.182  0.00  0.00    +0.022 A 
ATOM     21  C   UNL     1       3.816   0.197 -12.808  0.00  0.00    +0.041 A 
ATOM     22  C   UNL     1       3.422   1.410 -12.270  0.00  0.00    +0.022 A 
ATOM     23  C   UNL     1       2.674   1.442 -11.110  0.00  0.00    +0.025 A 
ATOM     24 CL   UNL     1       4.751   0.161 -14.271  0.00  0.00    -0.084 Cl
ENDBRANCH  11  18
BRANCH   1  30
ATOM     25  C   UNL     1       1.341   0.652  -1.038  0.00  0.00    +0.125 A 
ATOM     26  C   UNL     1       1.223  -0.014   0.173  0.00  0.00    +0.046 A 
ATOM     27  C   UNL     1       1.988  -1.137   0.419  0.00  0.00    +0.004 A 
ATOM     28  C   UNL     1       2.871  -1.598  -0.540  0.00  0.00    +0.001 A 
ATOM     29  C   UNL     1       2.991  -0.935  -1.748  0.00  0.00    +0.009 A 
ATOM     30  C   UNL     1       2.223   0.185  -2.001  0.00  0.00    +0.013 A 
BRANCH  25  31
ATOM     31  O   UNL     1       0.588   1.757  -1.283  0.00  0.00    -0.492 OA
BRANCH  31  33
ATOM     32  C   UNL     1      -1.056   3.430  -0.700  0.00  0.00    +0.048 C 
ATOM     33  C   UNL     1      -0.299   2.181  -0.246  0.00  0.00    +0.225 C 
ENDBRANCH  31  33
ENDBRANCH  25  31
ENDBRANCH   1  30
TORSDOF 4
