REMARK  Name = ZINC36855746
REMARK  9 active torsions:
REMARK  status: ('A' for Active; 'I' for Inactive)
REMARK    1  A    between atoms: C_1  and  C_2
REMARK    2  A    between atoms: C_5  and  S_13
REMARK    3  A    between atoms: N_6  and  C_7
REMARK    4  A    between atoms: S_13  and  C_14
REMARK    5  A    between atoms: C_14  and  C_16
REMARK    6  A    between atoms: C_14  and  C_17
REMARK    7  A    between atoms: N_19  and  C_20
REMARK    8  A    between atoms: C_25  and  C_30
REMARK    9  A    between atoms: C_27  and  C_29
REMARK                            x       y       z     vdW  Elec       q    Type
REMARK                         _______ _______ _______ _____ _____    ______ ____
ROOT
ATOM      1  C   UNL     1       0.073  -4.897   0.313  0.00  0.00    +0.137 C 
ATOM      2  C   UNL     1      -1.238  -4.868  -0.475  0.00  0.00    +0.029 C 
ENDROOT
BRANCH   1   3
ATOM      3  C   UNL     1       0.219  -6.233   0.995  0.00  0.00    +0.226 C 
ATOM      4  O   UNL     1      -0.139  -6.369   2.146  0.00  0.00    -0.275 OA
ATOM      5  N   UNL     1       0.747  -7.277   0.326  0.00  0.00    -0.311 N 
ATOM      6  H   UNL     1       1.034  -7.169  -0.594  0.00  0.00    +0.149 HD
BRANCH   5   7
ATOM      7  C   UNL     1       0.889  -8.576   0.989  0.00  0.00    +0.076 C 
ATOM      8  C   UNL     1      -0.423  -9.354   0.873  0.00  0.00    +0.022 C 
ATOM      9  C   UNL     1      -0.275 -10.710   1.565  0.00  0.00    +0.002 C 
ATOM     10  C   UNL     1       0.849 -11.504   0.897  0.00  0.00    +0.003 C 
ATOM     11  C   UNL     1       2.162 -10.726   1.014  0.00  0.00    -0.009 C 
ATOM     12  C   UNL     1       2.014  -9.370   0.322  0.00  0.00    +0.009 C 
ATOM     13  C   UNL     1       3.326  -8.592   0.438  0.00  0.00    +0.009 C 
ATOM     14  C   UNL     1       2.497 -10.510   2.491  0.00  0.00    +0.008 C 
ENDBRANCH   5   7
ENDBRANCH   1   3
BRANCH   1  15
ATOM     15  S   UNL     1       0.059  -3.580   1.560  0.00  0.00    -0.074 S 
BRANCH  15  20
ATOM     16  C   UNL     1      -0.018   1.503   0.010  0.00  0.00    +0.088 C 
ATOM     17  C   UNL     1       0.002  -0.004   0.002  0.00  0.00    +0.131 A 
ATOM     18  N   UNL     1       0.008  -0.770  -1.052  0.00  0.00    -0.134 NA
ATOM     19  N   UNL     1       0.027  -2.006  -0.699  0.00  0.00    -0.122 NA
ATOM     20  C   UNL     1       0.034  -2.095   0.611  0.00  0.00    +0.193 A 
ATOM     21  N   UNL     1       0.024  -0.820   1.099  0.00  0.00    -0.303 N 
BRANCH  21  22
ATOM     22  C   UNL     1       0.031  -0.411   2.506  0.00  0.00    +0.091 C 
ATOM     23  C   UNL     1      -1.204  -0.979   3.208  0.00  0.00    +0.025 C 
ATOM     24  C   UNL     1      -1.197  -0.552   4.677  0.00  0.00    +0.002 C 
ATOM     25  C   UNL     1       0.066  -1.085   5.357  0.00  0.00    +0.000 C 
ATOM     26  C   UNL     1       1.301  -0.517   4.655  0.00  0.00    +0.002 C 
ATOM     27  C   UNL     1       1.294  -0.944   3.186  0.00  0.00    +0.025 C 
ENDBRANCH  21  22
ENDBRANCH  15  20
ENDBRANCH   1  15
TORSDOF 5
