REMARK  Name = ZINC01047130
REMARK  5 active torsions:
REMARK  status: ('A' for Active; 'I' for Inactive)
REMARK    1  A    between atoms: C_1  and  C_2
REMARK    2  A    between atoms: N_7  and  C_10
REMARK    3  A    between atoms: C_11  and  C_22
REMARK    4  A    between atoms: N_12  and  C_13
REMARK    5  A    between atoms: C_16  and  N_19
REMARK                            x       y       z     vdW  Elec       q    Type
REMARK                         _______ _______ _______ _____ _____    ______ ____
ROOT
ATOM      1  C   UNL     1      -2.929   5.035   0.325  0.00  0.00    +0.065 C 
ATOM      2  C   UNL     1      -2.513   3.596   0.164  0.00  0.00    +0.034 A 
ATOM      3  C   UNL     1      -1.198   3.149   0.139  0.00  0.00    +0.071 A 
ATOM      4  C   UNL     1      -1.233   1.739  -0.033  0.00  0.00    +0.033 A 
ATOM      5  C   UNL     1      -0.030   1.053  -0.082  0.00  0.00    +0.143 A 
ATOM      6  N   UNL     1       1.117   1.705   0.020  0.00  0.00    -0.176 NA
ATOM      7  N   UNL     1       1.209   2.974   0.171  0.00  0.00    -0.232 N 
ATOM      8  C   UNL     1       0.123   3.774   0.242  0.00  0.00    +0.276 A 
ATOM      9  O   UNL     1       0.238   4.977   0.387  0.00  0.00    -0.266 OA
ATOM     10  C   UNL     1       2.540   3.579   0.271  0.00  0.00    +0.176 C 
ATOM     11  C   UNL     1      -2.668   1.381  -0.100  0.00  0.00    +0.063 A 
ATOM     12  N   UNL     1      -3.370   2.550   0.023  0.00  0.00    -0.312 N 
ENDROOT
BRANCH  12  13
ATOM     13  C   UNL     1      -4.767   2.653   0.005  0.00  0.00    +0.047 A 
ATOM     14  C   UNL     1      -5.518   2.104   1.036  0.00  0.00    +0.028 A 
ATOM     15  C   UNL     1      -6.895   2.213   1.018  0.00  0.00    +0.035 A 
ATOM     16  C   UNL     1      -7.526   2.857  -0.031  0.00  0.00    +0.126 A 
ATOM     17  C   UNL     1      -6.780   3.399  -1.062  0.00  0.00    +0.035 A 
ATOM     18  C   UNL     1      -5.403   3.299  -1.047  0.00  0.00    +0.028 A 
BRANCH  16  19
ATOM     19  N   UNL     1      -9.002   2.965  -0.050  0.00  0.00    +0.056 N 
ATOM     20  O   UNL     1      -9.604   3.578  -1.048  0.00  0.00    -0.126 OA
ATOM     21  O   UNL     1      -9.713   2.449   0.931  0.00  0.00    -0.126 OA
ENDBRANCH  16  19
ENDBRANCH  12  13
BRANCH  11  22
ATOM     22  C   UNL     1      -3.206   0.088  -0.264  0.00  0.00    -0.001 A 
ATOM     23  C   UNL     1      -2.822  -0.958   0.603  0.00  0.00    +0.010 A 
ATOM     24  C   UNL     1      -3.355  -2.204   0.437  0.00  0.00    +0.001 A 
ATOM     25  C   UNL     1      -4.263  -2.447  -0.586  0.00  0.00    +0.000 A 
ATOM     26  C   UNL     1      -4.644  -1.428  -1.448  0.00  0.00    +0.001 A 
ATOM     27  C   UNL     1      -4.130  -0.172  -1.300  0.00  0.00    +0.010 A 
ENDBRANCH  11  22
TORSDOF 3
