REMARK  Name = ZINC17167662
REMARK  7 active torsions:
REMARK  status: ('A' for Active; 'I' for Inactive)
REMARK    1  A    between atoms: C_1  and  C_2
REMARK    2  A    between atoms: C_3  and  N_9
REMARK    3  A    between atoms: N_11  and  C_26
REMARK    4  A    between atoms: C_15  and  C_16
REMARK    5  A    between atoms: C_20  and  O_23
REMARK    6  A    between atoms: C_21  and  O_22
REMARK    7  A    between atoms: O_23  and  C_24
REMARK                            x       y       z     vdW  Elec       q    Type
REMARK                         _______ _______ _______ _____ _____    ______ ____
ROOT
ATOM      1  N   UNL     1       8.377   1.523  -0.532  0.00  0.00    -0.225 NA
ATOM      2  C   UNL     1       7.119   1.166  -0.402  0.00  0.00    +0.168 C 
ATOM      3  N   UNL     1       6.010   1.972  -0.260  0.00  0.00    -0.249 N 
ATOM      4  C   UNL     1       4.803   1.444  -0.141  0.00  0.00    +0.259 C 
ATOM      5  O   UNL     1       3.813   2.140  -0.015  0.00  0.00    -0.269 OA
ATOM      6  C   UNL     1       4.712  -0.029  -0.168  0.00  0.00    +0.078 C 
ATOM      7  C   UNL     1       3.618  -0.826  -0.067  0.00  0.00    +0.032 C 
ATOM      8  S   UNL     1       6.430  -0.481  -0.361  0.00  0.00    -0.049 S 
ATOM      9  C   UNL     1       6.169   3.428  -0.240  0.00  0.00    +0.140 C 
ENDROOT
BRANCH   1  12
ATOM     10  C   UNL     1       8.275   2.666  -3.132  0.00  0.00    +0.047 C 
ATOM     11  C   UNL     1       8.670   3.459  -1.913  0.00  0.00    -0.007 A 
ATOM     12  C   UNL     1       8.703   2.846  -0.659  0.00  0.00    +0.071 A 
ATOM     13  C   UNL     1       9.076   3.587   0.465  0.00  0.00    +0.028 A 
ATOM     14  C   UNL     1       9.404   4.921   0.330  0.00  0.00    +0.004 A 
ATOM     15  C   UNL     1       9.364   5.524  -0.914  0.00  0.00    +0.020 A 
ATOM     16  C   UNL     1       8.995   4.796  -2.033  0.00  0.00    +0.046 A 
ATOM     17 CL   UNL     1       8.948   5.563  -3.589  0.00  0.00    -0.083 Cl
ENDBRANCH   1  12
BRANCH   7  18
ATOM     18  C   UNL     1       2.313  -0.242   0.269  0.00  0.00    +0.021 A 
ATOM     19  C   UNL     1       2.212   0.719   1.282  0.00  0.00    +0.012 A 
ATOM     20  C   UNL     1       0.985   1.263   1.594  0.00  0.00    +0.004 A 
ATOM     21  C   UNL     1      -0.152   0.864   0.911  0.00  0.00    +0.049 A 
ATOM     22  C   UNL     1      -0.068  -0.086  -0.094  0.00  0.00    +0.162 A 
ATOM     23  C   UNL     1       1.161  -0.645  -0.422  0.00  0.00    +0.166 A 
BRANCH  23  24
ATOM     24  O   UNL     1       1.247  -1.577  -1.407  0.00  0.00    -0.503 OA
ATOM     25  H   UNL     1       0.341  -1.890  -1.948  0.00  0.00    +0.292 HD
ENDBRANCH  23  24
BRANCH  22  26
ATOM     26  O   UNL     1      -1.190  -0.472  -0.760  0.00  0.00    -0.491 OA
ATOM     27  C   UNL     1      -2.419   0.144  -0.371  0.00  0.00    +0.277 C 
ENDBRANCH  22  26
ENDBRANCH   7  18
TORSDOF 4
