REMARK  Name = ZINC22107971
REMARK  10 active torsions:
REMARK  status: ('A' for Active; 'I' for Inactive)
REMARK    1  A    between atoms: C_4  and  N_7
REMARK    2  A    between atoms: C_8  and  S_12
REMARK    3  A    between atoms: S_12  and  C_13
REMARK    4  A    between atoms: C_13  and  C_14
REMARK    5  A    between atoms: C_14  and  N_15
REMARK    6  A    between atoms: N_15  and  C_16
REMARK    7  A    between atoms: C_16  and  C_17
REMARK    8  A    between atoms: C_22  and  O_23
REMARK    9  A    between atoms: O_23  and  C_24
REMARK   10  A    between atoms: C_24  and  C_25
REMARK                            x       y       z     vdW  Elec       q    Type
REMARK                         _______ _______ _______ _____ _____    ______ ____
ROOT
ATOM      1  N   UNL     1      -1.481   3.732   4.281  0.00  0.00    +0.382 N 
ATOM      2  H   UNL     1      -1.913   4.725   4.474  0.00  0.00    -0.085 HD
ATOM      3  H   UNL     1      -0.843   3.777   3.386  0.00  0.00    -0.085 HD
ENDROOT
BRANCH   1   4
ATOM      4  C   UNL     1      -0.675   3.316   5.437  0.00  0.00    -0.071 C 
BRANCH   4   5
ATOM      5  C   UNL     1       0.451   4.326   5.664  0.00  0.00    +0.058 C 
BRANCH   5   6
ATOM      6  S   UNL     1       1.444   3.813   7.088  0.00  0.00    -0.086 S 
BRANCH   6   8
ATOM      7  N   UNL     1       3.647   5.258   8.005  0.00  0.00    -0.187 N 
ATOM      8  C   UNL     1       2.630   5.115   7.120  0.00  0.00    +0.214 A 
ATOM      9  N   UNL     1       2.692   6.137   6.292  0.00  0.00    -0.101 NA
ATOM     10  N   UNL     1       3.678   6.902   6.596  0.00  0.00    -0.022 NA
ATOM     11  N   UNL     1       4.308   6.438   7.620  0.00  0.00    -0.038 NA
BRANCH   7  15
ATOM     12  C   UNL     1       4.612   2.739  11.183  0.00  0.00    +0.000 A 
ATOM     13  C   UNL     1       5.617   3.376  10.478  0.00  0.00    +0.002 A 
ATOM     14  C   UNL     1       5.300   4.211   9.425  0.00  0.00    +0.028 A 
ATOM     15  C   UNL     1       3.972   4.411   9.074  0.00  0.00    +0.070 A 
ATOM     16  C   UNL     1       2.965   3.774   9.787  0.00  0.00    +0.028 A 
ATOM     17  C   UNL     1       3.288   2.936  10.836  0.00  0.00    +0.002 A 
ENDBRANCH   7  15
ENDBRANCH   6   8
ENDBRANCH   5   6
ENDBRANCH   4   5
ENDBRANCH   1   4
BRANCH   1  18
ATOM     18  C   UNL     1      -2.574   2.783   4.032  0.00  0.00    -0.043 C 
BRANCH  18  19
ATOM     19  C   UNL     1      -3.377   3.242   2.842  0.00  0.00    -0.021 A 
ATOM     20  C   UNL     1      -4.569   3.915   3.031  0.00  0.00    +0.025 A 
ATOM     21  C   UNL     1      -5.310   4.331   1.939  0.00  0.00    +0.041 A 
ATOM     22  C   UNL     1      -4.855   4.081   0.656  0.00  0.00    +0.023 A 
ATOM     23  C   UNL     1      -3.660   3.414   0.464  0.00  0.00    +0.047 A 
ATOM     24  C   UNL     1      -2.917   2.995   1.558  0.00  0.00    +0.122 A 
ATOM     25 CL   UNL     1      -6.811   5.169   2.178  0.00  0.00    -0.084 Cl
BRANCH  24  26
ATOM     26  O   UNL     1      -1.741   2.339   1.370  0.00  0.00    -0.487 OA
BRANCH  26  27
ATOM     27  C   UNL     1      -1.332   2.114   0.020  0.00  0.00    +0.264 C 
BRANCH  27  28
ATOM     28  C   UNL     1      -0.017   1.378   0.010  0.00  0.00    -0.010 A 
ATOM     29  C   UNL     1       1.171   2.086   0.002  0.00  0.00    +0.008 A 
ATOM     30  C   UNL     1       2.377   1.412  -0.013  0.00  0.00    +0.020 A 
ATOM     31  C   UNL     1       2.397   0.029  -0.021  0.00  0.00    +0.041 A 
ATOM     32  C   UNL     1       1.208  -0.679  -0.013  0.00  0.00    +0.020 A 
ATOM     33  C   UNL     1       0.002  -0.004   0.002  0.00  0.00    +0.008 A 
ATOM     34 CL   UNL     1       3.912  -0.818  -0.039  0.00  0.00    -0.084 Cl
ENDBRANCH  27  28
ENDBRANCH  26  27
ENDBRANCH  24  26
ENDBRANCH  18  19
ENDBRANCH   1  18
TORSDOF 10
