REMARK  Name = ZINC67561117
REMARK  6 active torsions:
REMARK  status: ('A' for Active; 'I' for Inactive)
REMARK    1  A    between atoms: C_1  and  C_2
REMARK    2  A    between atoms: C_10  and  N_11
REMARK    3  A    between atoms: N_11  and  C_12
REMARK    4  A    between atoms: C_12  and  C_13
REMARK    5  A    between atoms: C_18  and  N_19
REMARK    6  A    between atoms: C_23  and  O_26
REMARK                            x       y       z     vdW  Elec       q    Type
REMARK                         _______ _______ _______ _____ _____    ______ ____
ROOT
ATOM      1  C   UNL     1       0.151  -6.654   3.024  0.00  0.00    +0.008 A 
ATOM      2  C   UNL     1      -0.992  -7.425   3.130  0.00  0.00    +0.010 A 
ATOM      3  C   UNL     1      -0.978  -8.708   2.599  0.00  0.00    +0.018 A 
ATOM      4  C   UNL     1       0.168  -9.173   1.985  0.00  0.00    +0.084 A 
ATOM      5  N   UNL     1       1.245  -8.415   1.899  0.00  0.00    -0.349 N 
ATOM      6  C   UNL     1       1.269  -7.185   2.388  0.00  0.00    +0.104 A 
ATOM      7  H   UNL     1       2.037  -8.766   1.463  0.00  0.00    +0.167 HD
ENDROOT
BRANCH   6   8
ATOM      8  N   UNL     1       2.422  -6.418   2.269  0.00  0.00    -0.314 N 
ATOM      9  C   UNL     1       2.651  -5.589   1.078  0.00  0.00    +0.106 C 
ATOM     10  C   UNL     1       4.020  -5.942   0.487  0.00  0.00    +0.021 C 
ATOM     11  C   UNL     1       5.092  -5.796   1.570  0.00  0.00    +0.034 C 
ATOM     12  C   UNL     1       4.796  -6.766   2.717  0.00  0.00    +0.132 C 
ATOM     13  C   UNL     1       3.433  -6.418   3.335  0.00  0.00    +0.137 C 
BRANCH  12  14
ATOM     14  O   UNL     1       5.814  -6.651   3.713  0.00  0.00    -0.390 OA
ATOM     15  H   UNL     1       6.704  -6.852   3.391  0.00  0.00    +0.210 HD
ENDBRANCH  12  14
ENDBRANCH   6   8
BRANCH   1  16
ATOM     16  C   UNL     1       0.184  -5.256   3.585  0.00  0.00    +0.141 C 
BRANCH  16  17
ATOM     17  N   UNL     1       0.045  -4.288   2.494  0.00  0.00    -0.324 N 
ATOM     18  H   UNL     1      -0.049  -4.599   1.580  0.00  0.00    +0.148 HD
BRANCH  17  28
ATOM     19  C   UNL     1      -0.234   1.716   1.073  0.00  0.00    +0.046 C 
ATOM     20  C   UNL     1      -0.222   0.219   0.900  0.00  0.00    -0.017 A 
ATOM     21  C   UNL     1      -0.346  -0.316  -0.329  0.00  0.00    +0.051 A 
ATOM     22  S   UNL     1      -0.275  -2.071  -0.010  0.00  0.00    -0.091 S 
ATOM     23  C   UNL     1      -0.083  -2.001   1.751  0.00  0.00    +0.078 A 
ATOM     24  C   UNL     1      -0.076  -0.616   2.022  0.00  0.00    +0.086 A 
ATOM     25  N   UNL     1       0.066  -0.276   3.328  0.00  0.00    -0.234 NA
ATOM     26  C   UNL     1       0.191  -1.185   4.259  0.00  0.00    +0.224 A 
ATOM     27  N   UNL     1       0.191  -2.484   4.016  0.00  0.00    -0.220 NA
ATOM     28  C   UNL     1       0.047  -2.930   2.768  0.00  0.00    +0.137 A 
ENDBRANCH  17  28
ENDBRANCH  16  17
ENDBRANCH   1  16
TORSDOF 5
