REMARK  Name = ZINC00422229
REMARK  7 active torsions:
REMARK  status: ('A' for Active; 'I' for Inactive)
REMARK    1  A    between atoms: C_1  and  C_2
REMARK    2  A    between atoms: C_9  and  C_24
REMARK    3  A    between atoms: C_10  and  S_12
REMARK    4  A    between atoms: S_12  and  C_13
REMARK    5  A    between atoms: C_13  and  C_14
REMARK    6  A    between atoms: N_16  and  C_17
REMARK    7  A    between atoms: C_22  and  C_23
REMARK                            x       y       z     vdW  Elec       q    Type
REMARK                         _______ _______ _______ _____ _____    ______ ____
ROOT
ATOM      1  C   UNL     1       4.598  -2.178   6.161  0.00  0.00    +0.044 C 
ATOM      2  C   UNL     1       3.678  -1.530   5.158  0.00  0.00    -0.050 A 
ATOM      3  C   UNL     1       3.922  -1.693   3.796  0.00  0.00    +0.005 A 
ATOM      4  C   UNL     1       3.111  -1.122   2.863  0.00  0.00    +0.028 A 
ATOM      5  C   UNL     1       2.006  -0.355   3.273  0.00  0.00    +0.072 A 
ATOM      6  C   UNL     1       1.760  -0.191   4.659  0.00  0.00    +0.002 A 
ATOM      7  C   UNL     1       2.618  -0.794   5.594  0.00  0.00    +0.013 A 
ATOM      8  C   UNL     1       0.657   0.575   5.076  0.00  0.00    +0.031 A 
ATOM      9  C   UNL     1      -0.149   1.147   4.101  0.00  0.00    +0.084 A 
ATOM     10  C   UNL     1       0.158   0.934   2.735  0.00  0.00    +0.115 A 
ATOM     11  N   UNL     1       1.197   0.213   2.372  0.00  0.00    -0.239 NA
ENDROOT
BRANCH   9  12
ATOM     12  C   UNL     1      -1.281   1.941   4.472  0.00  0.00    +0.102 C 
ATOM     13  N   UNL     1      -2.180   2.570   4.767  0.00  0.00    -0.191 NA
ENDBRANCH   9  12
BRANCH  10  14
ATOM     14  S   UNL     1      -0.869   1.655   1.497  0.00  0.00    -0.095 S 
BRANCH  14  15
ATOM     15  C   UNL     1      -0.021   1.073   0.008  0.00  0.00    +0.172 C 
BRANCH  15  16
ATOM     16  C   UNL     1      -0.743   1.582  -1.213  0.00  0.00    +0.227 C 
ATOM     17  O   UNL     1      -1.734   2.271  -1.088  0.00  0.00    -0.275 OA
ATOM     18  N   UNL     1      -0.288   1.272  -2.443  0.00  0.00    -0.285 N 
ATOM     19  H   UNL     1       0.547   0.790  -2.544  0.00  0.00    +0.155 HD
BRANCH  18  20
ATOM     20  C   UNL     1      -1.022   1.646  -3.575  0.00  0.00    +0.036 A 
ATOM     21  C   UNL     1      -2.392   1.853  -3.479  0.00  0.00    +0.023 A 
ATOM     22  C   UNL     1      -3.112   2.226  -4.597  0.00  0.00    +0.002 A 
ATOM     23  C   UNL     1      -2.471   2.386  -5.812  0.00  0.00    +0.000 A 
ATOM     24  C   UNL     1      -1.108   2.176  -5.912  0.00  0.00    +0.005 A 
ATOM     25  C   UNL     1      -0.382   1.807  -4.796  0.00  0.00    -0.029 A 
ATOM     26  C   UNL     1       1.104   1.578  -4.906  0.00  0.00    +0.045 C 
ENDBRANCH  18  20
ENDBRANCH  15  16
ENDBRANCH  14  15
ENDBRANCH  10  14
TORSDOF 5
