REMARK  Name = ZINC25540744
REMARK  8 active torsions:
REMARK  status: ('A' for Active; 'I' for Inactive)
REMARK    1  A    between atoms: C_1  and  C_2
REMARK    2  A    between atoms: C_3  and  C_19
REMARK    3  A    between atoms: C_6  and  C_18
REMARK    4  A    between atoms: C_13  and  O_17
REMARK    5  A    between atoms: C_19  and  O_21
REMARK    6  A    between atoms: O_21  and  C_22
REMARK    7  A    between atoms: C_22  and  C_24
REMARK    8  A    between atoms: C_22  and  C_25
REMARK                            x       y       z     vdW  Elec       q    Type
REMARK                         _______ _______ _______ _____ _____    ______ ____
ROOT
ATOM      1  C   UNL     1       1.162   5.689   1.345  0.00  0.00    +0.040 C 
ATOM      2  C   UNL     1      -0.145   4.940   1.392  0.00  0.00    -0.051 C 
ATOM      3  C   UNL     1      -1.268   5.652   1.516  0.00  0.00    +0.058 C 
ATOM      4  C   UNL     1      -2.572   4.959   1.567  0.00  0.00    +0.011 C 
ATOM      5  C   UNL     1      -2.623   3.648   1.483  0.00  0.00    -0.015 C 
ATOM      6  C   UNL     1      -1.440   2.760   1.335  0.00  0.00    +0.039 C 
ATOM      7  C   UNL     1      -0.094   3.456   1.297  0.00  0.00    +0.073 C 
ATOM      8  C   UNL     1       0.682   3.032   0.036  0.00  0.00    +0.207 C 
ATOM      9  C   UNL     1       0.762   1.510   0.057  0.00  0.00    +0.017 C 
ATOM     10  C   UNL     1      -0.425   0.904   0.084  0.00  0.00    +0.019 C 
ATOM     11  C   UNL     1      -1.600   1.881   0.077  0.00  0.00    +0.190 C 
ATOM     12  C   UNL     1      -1.360   2.803  -1.111  0.00  0.00    +0.345 C 
ATOM     13  O   UNL     1      -2.187   2.987  -1.972  0.00  0.00    -0.247 OA
ATOM     14  O   UNL     1      -0.138   3.401  -1.123  0.00  0.00    -0.454 OA
ATOM     15  C   UNL     1      -1.414   1.823   2.544  0.00  0.00    +0.020 C 
ENDROOT
BRANCH  11  16
ATOM     16  O   UNL     1      -2.865   1.219   0.009  0.00  0.00    -0.373 OA
ATOM     17  H   UNL     1      -3.097   0.563  -0.844  0.00  0.00    +0.211 HD
ENDBRANCH  11  16
BRANCH   3  18
ATOM     18  C   UNL     1      -1.207   7.124   1.603  0.00  0.00    +0.340 C 
ATOM     19  O   UNL     1      -1.376   7.678   2.671  0.00  0.00    -0.245 OA
BRANCH  18  20
ATOM     20  O   UNL     1      -0.964   7.854   0.497  0.00  0.00    -0.453 OA
BRANCH  20  21
ATOM     21  C   UNL     1      -0.918   9.297   0.656  0.00  0.00    +0.207 C 
ATOM     22  C   UNL     1      -2.318   9.878   0.450  0.00  0.00    +0.057 C 
BRANCH  21  23
ATOM     23  C   UNL     1       0.025   9.885  -0.362  0.00  0.00    +0.030 A 
ATOM     24  C   UNL     1       0.938  10.944  -0.152  0.00  0.00    +0.048 A 
ATOM     25  C   UNL     1       1.578  11.144  -1.318  0.00  0.00    +0.195 A 
ATOM     26  O   UNL     1       1.097  10.273  -2.220  0.00  0.00    -0.471 OA
ATOM     27  C   UNL     1       0.155   9.507  -1.646  0.00  0.00    +0.202 A 
ENDBRANCH  21  23
ENDBRANCH  20  21
ENDBRANCH  18  20
ENDBRANCH   3  18
TORSDOF 5
