REMARK  Name = ZINC35746995
REMARK  13 active torsions:
REMARK  status: ('A' for Active; 'I' for Inactive)
REMARK    1  A    between atoms: C_1  and  C_2
REMARK    2  A    between atoms: C_2  and  N_3
REMARK    3  A    between atoms: N_3  and  C_4
REMARK    4  A    between atoms: N_3  and  C_24
REMARK    5  A    between atoms: C_4  and  C_5
REMARK    6  A    between atoms: C_11  and  C_16
REMARK    7  A    between atoms: C_21  and  O_22
REMARK    8  A    between atoms: O_22  and  C_23
REMARK    9  A    between atoms: C_24  and  C_25
REMARK   10  A    between atoms: C_25  and  C_27
REMARK   11  A    between atoms: C_25  and  O_36
REMARK   12  A    between atoms: C_27  and  O_28
REMARK   13  A    between atoms: O_28  and  C_29
REMARK                            x       y       z     vdW  Elec       q    Type
REMARK                         _______ _______ _______ _____ _____    ______ ____
ROOT
ATOM      1  C   UNL     1      -0.750  -2.241   1.729  0.00  0.00    +0.094 A 
ATOM      2  N   UNL     1      -0.673  -3.519   2.180  0.00  0.00    -0.312 N 
ATOM      3  H   UNL     1      -1.046  -4.236   1.643  0.00  0.00    +0.170 HD
ATOM      4  C   UNL     1      -0.091  -3.812   3.357  0.00  0.00    +0.260 A 
ATOM      5  O   UNL     1      -0.029  -4.965   3.748  0.00  0.00    -0.267 OA
ATOM      6  C   UNL     1       0.456  -2.748   4.144  0.00  0.00    +0.080 A 
ATOM      7  C   UNL     1       1.129  -2.807   5.436  0.00  0.00    +0.007 A 
ATOM      8  C   UNL     1       1.568  -1.654   5.995  0.00  0.00    +0.056 A 
ATOM      9  S   UNL     1       1.098  -0.413   4.806  0.00  0.00    -0.076 S 
ATOM     10  C   UNL     1       0.330  -1.460   3.597  0.00  0.00    +0.116 A 
ATOM     11  N   UNL     1      -0.256  -1.250   2.421  0.00  0.00    -0.229 NA
ENDROOT
BRANCH   7  12
ATOM     12  C   UNL     1       1.328  -4.105   6.125  0.00  0.00    +0.025 A 
ATOM     13  C   UNL     1       0.690  -4.359   7.337  0.00  0.00    +0.012 A 
ATOM     14  C   UNL     1       0.878  -5.569   7.974  0.00  0.00    +0.001 A 
ATOM     15  C   UNL     1       1.699  -6.531   7.413  0.00  0.00    +0.004 A 
ATOM     16  C   UNL     1       2.337  -6.289   6.211  0.00  0.00    +0.046 A 
ATOM     17  C   UNL     1       2.153  -5.082   5.558  0.00  0.00    +0.128 A 
BRANCH  17  18
ATOM     18  O   UNL     1       2.775  -4.845   4.373  0.00  0.00    -0.495 OA
ATOM     19  C   UNL     1       3.602  -5.889   3.855  0.00  0.00    +0.277 C 
ENDBRANCH  17  18
ENDBRANCH   7  12
BRANCH   1  20
ATOM     20  C   UNL     1      -1.412  -1.962   0.404  0.00  0.00    -0.003 C 
BRANCH  20  21
ATOM     21  N   UNL     1      -1.368  -0.519   0.129  0.00  0.00    +0.386 N 
ATOM     22  H   UNL     1      -1.783  -0.017   0.900  0.00  0.00    -0.081 HD
BRANCH  21  24
ATOM     23  C   UNL     1       0.085   1.428  -0.176  0.00  0.00    -0.017 C 
ATOM     24  C   UNL     1       0.029  -0.094  -0.036  0.00  0.00    -0.082 C 
ENDBRANCH  21  24
BRANCH  21  25
ATOM     25  C   UNL     1      -2.116  -0.232  -1.102  0.00  0.00    -0.043 C 
BRANCH  25  26
ATOM     26  C   UNL     1      -3.600  -0.533  -0.879  0.00  0.00    +0.135 C 
BRANCH  26  27
ATOM     27  O   UNL     1      -4.099   0.290   0.177  0.00  0.00    -0.390 OA
ATOM     28  H   UNL     1      -4.093   1.235  -0.025  0.00  0.00    +0.210 HD
ENDBRANCH  26  27
BRANCH  26  29
ATOM     29  C   UNL     1      -4.378  -0.242  -2.164  0.00  0.00    +0.258 C 
BRANCH  29  30
ATOM     30  O   UNL     1      -5.742  -0.633  -1.993  0.00  0.00    -0.489 OA
BRANCH  30  31
ATOM     31  C   UNL     1      -6.575  -0.440  -3.050  0.00  0.00    +0.121 A 
ATOM     32  C   UNL     1      -6.089   0.108  -4.227  0.00  0.00    +0.047 A 
ATOM     33  C   UNL     1      -6.937   0.303  -5.300  0.00  0.00    +0.023 A 
ATOM     34  C   UNL     1      -8.272  -0.048  -5.199  0.00  0.00    +0.041 A 
ATOM     35  C   UNL     1      -8.759  -0.594  -4.025  0.00  0.00    +0.023 A 
ATOM     36  C   UNL     1      -7.912  -0.797  -2.953  0.00  0.00    +0.047 A 
ATOM     37 CL   UNL     1      -9.337   0.199  -6.548  0.00  0.00    -0.084 Cl
ENDBRANCH  30  31
ENDBRANCH  29  30
ENDBRANCH  26  29
ENDBRANCH  25  26
ENDBRANCH  21  25
ENDBRANCH  20  21
ENDBRANCH   1  20
TORSDOF 11
