REMARK  Name = ZINC28380514
REMARK  6 active torsions:
REMARK  status: ('A' for Active; 'I' for Inactive)
REMARK    1  A    between atoms: C_3  and  C_6
REMARK    2  A    between atoms: C_6  and  N_7
REMARK    3  A    between atoms: C_16  and  S_17
REMARK    4  A    between atoms: S_17  and  C_18
REMARK    5  A    between atoms: C_18  and  C_19
REMARK    6  A    between atoms: N_21  and  C_22
REMARK                            x       y       z     vdW  Elec       q    Type
REMARK                         _______ _______ _______ _____ _____    ______ ____
ROOT
ATOM      1  N   UNL     1       6.534  -6.452   0.448  0.00  0.00    -0.280 N 
ATOM      2  C   UNL     1       7.786  -6.941   0.522  0.00  0.00    +0.264 A 
ATOM      3  O   UNL     1       7.976  -8.142   0.610  0.00  0.00    -0.267 OA
ATOM      4  C   UNL     1       8.890  -6.032   0.494  0.00  0.00    +0.076 A 
ATOM      5  C   UNL     1      10.320  -6.340   0.560  0.00  0.00    -0.023 A 
ATOM      6  C   UNL     1      11.173  -5.296   0.515  0.00  0.00    -0.004 A 
ATOM      7  S   UNL     1      10.140  -3.862   0.383  0.00  0.00    -0.073 S 
ATOM      8  C   UNL     1       8.560  -4.670   0.390  0.00  0.00    +0.117 A 
ATOM      9  N   UNL     1       7.302  -4.252   0.315  0.00  0.00    -0.216 NA
ATOM     10  C   UNL     1       6.303  -5.111   0.348  0.00  0.00    +0.173 A 
ATOM     11  C   UNL     1      12.670  -5.345   0.565  0.00  0.00    +0.043 C 
ATOM     12  C   UNL     1      13.094  -6.739   1.050  0.00  0.00    +0.005 C 
ATOM     13  C   UNL     1      12.313  -7.793   0.259  0.00  0.00    +0.005 C 
ATOM     14  C   UNL     1      10.842  -7.769   0.674  0.00  0.00    +0.037 C 
ENDROOT
BRANCH   1  15
ATOM     15  C   UNL     1       5.398  -7.377   0.476  0.00  0.00    +0.201 C 
BRANCH  15  18
ATOM     16  C   UNL     1       4.969  -8.866  -2.868  0.00  0.00    +0.041 A 
ATOM     17  C   UNL     1       5.567  -8.849  -1.587  0.00  0.00    +0.046 A 
ATOM     18  C   UNL     1       5.054  -7.792  -0.931  0.00  0.00    +0.125 A 
ATOM     19  O   UNL     1       4.188  -7.167  -1.745  0.00  0.00    -0.466 OA
ATOM     20  C   UNL     1       4.132  -7.814  -2.921  0.00  0.00    +0.195 A 
ENDBRANCH  15  18
ENDBRANCH   1  15
BRANCH  10  21
ATOM     21  S   UNL     1       4.645  -4.519   0.254  0.00  0.00    -0.078 S 
BRANCH  21  22
ATOM     22  C   UNL     1       4.953  -2.739   0.140  0.00  0.00    +0.173 C 
BRANCH  22  23
ATOM     23  C   UNL     1       3.639  -2.007   0.048  0.00  0.00    +0.227 C 
ATOM     24  O   UNL     1       2.597  -2.628   0.057  0.00  0.00    -0.275 OA
ATOM     25  N   UNL     1       3.621  -0.663  -0.046  0.00  0.00    -0.285 N 
ATOM     26  H   UNL     1       4.565  -0.106  -0.142  0.00  0.00    +0.155 HD
BRANCH  25  27
ATOM     27  C   UNL     1       2.401   0.025  -0.021  0.00  0.00    +0.037 A 
ATOM     28  C   UNL     1       1.346  -0.460   0.740  0.00  0.00    +0.027 A 
ATOM     29  C   UNL     1       0.142   0.217   0.764  0.00  0.00    +0.051 A 
ATOM     30  C   UNL     1      -0.016   1.384   0.030  0.00  0.00    +0.162 A 
ATOM     31  C   UNL     1       1.040   1.873  -0.730  0.00  0.00    +0.164 A 
ATOM     32  C   UNL     1       2.247   1.192  -0.756  0.00  0.00    +0.072 A 
ATOM     33  O   UNL     1       0.906   3.021  -1.451  0.00  0.00    -0.485 OA
ATOM     34  C   UNL     1      -0.429   3.473  -1.699  0.00  0.00    +0.270 C 
ATOM     35  C   UNL     1      -1.216   3.395  -0.384  0.00  0.00    +0.270 C 
ATOM     36  O   UNL     1      -1.213   2.033   0.059  0.00  0.00    -0.485 OA
ENDBRANCH  25  27
ENDBRANCH  22  23
ENDBRANCH  21  22
ENDBRANCH  10  21
TORSDOF 6
