REMARK  Name = ZINC40172339
REMARK  8 active torsions:
REMARK  status: ('A' for Active; 'I' for Inactive)
REMARK    1  A    between atoms: C_1  and  C_2
REMARK    2  A    between atoms: C_2  and  C_3
REMARK    3  A    between atoms: C_3  and  C_5
REMARK    4  A    between atoms: C_3  and  N_15
REMARK    5  A    between atoms: N_7  and  C_8
REMARK    6  A    between atoms: C_19  and  S_20
REMARK    7  A    between atoms: S_20  and  C_21
REMARK    8  A    between atoms: C_21  and  C_22
REMARK                            x       y       z     vdW  Elec       q    Type
REMARK                         _______ _______ _______ _____ _____    ______ ____
ROOT
ATOM      1  C   UNL     1       0.718  -0.496  -1.272  0.00  0.00    +0.178 C 
ENDROOT
BRANCH   1   2
ATOM      2  N   UNL     1       2.125  -0.090  -1.227  0.00  0.00    -0.279 N 
ATOM      3  C   UNL     1       3.031  -0.438  -0.265  0.00  0.00    +0.216 A 
ATOM      4  N   UNL     1       4.178   0.116  -0.570  0.00  0.00    -0.113 NA
ATOM      5  N   UNL     1       4.008   0.841  -1.757  0.00  0.00    -0.121 NA
ATOM      6  C   UNL     1       2.763   0.700  -2.142  0.00  0.00    +0.194 A 
ATOM      7  N   UNL     1       2.779  -1.240   0.841  0.00  0.00    -0.328 N 
ATOM      8  H   UNL     1       1.893  -1.607   0.982  0.00  0.00    +0.145 HD
ATOM      9  H   UNL     1       3.490  -1.432   1.472  0.00  0.00    +0.145 HD
BRANCH   6  10
ATOM     10  S   UNL     1       2.038   1.409  -3.583  0.00  0.00    -0.086 S 
BRANCH  10  11
ATOM     11  C   UNL     1       3.399   2.329  -4.352  0.00  0.00    +0.074 C 
ATOM     12  C   UNL     1       2.900   3.003  -5.632  0.00  0.00    +0.016 C 
ENDBRANCH  10  11
ENDBRANCH   6  10
ENDBRANCH   1   2
BRANCH   1  13
ATOM     13  C   UNL     1       0.632  -2.000  -1.331  0.00  0.00    +0.240 C 
ATOM     14  O   UNL     1       1.645  -2.666  -1.335  0.00  0.00    -0.273 OA
ATOM     15  N   UNL     1      -0.572  -2.604  -1.380  0.00  0.00    -0.283 N 
ATOM     16  H   UNL     1      -1.383  -2.078  -1.296  0.00  0.00    +0.155 HD
BRANCH  15  17
ATOM     17  C   UNL     1      -0.652  -3.991  -1.551  0.00  0.00    +0.052 A 
ATOM     18  C   UNL     1       0.385  -4.678  -2.168  0.00  0.00    +0.025 A 
ATOM     19  C   UNL     1       0.303  -6.046  -2.335  0.00  0.00    +0.002 A 
ATOM     20  C   UNL     1      -0.811  -6.734  -1.889  0.00  0.00    +0.002 A 
ATOM     21  C   UNL     1      -1.846  -6.054  -1.274  0.00  0.00    +0.022 A 
ATOM     22  C   UNL     1      -1.768  -4.685  -1.099  0.00  0.00    +0.062 A 
ATOM     23 CL   UNL     1      -3.065  -3.833  -0.320  0.00  0.00    -0.082 Cl
ENDBRANCH  15  17
ENDBRANCH   1  13
BRANCH   1  25
ATOM     24  C   UNL     1      -0.020   1.537  -0.022  0.00  0.00    +0.006 C 
ATOM     25  C   UNL     1       0.001   0.007  -0.018  0.00  0.00    +0.031 C 
ENDBRANCH   1  25
TORSDOF 6
