REMARK  Name = ZINC36170546
REMARK  6 active torsions:
REMARK  status: ('A' for Active; 'I' for Inactive)
REMARK    1  A    between atoms: C_1  and  C_2
REMARK    2  A    between atoms: C_2  and  C_3
REMARK    3  A    between atoms: C_2  and  N_4
REMARK    4  A    between atoms: N_7  and  S_10
REMARK    5  A    between atoms: S_10  and  C_13
REMARK    6  A    between atoms: C_16  and  N_20
REMARK                            x       y       z     vdW  Elec       q    Type
REMARK                         _______ _______ _______ _____ _____    ______ ____
ROOT
ATOM      1  S   UNL     1      -4.542  -2.867  -1.909  0.00  0.00    +0.063 S 
ATOM      2  O   UNL     1      -4.730  -2.143  -3.117  0.00  0.00    -0.153 OA
ATOM      3  O   UNL     1      -3.973  -4.169  -1.881  0.00  0.00    -0.153 OA
ENDROOT
BRANCH   1   4
ATOM      4  C   UNL     1      -6.124  -2.993  -1.145  0.00  0.00    +0.133 A 
ATOM      5  C   UNL     1      -6.378  -4.014  -0.246  0.00  0.00    +0.047 A 
ATOM      6  C   UNL     1      -7.619  -4.115   0.354  0.00  0.00    +0.040 A 
ATOM      7  C   UNL     1      -8.611  -3.190   0.056  0.00  0.00    +0.027 A 
ATOM      8  C   UNL     1      -8.353  -2.166  -0.847  0.00  0.00    +0.040 A 
ATOM      9  C   UNL     1      -7.109  -2.067  -1.440  0.00  0.00    +0.047 A 
ATOM     10 BR   UNL     1      -6.754  -0.668  -2.663  0.00  0.00    -0.048 Br
ATOM     11 BR   UNL     1      -5.027  -5.272   0.160  0.00  0.00    -0.048 Br
BRANCH   7  12
ATOM     12  N   UNL     1      -9.866  -3.290   0.660  0.00  0.00    -0.358 N 
ATOM     13  H   UNL     1     -10.045  -4.006   1.290  0.00  0.00    +0.142 HD
ATOM     14  H   UNL     1     -10.558  -2.644   0.451  0.00  0.00    +0.142 HD
ENDBRANCH   7  12
ENDBRANCH   1   4
BRANCH   1  18
ATOM     15  N   UNL     1      -1.376  -0.512   0.012  0.00  0.00    +0.383 N 
ATOM     16  C   UNL     1      -1.354  -1.981   0.015  0.00  0.00    -0.061 C 
ATOM     17  C   UNL     1      -2.786  -2.512   0.142  0.00  0.00    +0.091 C 
ATOM     18  N   UNL     1      -3.600  -1.919  -0.931  0.00  0.00    -0.180 NA
ATOM     19  C   UNL     1      -3.553  -0.459  -1.110  0.00  0.00    +0.091 C 
ATOM     20  C   UNL     1      -2.085  -0.025  -1.178  0.00  0.00    -0.061 C 
ATOM     21  H   UNL     1      -1.848  -0.184   0.842  0.00  0.00    -0.081 HD
BRANCH  15  23
ATOM     22  C   UNL     1      -0.019   1.526   0.010  0.00  0.00    -0.014 C 
ATOM     23  C   UNL     1       0.002  -0.004   0.002  0.00  0.00    -0.075 C 
ATOM     24  C   UNL     1       0.742  -0.511   1.242  0.00  0.00    -0.014 C 
ENDBRANCH  15  23
ENDBRANCH   1  18
TORSDOF 4
