REMARK  Name = ZINC10380398
REMARK  10 active torsions:
REMARK  status: ('A' for Active; 'I' for Inactive)
REMARK    1  A    between atoms: C_1  and  C_2
REMARK    2  A    between atoms: C_2  and  C_3
REMARK    3  A    between atoms: C_2  and  C_4
REMARK    4  A    between atoms: C_4  and  N_5
REMARK    5  A    between atoms: C_6  and  N_30
REMARK    6  A    between atoms: C_7  and  C_14
REMARK    7  A    between atoms: C_14  and  C_16
REMARK    8  A    between atoms: C_16  and  S_17
REMARK    9  A    between atoms: S_17  and  C_18
REMARK   10  A    between atoms: N_22  and  C_23
REMARK                            x       y       z     vdW  Elec       q    Type
REMARK                         _______ _______ _______ _____ _____    ______ ____
ROOT
ATOM      1  N   UNL     1       2.837  10.252  -6.314  0.00  0.00    -0.281 N 
ATOM      2  C   UNL     1       2.170   9.225  -5.710  0.00  0.00    +0.116 A 
ATOM      3  C   UNL     1       2.747   8.606  -4.587  0.00  0.00    +0.120 A 
ATOM      4  C   UNL     1       4.053   9.096  -4.129  0.00  0.00    +0.266 A 
ATOM      5  O   UNL     1       4.602   8.594  -3.166  0.00  0.00    -0.267 OA
ATOM      6  N   UNL     1       4.633  10.113  -4.799  0.00  0.00    -0.274 N 
ATOM      7  H   UNL     1       5.523  10.458  -4.500  0.00  0.00    +0.173 HD
ATOM      8  C   UNL     1       4.031  10.669  -5.863  0.00  0.00    +0.331 A 
ATOM      9  O   UNL     1       4.587  11.584  -6.439  0.00  0.00    -0.246 OA
ENDROOT
BRANCH   2  10
ATOM     10  N   UNL     1       0.963   8.811  -6.184  0.00  0.00    -0.344 N 
ATOM     11  H   UNL     1       0.456   8.142  -5.699  0.00  0.00    +0.144 HD
ATOM     12  H   UNL     1       0.611   9.186  -7.006  0.00  0.00    +0.144 HD
ENDBRANCH   2  10
BRANCH   3  13
ATOM     13  C   UNL     1       2.094   7.545  -3.925  0.00  0.00    +0.182 C 
ATOM     14  O   UNL     1       0.970   7.223  -4.254  0.00  0.00    -0.291 OA
BRANCH  13  15
ATOM     15  C   UNL     1       2.791   6.811  -2.809  0.00  0.00    +0.157 C 
BRANCH  15  16
ATOM     16  S   UNL     1       1.703   5.515  -2.167  0.00  0.00    -0.079 S 
BRANCH  16  17
ATOM     17  C   UNL     1       2.739   4.838  -0.913  0.00  0.00    +0.174 A 
ATOM     18  N   UNL     1       3.950   5.247  -0.614  0.00  0.00    -0.230 NA
ATOM     19  C   UNL     1       4.439   4.496   0.388  0.00  0.00    +0.131 A 
ATOM     20  C   UNL     1       3.508   3.592   0.734  0.00  0.00    +0.113 A 
ATOM     21  N   UNL     1       2.419   3.802  -0.085  0.00  0.00    -0.295 N 
BRANCH  21  22
ATOM     22  C   UNL     1       1.215   3.085  -0.074  0.00  0.00    +0.050 A 
ATOM     23  C   UNL     1       1.232   1.696  -0.105  0.00  0.00    +0.026 A 
ATOM     24  C   UNL     1       0.044   0.992  -0.095  0.00  0.00    +0.003 A 
ATOM     25  C   UNL     1      -1.162   1.667  -0.059  0.00  0.00    +0.020 A 
ATOM     26  C   UNL     1      -1.183   3.050  -0.022  0.00  0.00    +0.043 A 
ATOM     27  C   UNL     1       0.003   3.760  -0.032  0.00  0.00    +0.046 A 
ATOM     28 CL   UNL     1      -2.699   3.893   0.030  0.00  0.00    -0.083 Cl
ENDBRANCH  21  22
ENDBRANCH  16  17
ENDBRANCH  15  16
ENDBRANCH  13  15
ENDBRANCH   3  13
BRANCH   1  29
ATOM     29  C   UNL     1       2.242  10.908  -7.481  0.00  0.00    +0.131 C 
BRANCH  29  31
ATOM     30  C   UNL     1       1.974  10.794  -9.962  0.00  0.00    +0.009 C 
ATOM     31  C   UNL     1       2.692  10.190  -8.754  0.00  0.00    +0.003 C 
ATOM     32  C   UNL     1       4.204  10.355  -8.925  0.00  0.00    +0.009 C 
ENDBRANCH  29  31
ENDBRANCH   1  29
TORSDOF 8
