REMARK  Name = ZINC21320418
REMARK  7 active torsions:
REMARK  status: ('A' for Active; 'I' for Inactive)
REMARK    1  A    between atoms: C_1  and  C_2
REMARK    2  A    between atoms: C_6  and  C_8
REMARK    3  A    between atoms: C_8  and  S_9
REMARK    4  A    between atoms: S_9  and  C_10
REMARK    5  A    between atoms: N_14  and  N_15
REMARK    6  A    between atoms: N_16  and  N_17
REMARK    7  A    between atoms: C_18  and  C_19
REMARK                            x       y       z     vdW  Elec       q    Type
REMARK                         _______ _______ _______ _____ _____    ______ ____
ROOT
ATOM      1  C   UNL     1      -0.117   7.713  -1.501  0.00  0.00    +0.210 A 
ATOM      2  N   UNL     1      -0.115   8.374  -0.368  0.00  0.00    -0.119 NA
ATOM      3  N   UNL     1      -0.136   9.743  -0.665  0.00  0.00    -0.109 NA
ATOM      4  C   UNL     1      -0.150   9.874  -1.970  0.00  0.00    +0.254 A 
ATOM      5  N   UNL     1      -0.134   8.622  -2.520  0.00  0.00    -0.211 N 
ATOM      6  N   UNL     1      -0.172  11.072  -2.669  0.00  0.00    -0.204 N 
ATOM      7  H   UNL     1      -0.183  11.067  -3.768  0.00  0.00    +0.177 HD
ENDROOT
BRANCH   5   8
ATOM      8  N   UNL     1      -0.136   8.332  -3.855  0.00  0.00    -0.294 N 
ATOM      9  H   UNL     1      -0.150   9.146  -4.595  0.00  0.00    +0.163 HD
ATOM     10  H   UNL     1      -0.124   7.285  -4.190  0.00  0.00    +0.163 HD
ENDBRANCH   5   8
BRANCH   6  11
ATOM     11  N   UNL     1      -0.181  12.288  -1.974  0.00  0.00    -0.187 NA
ATOM     12  C   UNL     1      -0.202  13.410  -2.628  0.00  0.00    +0.142 C 
BRANCH  12  13
ATOM     13  C   UNL     1      -0.211  14.689  -1.897  0.00  0.00    +0.043 A 
ATOM     14  C   UNL     1      -0.234  15.898  -2.597  0.00  0.00    +0.028 A 
ATOM     15  C   UNL     1      -0.243  17.093  -1.907  0.00  0.00    +0.020 A 
ATOM     16  C   UNL     1      -0.230  17.099  -0.521  0.00  0.00    +0.034 A 
ATOM     17  C   UNL     1      -0.207  15.908   0.183  0.00  0.00    +0.066 A 
ATOM     18  C   UNL     1      -0.203  14.700  -0.496  0.00  0.00    +0.201 A 
ATOM     19  O   UNL     1      -0.187  13.530   0.195  0.00  0.00    -0.286 OA
ATOM     20 BR   UNL     1      -0.189  15.930   2.073  0.00  0.00    -0.046 Br
ATOM     21 BR   UNL     1      -0.273  18.728  -2.855  0.00  0.00    -0.050 Br
ENDBRANCH  12  13
ENDBRANCH   6  11
BRANCH   1  22
ATOM     22  S   UNL     1      -0.095   5.960  -1.677  0.00  0.00    -0.080 S 
BRANCH  22  23
ATOM     23  C   UNL     1      -0.070   5.347   0.030  0.00  0.00    +0.112 C 
BRANCH  23  29
ATOM     24  C   UNL     1      -2.514   0.980   0.019  0.00  0.00    +0.044 C 
ATOM     25  C   UNL     1      -1.219   1.751   0.017  0.00  0.00    -0.050 A 
ATOM     26  C   UNL     1      -0.013   1.076   0.008  0.00  0.00    +0.003 A 
ATOM     27  C   UNL     1       1.175   1.783   0.000  0.00  0.00    +0.001 A 
ATOM     28  C   UNL     1       1.156   3.166   0.008  0.00  0.00    +0.004 A 
ATOM     29  C   UNL     1      -0.050   3.840   0.022  0.00  0.00    -0.037 A 
ATOM     30  C   UNL     1      -1.238   3.133   0.030  0.00  0.00    +0.007 A 
ENDBRANCH  23  29
ENDBRANCH  22  23
ENDBRANCH   1  22
TORSDOF 6
