REMARK  Name = ZINC66904795
REMARK  8 active torsions:
REMARK  status: ('A' for Active; 'I' for Inactive)
REMARK    1  A    between atoms: N_9  and  C_11
REMARK    2  A    between atoms: C_11  and  C_12
REMARK    3  A    between atoms: C_12  and  C_14
REMARK    4  A    between atoms: C_12  and  O_30
REMARK    5  A    between atoms: C_14  and  N_15
REMARK    6  A    between atoms: C_18  and  N_21
REMARK    7  A    between atoms: C_22  and  C_24
REMARK    8  A    between atoms: C_24  and  C_25
REMARK                            x       y       z     vdW  Elec       q    Type
REMARK                         _______ _______ _______ _____ _____    ______ ____
ROOT
ATOM      1  N   UNL     1       8.206  -2.297   1.967  0.00  0.00    +0.381 N 
ATOM      2  C   UNL     1       7.778  -2.681   3.318  0.00  0.00    -0.077 C 
ATOM      3  C   UNL     1       8.724  -2.065   4.351  0.00  0.00    +0.003 C 
ATOM      4  C   UNL     1      10.146  -2.575   4.101  0.00  0.00    +0.069 C 
ATOM      5  C   UNL     1      10.554  -2.235   2.664  0.00  0.00    +0.003 C 
ATOM      6  C   UNL     1       9.540  -2.845   1.694  0.00  0.00    -0.077 C 
ATOM      7  H   UNL     1       8.236  -1.291   1.899  0.00  0.00    -0.082 HD
ENDROOT
BRANCH   4   8
ATOM      8  N   UNL     1      11.070  -1.931   5.038  0.00  0.00    -0.313 N 
ATOM      9  C   UNL     1      12.226  -2.539   5.369  0.00  0.00    +0.213 C 
ATOM     10  O   UNL     1      12.502  -3.619   4.891  0.00  0.00    -0.276 OA
ATOM     11  H   UNL     1      10.849  -1.068   5.420  0.00  0.00    +0.149 HD
BRANCH   9  12
ATOM     12  C   UNL     1      13.176  -1.876   6.333  0.00  0.00    +0.099 C 
BRANCH  12  13
ATOM     13  C   UNL     1      14.402  -2.769   6.536  0.00  0.00    -0.002 C 
ATOM     14  C   UNL     1      14.001  -4.056   7.285  0.00  0.00    +0.004 C 
ATOM     15  C   UNL     1      15.203  -4.344   8.218  0.00  0.00    +0.000 C 
ATOM     16  C   UNL     1      15.628  -2.926   8.675  0.00  0.00    +0.000 C 
ATOM     17  C   UNL     1      15.437  -2.051   7.419  0.00  0.00    +0.004 C 
ENDBRANCH  12  13
ENDBRANCH   9  12
ENDBRANCH   4   8
BRANCH   1  18
ATOM     18  C   UNL     1       7.251  -2.826   0.984  0.00  0.00    -0.046 C 
BRANCH  18  19
ATOM     19  C   UNL     1       5.888  -2.162   1.190  0.00  0.00    +0.112 C 
BRANCH  19  20
ATOM     20  O   UNL     1       5.990  -0.766   0.905  0.00  0.00    -0.392 OA
ATOM     21  H   UNL     1       6.270  -0.568   0.000  0.00  0.00    +0.210 HD
ENDBRANCH  19  20
BRANCH  19  22
ATOM     22  C   UNL     1       4.863  -2.801   0.250  0.00  0.00    +0.114 C 
BRANCH  22  31
ATOM     23  C   UNL     1      -1.295  -0.964   0.120  0.00  0.00    +0.000 A 
ATOM     24  C   UNL     1      -0.884  -1.237  -1.171  0.00  0.00    +0.000 A 
ATOM     25  C   UNL     1       0.391  -1.713  -1.401  0.00  0.00    +0.005 A 
ATOM     26  C   UNL     1       1.264  -1.918  -0.343  0.00  0.00    -0.030 A 
ATOM     27  C   UNL     1       0.855  -1.643   0.944  0.00  0.00    -0.042 A 
ATOM     28  C   UNL     1      -0.427  -1.167   1.174  0.00  0.00    +0.004 A 
ATOM     29  C   UNL     1       1.771  -1.839   2.125  0.00  0.00    +0.051 C 
ATOM     30  C   UNL     1       2.946  -2.735   1.731  0.00  0.00    +0.089 C 
ATOM     31  N   UNL     1       3.541  -2.208   0.492  0.00  0.00    -0.295 NA
ATOM     32  C   UNL     1       2.643  -2.444  -0.643  0.00  0.00    +0.120 C 
ENDBRANCH  22  31
ENDBRANCH  19  22
ENDBRANCH  18  19
ENDBRANCH   1  18
TORSDOF 8
