REMARK  Name = ZINC24884070
REMARK  3 active torsions:
REMARK  status: ('A' for Active; 'I' for Inactive)
REMARK    1  A    between atoms: C_4  and  N_23
REMARK    2  A    between atoms: C_5  and  C_7
REMARK    3  A    between atoms: C_8  and  C_9
REMARK                            x       y       z     vdW  Elec       q    Type
REMARK                         _______ _______ _______ _____ _____    ______ ____
ROOT
ATOM      1  C   UNL     1       4.158   4.936  -0.314  0.00  0.00    +0.240 C 
ATOM      2  O   UNL     1       3.905   6.127  -0.315  0.00  0.00    -0.271 OA
ATOM      3  N   UNL     1       5.435   4.519  -0.419  0.00  0.00    -0.295 N 
ATOM      4  C   UNL     1       5.754   3.087  -0.537  0.00  0.00    +0.108 C 
ATOM      5  C   UNL     1       6.771   2.706   0.536  0.00  0.00    +0.019 C 
ATOM      6  C   UNL     1       7.985   3.637   0.454  0.00  0.00    +0.007 C 
ATOM      7  C   UNL     1       7.530   5.077   0.689  0.00  0.00    +0.010 C 
ATOM      8  C   UNL     1       6.545   5.478  -0.413  0.00  0.00    +0.079 C 
ATOM      9  C   UNL     1       6.032   6.890  -0.136  0.00  0.00    +0.023 C 
ATOM     10  C   UNL     1       7.216   7.862  -0.144  0.00  0.00    +0.002 C 
ATOM     11  C   UNL     1       8.228   7.456   0.928  0.00  0.00    +0.000 C 
ATOM     12  C   UNL     1       8.723   6.031   0.664  0.00  0.00    +0.005 C 
ENDROOT
BRANCH   1  14
ATOM     13  C   UNL     1       1.791   4.369  -0.209  0.00  0.00    +0.015 C 
ATOM     14  C   UNL     1       3.075   3.958  -0.197  0.00  0.00    +0.068 C 
BRANCH  13  19
ATOM     15  C   UNL     1      -0.071   1.113  -0.202  0.00  0.00    +0.001 A 
ATOM     16  C   UNL     1      -1.349   1.535   0.122  0.00  0.00    +0.002 A 
ATOM     17  C   UNL     1      -1.605   2.877   0.347  0.00  0.00    +0.033 A 
ATOM     18  C   UNL     1      -0.590   3.804   0.240  0.00  0.00    +0.133 A 
ATOM     19  C   UNL     1       0.702   3.386  -0.092  0.00  0.00    +0.005 A 
ATOM     20  C   UNL     1       0.954   2.028  -0.313  0.00  0.00    +0.010 A 
BRANCH  18  21
ATOM     21  N   UNL     1      -0.868   5.239   0.476  0.00  0.00    +0.057 N 
ATOM     22  O   UNL     1      -2.017   5.624   0.601  0.00  0.00    -0.126 OA
ATOM     23  O   UNL     1       0.052   6.034   0.546  0.00  0.00    -0.126 OA
ENDBRANCH  18  21
ENDBRANCH  13  19
ENDBRANCH   1  14
TORSDOF 3
