REMARK  Name = ZINC04114475
REMARK  7 active torsions:
REMARK  status: ('A' for Active; 'I' for Inactive)
REMARK    1  A    between atoms: C_1  and  C_2
REMARK    2  A    between atoms: C_3  and  C_4
REMARK    3  A    between atoms: C_4  and  O_16
REMARK    4  A    between atoms: C_7  and  C_10
REMARK    5  A    between atoms: O_16  and  S_17
REMARK    6  A    between atoms: S_17  and  C_20
REMARK    7  A    between atoms: C_23  and  C_26
REMARK                            x       y       z     vdW  Elec       q    Type
REMARK                         _______ _______ _______ _____ _____    ______ ____
ROOT
ATOM      1  C   UNL     1       2.125   1.596  -1.158  0.00  0.00    +0.158 C 
ATOM      2  C   UNL     1       1.518   2.105   0.151  0.00  0.00    +0.051 C 
ATOM      3  C   UNL     1       0.075   1.611   0.270  0.00  0.00    +0.012 C 
ATOM      4  C   UNL     1       0.057   0.082   0.261  0.00  0.00    +0.019 C 
ATOM      5  C   UNL     1       0.664  -0.428  -1.048  0.00  0.00    +0.012 C 
ATOM      6  C   UNL     1       2.107   0.066  -1.167  0.00  0.00    +0.051 C 
ENDROOT
BRANCH   4   7
ATOM      7  C   UNL     1      -1.365  -0.405   0.378  0.00  0.00    -0.044 A 
ATOM      8  C   UNL     1      -2.298  -0.049  -0.578  0.00  0.00    +0.004 A 
ATOM      9  C   UNL     1      -3.601  -0.499  -0.473  0.00  0.00    +0.000 A 
ATOM     10  C   UNL     1      -3.973  -1.296   0.594  0.00  0.00    +0.000 A 
ATOM     11  C   UNL     1      -3.041  -1.647   1.552  0.00  0.00    +0.000 A 
ATOM     12  C   UNL     1      -1.737  -1.201   1.445  0.00  0.00    +0.004 A 
ENDBRANCH   4   7
BRANCH   1  15
ATOM     13  C   UNL     1      -0.077   3.014  -4.336  0.00  0.00    +0.106 C 
ATOM     14  C   UNL     1       0.710   2.507  -3.200  0.00  0.00    -0.103 C 
ATOM     15  C   UNL     1       1.338   2.103  -2.294  0.00  0.00    -0.065 C 
ENDBRANCH   1  15
BRANCH   1  16
ATOM     16  O   UNL     1       3.473   2.057  -1.269  0.00  0.00    -0.215 OA
BRANCH  16  17
ATOM     17  S   UNL     1       3.598   3.499  -1.738  0.00  0.00    +0.113 S 
ATOM     18  O   UNL     1       3.452   3.480  -3.152  0.00  0.00    -0.142 OA
ATOM     19  O   UNL     1       2.755   4.274  -0.896  0.00  0.00    -0.142 OA
BRANCH  17  20
ATOM     20  C   UNL     1       5.250   4.014  -1.409  0.00  0.00    +0.117 A 
ATOM     21  C   UNL     1       5.585   4.507  -0.162  0.00  0.00    +0.030 A 
ATOM     22  C   UNL     1       6.883   4.906   0.098  0.00  0.00    +0.005 A 
ATOM     23  C   UNL     1       7.843   4.822  -0.892  0.00  0.00    -0.050 A 
ATOM     24  C   UNL     1       7.507   4.334  -2.141  0.00  0.00    +0.005 A 
ATOM     25  C   UNL     1       6.211   3.930  -2.400  0.00  0.00    +0.030 A 
ATOM     26  C   UNL     1       9.257   5.262  -0.610  0.00  0.00    +0.044 C 
ENDBRANCH  17  20
ENDBRANCH  16  17
ENDBRANCH   1  16
TORSDOF 5
