REMARK  Name = ZINC09315544
REMARK  11 active torsions:
REMARK  status: ('A' for Active; 'I' for Inactive)
REMARK    1  A    between atoms: C_1  and  C_2
REMARK    2  A    between atoms: C_2  and  C_3
REMARK    3  A    between atoms: C_3  and  C_4
REMARK    4  A    between atoms: C_4  and  N_5
REMARK    5  A    between atoms: C_6  and  N_35
REMARK    6  A    between atoms: C_7  and  C_14
REMARK    7  A    between atoms: N_10  and  C_13
REMARK    8  A    between atoms: C_14  and  C_16
REMARK    9  A    between atoms: C_14  and  N_69
REMARK   10  A    between atoms: C_21  and  C_22
REMARK   11  A    between atoms: N_25  and  C_28
REMARK                            x       y       z     vdW  Elec       q    Type
REMARK                         _______ _______ _______ _____ _____    ______ ____
ROOT
ATOM      1  C   UNL     1       0.021   2.400   4.668  0.00  0.00    +0.002 C 
ENDROOT
BRANCH   1   4
ATOM      2  N   UNL     1      -2.685   2.721   2.084  0.00  0.00    -0.282 N 
ATOM      3  C   UNL     1      -2.026   2.768   3.289  0.00  0.00    +0.107 A 
ATOM      4  C   UNL     1      -0.724   2.358   3.359  0.00  0.00    +0.046 A 
ATOM      5  C   UNL     1      -0.091   1.897   2.194  0.00  0.00    +0.260 A 
ATOM      6  O   UNL     1       1.070   1.526   2.232  0.00  0.00    -0.267 OA
ATOM      7  N   UNL     1      -0.774   1.868   1.032  0.00  0.00    -0.264 N 
ATOM      8  C   UNL     1      -2.054   2.280   0.980  0.00  0.00    +0.333 A 
ATOM      9  O   UNL     1      -2.650   2.250  -0.079  0.00  0.00    -0.246 OA
ATOM     10  C   UNL     1      -0.116   1.388  -0.185  0.00  0.00    +0.157 C 
BRANCH   3  11
ATOM     11  N   UNL     1      -2.670   3.223   4.412  0.00  0.00    -0.344 N 
ATOM     12  H   UNL     1      -2.176   3.345   5.238  0.00  0.00    +0.144 HD
ATOM     13  H   UNL     1      -3.619   3.422   4.380  0.00  0.00    +0.144 HD
ENDBRANCH   3  11
BRANCH   2  14
ATOM     14  C   UNL     1      -4.080   3.160   1.999  0.00  0.00    +0.128 C 
BRANCH  14  15
ATOM     15  C   UNL     1      -4.126   4.655   1.677  0.00  0.00    +0.021 C 
BRANCH  15  17
ATOM     16  C   UNL     1      -5.630   6.607   1.266  0.00  0.00    +0.004 C 
ATOM     17  C   UNL     1      -5.584   5.112   1.588  0.00  0.00    -0.002 C 
ENDBRANCH  15  17
ENDBRANCH  14  15
ENDBRANCH   2  14
ENDBRANCH   1   4
BRANCH   1  18
ATOM     18  C   UNL     1       0.386   0.998   5.084  0.00  0.00    -0.053 A 
ATOM     19  C   UNL     1       1.627   0.482   4.761  0.00  0.00    +0.002 A 
ATOM     20  C   UNL     1       1.962  -0.804   5.142  0.00  0.00    +0.000 A 
ATOM     21  C   UNL     1       1.055  -1.574   5.847  0.00  0.00    +0.000 A 
ATOM     22  C   UNL     1      -0.186  -1.058   6.169  0.00  0.00    +0.003 A 
ATOM     23  C   UNL     1      -0.519   0.230   5.792  0.00  0.00    -0.049 A 
ATOM     24  C   UNL     1      -1.870   0.794   6.149  0.00  0.00    +0.044 C 
ENDBRANCH   1  18
BRANCH   1  30
ATOM     25  C   UNL     1       1.954   3.333   5.790  0.00  0.00    -0.058 C 
ATOM     26  C   UNL     1       3.259   4.101   5.568  0.00  0.00    +0.086 C 
ATOM     27  N   UNL     1       2.957   5.419   4.993  0.00  0.00    -0.331 N 
ATOM     28  C   UNL     1       2.248   5.283   3.713  0.00  0.00    +0.086 C 
ATOM     29  C   UNL     1       0.943   4.516   3.936  0.00  0.00    -0.058 C 
ATOM     30  N   UNL     1       1.262   3.184   4.492  0.00  0.00    +0.389 N 
ATOM     31  H   UNL     1       1.880   2.689   3.839  0.00  0.00    -0.080 HD
BRANCH  27  32
ATOM     32  C   UNL     1       4.122   6.179   4.843  0.00  0.00    +0.065 A 
ATOM     33  C   UNL     1       4.045   7.487   4.383  0.00  0.00    +0.026 A 
ATOM     34  C   UNL     1       5.197   8.236   4.239  0.00  0.00    +0.002 A 
ATOM     35  C   UNL     1       6.427   7.682   4.543  0.00  0.00    +0.003 A 
ATOM     36  C   UNL     1       6.509   6.378   4.997  0.00  0.00    +0.040 A 
ATOM     37  C   UNL     1       5.360   5.624   5.147  0.00  0.00    +0.144 A 
ATOM     38  F   UNL     1       5.440   4.350   5.589  0.00  0.00    -0.204 F 
ENDBRANCH  27  32
ENDBRANCH   1  30
TORSDOF 8
