REMARK  Name = ZINC65740220
REMARK  12 active torsions:
REMARK  status: ('A' for Active; 'I' for Inactive)
REMARK    1  A    between atoms: C_1  and  O_2
REMARK    2  A    between atoms: O_2  and  C_3
REMARK    3  A    between atoms: C_6  and  C_9
REMARK    4  A    between atoms: C_9  and  C_10
REMARK    5  A    between atoms: C_10  and  N_11
REMARK    6  A    between atoms: N_11  and  C_12
REMARK    7  A    between atoms: C_12  and  C_13
REMARK    8  A    between atoms: C_13  and  C_15
REMARK    9  A    between atoms: C_13  and  C_23
REMARK   10  A    between atoms: C_18  and  O_21
REMARK   11  A    between atoms: O_21  and  C_22
REMARK   12  A    between atoms: C_23  and  O_29
REMARK                            x       y       z     vdW  Elec       q    Type
REMARK                         _______ _______ _______ _____ _____    ______ ____
ROOT
ATOM      1  C   UNL     1       6.849  -4.221  -6.053  0.00  0.00    +0.034 C 
ENDROOT
BRANCH   1   2
ATOM      2  C   UNL     1       8.223  -4.760  -5.745  0.00  0.00    -0.043 A 
ATOM      3  C   UNL     1       9.235  -3.896  -5.370  0.00  0.00    +0.007 A 
ATOM      4  C   UNL     1      10.495  -4.388  -5.087  0.00  0.00    +0.046 A 
ATOM      5  C   UNL     1      10.743  -5.749  -5.179  0.00  0.00    +0.120 A 
ATOM      6  C   UNL     1       9.726  -6.614  -5.555  0.00  0.00    +0.046 A 
ATOM      7  C   UNL     1       8.466  -6.118  -5.832  0.00  0.00    +0.007 A 
BRANCH   5   8
ATOM      8  O   UNL     1      11.982  -6.235  -4.901  0.00  0.00    -0.495 OA
ATOM      9  C   UNL     1      12.165  -7.648  -5.017  0.00  0.00    +0.277 C 
ENDBRANCH   5   8
ENDBRANCH   1   2
BRANCH   1  10
ATOM     10  C   UNL     1       6.939  -3.235  -7.220  0.00  0.00    +0.071 C 
ATOM     11  C   UNL     1       5.531  -2.791  -7.621  0.00  0.00    +0.035 C 
ATOM     12  C   UNL     1       5.620  -1.805  -8.788  0.00  0.00    +0.003 C 
ATOM     13  C   UNL     1       6.300  -2.484  -9.978  0.00  0.00    +0.000 C 
ATOM     14  C   UNL     1       7.708  -2.928  -9.577  0.00  0.00    +0.003 C 
ATOM     15  C   UNL     1       7.619  -3.914  -8.410  0.00  0.00    +0.035 C 
BRANCH  10  16
ATOM     16  O   UNL     1       7.703  -2.095  -6.822  0.00  0.00    -0.388 OA
ATOM     17  H   UNL     1       7.801  -1.426  -7.514  0.00  0.00    +0.210 HD
ENDBRANCH  10  16
ENDBRANCH   1  10
BRANCH   1  18
ATOM     18  C   UNL     1       6.294  -3.504  -4.821  0.00  0.00    -0.072 C 
BRANCH  18  19
ATOM     19  N   UNL     1       6.091  -4.477  -3.739  0.00  0.00    +0.380 N 
ATOM     20  H   UNL     1       6.982  -4.860  -3.459  0.00  0.00    -0.086 HD
ATOM     21  H   UNL     1       5.492  -5.221  -4.063  0.00  0.00    -0.086 HD
BRANCH  19  22
ATOM     22  C   UNL     1       5.464  -3.808  -2.591  0.00  0.00    -0.078 C 
BRANCH  22  23
ATOM     23  C   UNL     1       5.253  -4.821  -1.464  0.00  0.00    +0.016 C 
BRANCH  23  27
ATOM     24  C   UNL     1       3.428  -2.877   1.876  0.00  0.00    +0.120 A 
ATOM     25  C   UNL     1       2.639  -3.457   0.893  0.00  0.00    +0.046 A 
ATOM     26  C   UNL     1       3.231  -4.084  -0.186  0.00  0.00    +0.007 A 
ATOM     27  C   UNL     1       4.609  -4.136  -0.286  0.00  0.00    -0.049 A 
ATOM     28  C   UNL     1       5.398  -3.559   0.692  0.00  0.00    +0.007 A 
ATOM     29  C   UNL     1       4.810  -2.925   1.770  0.00  0.00    +0.046 A 
BRANCH  24  31
ATOM     30  C   UNL     1       1.419  -2.248   2.981  0.00  0.00    +0.277 C 
ATOM     31  O   UNL     1       2.847  -2.259   2.938  0.00  0.00    -0.495 OA
ENDBRANCH  24  31
ENDBRANCH  23  27
ENDBRANCH  22  23
ENDBRANCH  19  22
ENDBRANCH  18  19
ENDBRANCH   1  18
TORSDOF 10
