REMARK  Name = ZINC41648024
REMARK  11 active torsions:
REMARK  status: ('A' for Active; 'I' for Inactive)
REMARK    1  A    between atoms: C_1  and  C_2
REMARK    2  A    between atoms: C_2  and  C_3
REMARK    3  A    between atoms: C_6  and  C_9
REMARK    4  A    between atoms: C_14  and  C_36
REMARK    5  A    between atoms: N_21  and  C_24
REMARK    6  A    between atoms: C_24  and  C_25
REMARK    7  A    between atoms: C_25  and  C_26
REMARK    8  A    between atoms: C_29  and  O_34
REMARK    9  A    between atoms: C_30  and  O_32
REMARK   10  A    between atoms: O_32  and  C_33
REMARK   11  A    between atoms: O_34  and  C_35
REMARK                            x       y       z     vdW  Elec       q    Type
REMARK                         _______ _______ _______ _____ _____    ______ ____
ROOT
ATOM      1  C   UNL     1       2.692  -1.858  -4.726  0.00  0.00    +0.058 C 
ATOM      2  C   UNL     1       4.043  -1.974  -4.736  0.00  0.00    +0.176 C 
ATOM      3  C   UNL     1       4.942  -1.770  -3.589  0.00  0.00    +0.232 C 
ATOM      4  O   UNL     1       4.640  -1.465  -2.449  0.00  0.00    -0.283 OA
ATOM      5  C   UNL     1       6.291  -2.018  -4.129  0.00  0.00    +0.071 A 
ATOM      6  C   UNL     1       7.567  -1.988  -3.564  0.00  0.00    -0.033 A 
ATOM      7  C   UNL     1       8.658  -2.268  -4.335  0.00  0.00    +0.050 A 
ATOM      8  C   UNL     1       8.505  -2.586  -5.685  0.00  0.00    +0.131 A 
ATOM      9  C   UNL     1       7.245  -2.621  -6.256  0.00  0.00    +0.051 A 
ATOM     10  C   UNL     1       6.123  -2.336  -5.486  0.00  0.00    +0.148 A 
ATOM     11  O   UNL     1       4.810  -2.305  -5.802  0.00  0.00    -0.451 OA
ATOM     12  C   UNL     1       7.066  -2.970  -7.712  0.00  0.00    +0.130 C 
ATOM     13  N   UNL     1       8.348  -2.828  -8.415  0.00  0.00    -0.266 NA
ATOM     14  C   UNL     1       9.412  -3.525  -7.673  0.00  0.00    +0.318 C 
ATOM     15  O   UNL     1       9.612  -2.857  -6.426  0.00  0.00    -0.476 OA
ATOM     16  C   UNL     1       7.739  -1.645  -2.107  0.00  0.00    +0.045 C 
ENDROOT
BRANCH   1  20
ATOM     17  C   UNL     1       0.725  -0.291  -1.313  0.00  0.00    -0.048 A 
ATOM     18  C   UNL     1       0.167  -1.355  -2.001  0.00  0.00    +0.004 A 
ATOM     19  C   UNL     1       0.800  -1.870  -3.112  0.00  0.00    +0.008 A 
ATOM     20  C   UNL     1       2.010  -1.315  -3.543  0.00  0.00    -0.021 A 
ATOM     21  C   UNL     1       2.567  -0.239  -2.842  0.00  0.00    +0.008 A 
ATOM     22  C   UNL     1       1.918   0.268  -1.736  0.00  0.00    +0.004 A 
BRANCH  17  24
ATOM     23  C   UNL     1      -0.939   1.373  -0.530  0.00  0.00    +0.009 C 
ATOM     24  C   UNL     1       0.025   0.266  -0.100  0.00  0.00    +0.032 C 
ENDBRANCH  17  24
ENDBRANCH   1  20
BRANCH  13  25
ATOM     25  C   UNL     1       8.252  -3.328  -9.793  0.00  0.00    +0.092 C 
BRANCH  25  26
ATOM     26  C   UNL     1       9.515  -2.941 -10.565  0.00  0.00    +0.050 C 
BRANCH  26  27
ATOM     27  C   UNL     1       9.416  -3.453 -11.979  0.00  0.00    -0.042 A 
ATOM     28  C   UNL     1       9.886  -4.716 -12.289  0.00  0.00    +0.007 A 
ATOM     29  C   UNL     1       9.798  -5.191 -13.584  0.00  0.00    +0.049 A 
ATOM     30  C   UNL     1       9.237  -4.402 -14.575  0.00  0.00    +0.161 A 
ATOM     31  C   UNL     1       8.764  -3.131 -14.263  0.00  0.00    +0.162 A 
ATOM     32  C   UNL     1       8.851  -2.663 -12.961  0.00  0.00    +0.053 A 
BRANCH  31  33
ATOM     33  O   UNL     1       8.212  -2.352 -15.232  0.00  0.00    -0.491 OA
ATOM     34  C   UNL     1       7.748  -1.059 -14.839  0.00  0.00    +0.277 C 
ENDBRANCH  31  33
BRANCH  30  35
ATOM     35  O   UNL     1       9.150  -4.867 -15.849  0.00  0.00    -0.491 OA
ATOM     36  C   UNL     1       9.656  -6.180 -16.096  0.00  0.00    +0.277 C 
ENDBRANCH  30  35
ENDBRANCH  26  27
ENDBRANCH  25  26
ENDBRANCH  13  25
TORSDOF 7
