REMARK  Name = ZINC12338519
REMARK  9 active torsions:
REMARK  status: ('A' for Active; 'I' for Inactive)
REMARK    1  A    between atoms: C_3  and  C_9
REMARK    2  A    between atoms: C_9  and  O_10
REMARK    3  A    between atoms: O_10  and  N_11
REMARK    4  A    between atoms: C_12  and  C_13
REMARK    5  A    between atoms: C_13  and  C_14
REMARK    6  A    between atoms: N_16  and  N_17
REMARK    7  A    between atoms: C_18  and  C_19
REMARK    8  A    between atoms: C_19  and  O_20
REMARK    9  A    between atoms: O_20  and  C_21
REMARK                            x       y       z     vdW  Elec       q    Type
REMARK                         _______ _______ _______ _____ _____    ______ ____
ROOT
ATOM      1  C   UNL     1       4.130  -4.087  -0.062  0.00  0.00    +0.234 C 
ATOM      2  O   UNL     1       2.994  -4.513  -0.053  0.00  0.00    -0.274 OA
ATOM      3  N   UNL     1       4.351  -2.758  -0.057  0.00  0.00    -0.235 N 
ATOM      4  H   UNL     1       5.259  -2.417  -0.064  0.00  0.00    +0.173 HD
ENDROOT
BRANCH   3   5
ATOM      5  N   UNL     1       3.269  -1.867  -0.041  0.00  0.00    -0.251 N 
ATOM      6  C   UNL     1       3.494  -0.516  -0.035  0.00  0.00    +0.120 C 
ATOM      7  H   UNL     1       2.361  -2.208  -0.034  0.00  0.00    +0.171 HD
ATOM      8  H   UNL     1       5.520  -0.599  -0.056  0.00  0.00    +0.157 HD
ATOM      9  N   UNL     1       4.700   0.008  -0.044  0.00  0.00    -0.387 N 
ATOM     10  H   UNL     1       4.816   1.028  -0.039  0.00  0.00    +0.157 HD
BRANCH   6  11
ATOM     11  C   UNL     1       2.331   0.442  -0.019  0.00  0.00    +0.299 C 
BRANCH  11  12
ATOM     12  O   UNL     1       2.819   1.784  -0.016  0.00  0.00    -0.483 OA
BRANCH  12  13
ATOM     13  C   UNL     1       1.892   2.779  -0.001  0.00  0.00    +0.139 A 
ATOM     14  C   UNL     1       0.540   2.467   0.011  0.00  0.00    +0.048 A 
ATOM     15  C   UNL     1      -0.401   3.479   0.019  0.00  0.00    +0.023 A 
ATOM     16  C   UNL     1       0.004   4.802   0.028  0.00  0.00    +0.043 A 
ATOM     17  C   UNL     1       1.351   5.115   0.017  0.00  0.00    +0.043 A 
ATOM     18  C   UNL     1       2.296   4.106   0.002  0.00  0.00    +0.084 A 
ATOM     19 CL   UNL     1       3.987   4.500  -0.013  0.00  0.00    -0.080 Cl
ATOM     20 CL   UNL     1      -1.181   6.071   0.046  0.00  0.00    -0.083 Cl
ENDBRANCH  12  13
ENDBRANCH  11  12
ENDBRANCH   6  11
ENDBRANCH   3   5
BRANCH   1  21
ATOM     21  C   UNL     1       5.293  -5.045  -0.079  0.00  0.00    +0.147 C 
BRANCH  21  23
ATOM     22  N   UNL     1       5.148  -7.274  -0.998  0.00  0.00    -0.097 NA
ATOM     23  C   UNL     1       4.778  -6.461  -0.082  0.00  0.00    +0.135 C 
BRANCH  22  24
ATOM     24  O   UNL     1       4.664  -8.605  -1.001  0.00  0.00    -0.389 OA
BRANCH  24  25
ATOM     25  C   UNL     1       5.158  -9.401  -2.080  0.00  0.00    +0.299 C 
BRANCH  25  28
ATOM     26  C   UNL     1       3.186 -12.383  -0.868  0.00  0.00    +0.020 A 
ATOM     27  C   UNL     1       3.716 -11.110  -0.956  0.00  0.00    +0.010 A 
ATOM     28  C   UNL     1       4.582 -10.790  -1.985  0.00  0.00    +0.011 A 
ATOM     29  C   UNL     1       4.915 -11.744  -2.931  0.00  0.00    +0.049 A 
ATOM     30  C   UNL     1       4.389 -13.020  -2.840  0.00  0.00    +0.040 A 
ATOM     31  C   UNL     1       3.522 -13.339  -1.810  0.00  0.00    +0.042 A 
ATOM     32 CL   UNL     1       2.857 -14.939  -1.700  0.00  0.00    -0.083 Cl
ATOM     33 CL   UNL     1       5.996 -11.340  -4.227  0.00  0.00    -0.083 Cl
ENDBRANCH  25  28
ENDBRANCH  24  25
ENDBRANCH  22  24
ENDBRANCH  21  23
ENDBRANCH   1  21
TORSDOF 9
