REMARK  Name = ZINC00934006
REMARK  11 active torsions:
REMARK  status: ('A' for Active; 'I' for Inactive)
REMARK    1  A    between atoms: C_4  and  C_7
REMARK    2  A    between atoms: C_7  and  N_8
REMARK    3  A    between atoms: N_8  and  S_9
REMARK    4  A    between atoms: S_9  and  C_12
REMARK    5  A    between atoms: C_15  and  S_18
REMARK    6  A    between atoms: S_18  and  N_21
REMARK    7  A    between atoms: N_21  and  C_22
REMARK    8  A    between atoms: N_21  and  C_30
REMARK    9  A    between atoms: C_22  and  C_23
REMARK   10  A    between atoms: C_23  and  C_24
REMARK   11  A    between atoms: C_30  and  C_31
REMARK                            x       y       z     vdW  Elec       q    Type
REMARK                         _______ _______ _______ _____ _____    ______ ____
ROOT
ATOM      1  S   UNL     1       1.147   3.847   0.011  0.00  0.00    +0.061 S 
ATOM      2  O   UNL     1       2.382   4.273  -0.549  0.00  0.00    -0.153 OA
ATOM      3  O   UNL     1      -0.109   4.239  -0.526  0.00  0.00    -0.153 OA
ENDROOT
BRANCH   1   7
ATOM      4  C   UNL     1       1.208  -0.679  -0.014  0.00  0.00    +0.105 A 
ATOM      5  C   UNL     1       0.002  -0.004   0.002  0.00  0.00    +0.030 A 
ATOM      6  C   UNL     1      -0.017   1.378   0.010  0.00  0.00    +0.030 A 
ATOM      7  C   UNL     1       1.171   2.086   0.002  0.00  0.00    +0.106 A 
ATOM      8  C   UNL     1       2.377   1.411  -0.014  0.00  0.00    +0.030 A 
ATOM      9  C   UNL     1       2.396   0.029  -0.021  0.00  0.00    +0.030 A 
BRANCH   4  10
ATOM     10  S   UNL     1       1.232  -2.441  -0.023  0.00  0.00    +0.059 S 
ATOM     11  O   UNL     1       2.489  -2.833   0.513  0.00  0.00    -0.153 OA
ATOM     12  O   UNL     1      -0.002  -2.867   0.538  0.00  0.00    -0.153 OA
BRANCH  10  13
ATOM     13  N   UNL     1       1.223  -2.922  -1.608  0.00  0.00    -0.186 NA
ATOM     14  H   UNL     1       0.465  -3.413  -1.961  0.00  0.00    +0.148 HD
BRANCH  13  15
ATOM     15  C   UNL     1       2.360  -2.606  -2.476  0.00  0.00    +0.141 C 
BRANCH  15  19
ATOM     16  C   UNL     1       2.153  -4.986  -6.017  0.00  0.00    +0.000 A 
ATOM     17  C   UNL     1       1.541  -3.747  -5.980  0.00  0.00    +0.000 A 
ATOM     18  C   UNL     1       1.607  -2.977  -4.834  0.00  0.00    +0.005 A 
ATOM     19  C   UNL     1       2.287  -3.446  -3.725  0.00  0.00    -0.032 A 
ATOM     20  C   UNL     1       2.905  -4.682  -3.764  0.00  0.00    +0.005 A 
ATOM     21  C   UNL     1       2.833  -5.454  -4.908  0.00  0.00    +0.000 A 
ENDBRANCH  15  19
ENDBRANCH  13  15
ENDBRANCH  10  13
ENDBRANCH   4  10
ENDBRANCH   1   7
BRANCH   1  22
ATOM     22  N   UNL     1       1.155   4.329   1.596  0.00  0.00    -0.172 NA
BRANCH  22  23
ATOM     23  C   UNL     1      -0.110   4.525   2.308  0.00  0.00    +0.114 C 
BRANCH  23  24
ATOM     24  C   UNL     1      -0.464   3.251   3.078  0.00  0.00    +0.047 C 
BRANCH  24  25
ATOM     25  C   UNL     1      -1.765   3.452   3.811  0.00  0.00    -0.072 C 
ATOM     26  C   UNL     1      -2.854   3.052   3.236  0.00  0.00    -0.028 C 
ATOM     27  C   UNL     1      -4.222   3.193   3.836  0.00  0.00    +0.027 C 
ATOM     28  C   UNL     1      -4.114   3.463   5.338  0.00  0.00    +0.004 C 
ATOM     29  C   UNL     1      -3.110   4.603   5.555  0.00  0.00    +0.005 C 
ATOM     30  C   UNL     1      -1.718   4.098   5.164  0.00  0.00    +0.030 C 
ENDBRANCH  24  25
ENDBRANCH  23  24
ENDBRANCH  22  23
BRANCH  22  31
ATOM     31  C   UNL     1       2.427   4.559   2.285  0.00  0.00    +0.147 C 
BRANCH  31  32
ATOM     32  C   UNL     1       2.780   6.023   2.213  0.00  0.00    +0.003 A 
ATOM     33  C   UNL     1       3.701   6.467   1.282  0.00  0.00    +0.008 A 
ATOM     34  C   UNL     1       4.020   7.810   1.212  0.00  0.00    +0.000 A 
ATOM     35  C   UNL     1       3.427   8.709   2.080  0.00  0.00    +0.003 A 
ATOM     36  C   UNL     1       2.511   8.266   3.015  0.00  0.00    +0.038 A 
ATOM     37  C   UNL     1       2.186   6.921   3.082  0.00  0.00    +0.128 A 
ATOM     38  F   UNL     1       1.291   6.487   3.996  0.00  0.00    -0.205 F 
ENDBRANCH  31  32
ENDBRANCH  22  31
ENDBRANCH   1  22
TORSDOF 11
