REMARK  Name = ZINC63108446
REMARK  8 active torsions:
REMARK  status: ('A' for Active; 'I' for Inactive)
REMARK    1  A    between atoms: C_1  and  C_2
REMARK    2  A    between atoms: C_4  and  C_12
REMARK    3  A    between atoms: C_12  and  N_13
REMARK    4  A    between atoms: N_13  and  C_14
REMARK    5  A    between atoms: C_14  and  C_16
REMARK    6  A    between atoms: C_14  and  C_17
REMARK    7  A    between atoms: C_17  and  C_19
REMARK    8  A    between atoms: C_17  and  N_25
REMARK                            x       y       z     vdW  Elec       q    Type
REMARK                         _______ _______ _______ _____ _____    ______ ____
ROOT
ATOM      1  N   UNL     1       2.426  -0.875  -3.548  0.00  0.00    +0.384 N 
ATOM      2  H   UNL     1       3.377  -0.642  -3.793  0.00  0.00    -0.085 HD
ATOM      3  H   UNL     1       2.368  -1.857  -3.323  0.00  0.00    -0.085 HD
ENDROOT
BRANCH   1   4
ATOM      4  C   UNL     1       1.541  -0.580  -4.683  0.00  0.00    -0.053 C 
ATOM      5  C   UNL     1       1.722   0.880  -5.104  0.00  0.00    -0.012 C 
BRANCH   4   6
ATOM      6  C   UNL     1       1.893  -1.496  -5.856  0.00  0.00    +0.073 C 
BRANCH   6   7
ATOM      7  C   UNL     1       1.715  -2.934  -5.442  0.00  0.00    -0.032 A 
ATOM      8  C   UNL     1       2.714  -3.855  -5.696  0.00  0.00    +0.005 A 
ATOM      9  C   UNL     1       2.551  -5.174  -5.316  0.00  0.00    +0.000 A 
ATOM     10  C   UNL     1       1.389  -5.572  -4.681  0.00  0.00    +0.000 A 
ATOM     11  C   UNL     1       0.391  -4.650  -4.426  0.00  0.00    +0.000 A 
ATOM     12  C   UNL     1       0.556  -3.330  -4.802  0.00  0.00    +0.005 A 
ENDBRANCH   6   7
BRANCH   6  13
ATOM     13  N   UNL     1       1.009  -1.200  -6.991  0.00  0.00    -0.293 NA
ATOM     14  C   UNL     1      -0.399  -1.435  -6.637  0.00  0.00    +0.113 C 
ATOM     15  C   UNL     1      -1.288  -1.058  -7.825  0.00  0.00    +0.175 C 
ATOM     16  O   UNL     1      -0.886  -1.811  -8.972  0.00  0.00    -0.377 OA
ATOM     17  C   UNL     1       0.479  -1.606  -9.346  0.00  0.00    +0.175 C 
ATOM     18  C   UNL     1       1.387  -1.988  -8.173  0.00  0.00    +0.113 C 
ENDBRANCH   6  13
ENDBRANCH   4   6
ENDBRANCH   1   4
BRANCH   1  19
ATOM     19  C   UNL     1       2.011  -0.081  -2.384  0.00  0.00    -0.048 C 
BRANCH  19  22
ATOM     20  C   UNL     1       3.039   1.728   0.102  0.00  0.00    +0.035 C 
ATOM     21  C   UNL     1       2.848   0.212   0.168  0.00  0.00    +0.101 C 
ATOM     22  C   UNL     1       2.919  -0.384  -1.220  0.00  0.00    -0.056 C 
ATOM     23  C   UNL     1       3.962  -1.245  -1.205  0.00  0.00    -0.003 A 
ATOM     24  C   UNL     1       4.542  -2.122  -2.229  0.00  0.00    +0.010 A 
ATOM     25  C   UNL     1       5.611  -2.886  -1.909  0.00  0.00    +0.001 A 
ATOM     26  C   UNL     1       6.178  -2.861  -0.627  0.00  0.00    +0.002 A 
ATOM     27  C   UNL     1       5.701  -2.081   0.366  0.00  0.00    +0.026 A 
ATOM     28  C   UNL     1       4.579  -1.236   0.141  0.00  0.00    +0.043 A 
ATOM     29  N   UNL     1       3.941  -0.403   0.929  0.00  0.00    -0.378 N 
ATOM     30  H   UNL     1       4.156  -0.224   1.857  0.00  0.00    +0.160 HD
ENDBRANCH  19  22
ENDBRANCH   1  19
TORSDOF 6
