REMARK  Name = ZINC10263956
REMARK  8 active torsions:
REMARK  status: ('A' for Active; 'I' for Inactive)
REMARK    1  A    between atoms: C_1  and  C_2
REMARK    2  A    between atoms: C_5  and  C_8
REMARK    3  A    between atoms: C_11  and  S_14
REMARK    4  A    between atoms: N_12  and  C_13
REMARK    5  A    between atoms: S_14  and  C_15
REMARK    6  A    between atoms: C_15  and  C_16
REMARK    7  A    between atoms: N_18  and  C_19
REMARK    8  A    between atoms: C_20  and  C_29
REMARK                            x       y       z     vdW  Elec       q    Type
REMARK                         _______ _______ _______ _____ _____    ______ ____
ROOT
ATOM      1  C   UNL     1       2.459   3.252   0.975  0.00  0.00    +0.228 C 
ATOM      2  O   UNL     1       1.597   4.096   1.098  0.00  0.00    -0.275 OA
ATOM      3  N   UNL     1       3.757   3.590   1.104  0.00  0.00    -0.278 N 
ATOM      4  H   UNL     1       4.447   2.915   1.006  0.00  0.00    +0.155 HD
ENDROOT
BRANCH   3   5
ATOM      5  C   UNL     1       4.108   4.905   1.379  0.00  0.00    +0.090 A 
ATOM      6  C   UNL     1       5.373   5.441   1.551  0.00  0.00    +0.084 A 
ATOM      7  C   UNL     1       5.474   6.867   1.827  0.00  0.00    -0.018 A 
ATOM      8  C   UNL     1       4.292   7.517   1.902  0.00  0.00    -0.004 A 
ATOM      9  S   UNL     1       3.068   6.273   1.597  0.00  0.00    -0.077 S 
ATOM     10  C   UNL     1       4.062   8.967   2.194  0.00  0.00    +0.043 C 
ATOM     11  C   UNL     1       4.983   9.815   1.305  0.00  0.00    +0.005 C 
ATOM     12  C   UNL     1       6.302  10.027   2.040  0.00  0.00    +0.001 C 
ATOM     13  C   UNL     1       6.629   8.805   2.896  0.00  0.00    +0.005 C 
ATOM     14  C   UNL     1       6.811   7.572   2.017  0.00  0.00    +0.037 C 
BRANCH   6  15
ATOM     15  C   UNL     1       6.543   4.620   1.458  0.00  0.00    +0.102 C 
ATOM     16  N   UNL     1       7.471   3.970   1.383  0.00  0.00    -0.191 NA
ENDBRANCH   6  15
ENDBRANCH   3   5
BRANCH   1  17
ATOM     17  C   UNL     1       2.079   1.824   0.677  0.00  0.00    +0.173 C 
BRANCH  17  18
ATOM     18  S   UNL     1       0.278   1.691   0.563  0.00  0.00    -0.077 S 
BRANCH  18  22
ATOM     19  C   UNL     1      -0.678  -2.018  -0.211  0.00  0.00    +0.165 A 
ATOM     20  N   UNL     1       0.633  -2.064  -0.156  0.00  0.00    -0.128 NA
ATOM     21  N   UNL     1       1.103  -0.893   0.091  0.00  0.00    -0.122 NA
ATOM     22  C   UNL     1       0.120  -0.030   0.218  0.00  0.00    +0.192 A 
ATOM     23  N   UNL     1      -1.047  -0.714   0.027  0.00  0.00    -0.305 N 
ATOM     24  C   UNL     1      -2.408  -0.172   0.068  0.00  0.00    +0.153 C 
BRANCH  19  29
ATOM     25  C   UNL     1      -4.214  -6.437  -1.251  0.00  0.00    +0.044 C 
ATOM     26  C   UNL     1      -3.288  -5.280  -0.979  0.00  0.00    -0.050 A 
ATOM     27  C   UNL     1      -3.730  -3.983  -1.173  0.00  0.00    +0.004 A 
ATOM     28  C   UNL     1      -2.888  -2.919  -0.925  0.00  0.00    +0.012 A 
ATOM     29  C   UNL     1      -1.587  -3.153  -0.478  0.00  0.00    +0.019 A 
ATOM     30  C   UNL     1      -1.145  -4.464  -0.290  0.00  0.00    +0.012 A 
ATOM     31  C   UNL     1      -1.999  -5.519  -0.536  0.00  0.00    +0.004 A 
ENDBRANCH  19  29
ENDBRANCH  18  22
ENDBRANCH  17  18
ENDBRANCH   1  17
TORSDOF 6
