REMARK  Name = ZINC15226556
REMARK  5 active torsions:
REMARK  status: ('A' for Active; 'I' for Inactive)
REMARK    1  A    between atoms: C_1  and  C_2
REMARK    2  A    between atoms: C_5  and  C_8
REMARK    3  A    between atoms: C_10  and  C_14
REMARK    4  A    between atoms: C_14  and  C_24
REMARK    5  A    between atoms: C_15  and  C_16
REMARK                            x       y       z     vdW  Elec       q    Type
REMARK                         _______ _______ _______ _____ _____    ______ ____
ROOT
ATOM      1  C   UNL     1       1.081   1.783   0.001  0.00  0.00    +0.066 A 
ATOM      2  C   UNL     1       0.632   3.071   0.013  0.00  0.00    +0.058 A 
ATOM      3  C   UNL     1      -0.773   3.035   0.026  0.00  0.00    +0.103 A 
ATOM      4  N   UNL     1      -1.155   1.774   0.017  0.00  0.00    -0.173 NA
ATOM      5  N   UNL     1      -0.011   0.966   0.007  0.00  0.00    -0.276 N 
ATOM      6  H   UNL     1       0.003  -0.034   0.006  0.00  0.00    +0.189 HD
ENDROOT
BRANCH   1  11
ATOM      7  C   UNL     1       6.585   0.101  -0.061  0.00  0.00    +0.044 C 
ATOM      8  C   UNL     1       5.144   0.541  -0.044  0.00  0.00    -0.050 A 
ATOM      9  C   UNL     1       4.135  -0.405  -0.039  0.00  0.00    +0.004 A 
ATOM     10  C   UNL     1       2.813  -0.008  -0.025  0.00  0.00    +0.010 A 
ATOM     11  C   UNL     1       2.496   1.350  -0.014  0.00  0.00    -0.000 A 
ATOM     12  C   UNL     1       3.519   2.299  -0.024  0.00  0.00    +0.010 A 
ATOM     13  C   UNL     1       4.836   1.890  -0.034  0.00  0.00    +0.004 A 
ENDBRANCH   1  11
BRANCH   3  14
ATOM     14  C   UNL     1      -1.671   4.214   0.041  0.00  0.00    +0.079 C 
ATOM     15  C   UNL     1      -3.020   4.041   0.053  0.00  0.00    +0.031 C 
BRANCH  15  16
ATOM     16  C   UNL     1      -3.910   5.209   0.067  0.00  0.00    +0.013 A 
ATOM     17  C   UNL     1      -3.713   6.233   1.002  0.00  0.00    +0.050 A 
ATOM     18  C   UNL     1      -4.550   7.330   1.005  0.00  0.00    +0.020 A 
ATOM     19  C   UNL     1      -5.590   7.414   0.095  0.00  0.00    +0.003 A 
ATOM     20  C   UNL     1      -5.796   6.404  -0.828  0.00  0.00    +0.020 A 
ATOM     21  C   UNL     1      -4.965   5.303  -0.850  0.00  0.00    +0.050 A 
ATOM     22 CL   UNL     1      -5.226   4.037  -2.009  0.00  0.00    -0.083 Cl
ATOM     23 CL   UNL     1      -2.414   6.127   2.150  0.00  0.00    -0.083 Cl
ENDBRANCH  15  16
BRANCH  14  24
ATOM     24  C   UNL     1      -1.119   5.535   0.043  0.00  0.00    +0.101 C 
ATOM     25  N   UNL     1      -0.680   6.583   0.044  0.00  0.00    -0.191 NA
ENDBRANCH  14  24
ENDBRANCH   3  14
TORSDOF 4
