REMARK  Name = ZINC28889638
REMARK  3 active torsions:
REMARK  status: ('A' for Active; 'I' for Inactive)
REMARK    1  A    between atoms: N_9  and  C_14
REMARK    2  A    between atoms: C_14  and  C_15
REMARK    3  A    between atoms: C_20  and  C_23
REMARK                            x       y       z     vdW  Elec       q    Type
REMARK                         _______ _______ _______ _____ _____    ______ ____
ROOT
ATOM      1  C   UNL     1       2.649  -4.678  -1.467  0.00  0.00    +0.239 C 
ATOM      2  O   UNL     1       2.584  -3.887  -2.385  0.00  0.00    -0.273 OA
ATOM      3  N   UNL     1       2.741  -5.998  -1.720  0.00  0.00    -0.263 N 
ATOM      4  C   UNL     1       2.762  -6.454  -3.033  0.00  0.00    +0.165 A 
ATOM      5  N   UNL     1       2.841  -7.691  -3.485  0.00  0.00    -0.224 NA
ATOM      6  C   UNL     1       2.849  -7.948  -4.790  0.00  0.00    +0.087 A 
ATOM      7  C   UNL     1       2.773  -6.908  -5.677  0.00  0.00    +0.077 A 
ATOM      8  S   UNL     1       2.681  -5.520  -4.554  0.00  0.00    -0.060 S 
ATOM      9  H   UNL     1       2.794  -6.630  -0.987  0.00  0.00    +0.157 HD
ENDROOT
BRANCH   6  10
ATOM     10  C   UNL     1       2.938  -9.342  -5.278  0.00  0.00    +0.040 A 
ATOM     11  C   UNL     1       3.016 -10.503  -4.559  0.00  0.00    +0.019 A 
ATOM     12  C   UNL     1       3.092 -11.701  -5.239  0.00  0.00    +0.028 A 
ATOM     13  C   UNL     1       3.088 -11.690  -6.597  0.00  0.00    +0.079 A 
ATOM     14  S   UNL     1       2.966  -9.946  -6.958  0.00  0.00    -0.075 S 
ATOM     15 CL   UNL     1       3.173 -13.029  -7.699  0.00  0.00    -0.076 Cl
ENDBRANCH   6  10
BRANCH   1  16
ATOM     16  C   UNL     1       2.627  -4.183  -0.044  0.00  0.00    +0.226 C 
BRANCH  16  25
ATOM     17  C   UNL     1      -0.017   1.375   0.010  0.00  0.00    +0.001 A 
ATOM     18  C   UNL     1       1.169   2.093   0.002  0.00  0.00    +0.002 A 
ATOM     19  C   UNL     1       2.386   1.442  -0.013  0.00  0.00    +0.026 A 
ATOM     20  C   UNL     1       2.425   0.056  -0.021  0.00  0.00    +0.056 A 
ATOM     21  C   UNL     1       1.223  -0.673  -0.013  0.00  0.00    +0.063 A 
ATOM     22  C   UNL     1       0.002  -0.004   0.002  0.00  0.00    +0.015 A 
ATOM     23  C   UNL     1       1.301  -2.145  -0.021  0.00  0.00    +0.265 A 
ATOM     24  O   UNL     1       0.291  -2.823  -0.016  0.00  0.00    -0.267 OA
ATOM     25  N   UNL     1       2.522  -2.722  -0.036  0.00  0.00    -0.252 N 
ATOM     26  C   UNL     1       3.642  -1.982  -0.043  0.00  0.00    +0.330 A 
ATOM     27  O   UNL     1       4.716  -2.551  -0.056  0.00  0.00    -0.246 OA
ATOM     28  N   UNL     1       3.627  -0.638  -0.036  0.00  0.00    -0.307 N 
ATOM     29  H   UNL     1       4.464  -0.148  -0.041  0.00  0.00    +0.170 HD
ENDBRANCH  16  25
ENDBRANCH   1  16
TORSDOF 3
