REMARK  Name = ZINC62281892
REMARK  7 active torsions:
REMARK  status: ('A' for Active; 'I' for Inactive)
REMARK    1  A    between atoms: C_8  and  C_13
REMARK    2  A    between atoms: C_13  and  C_14
REMARK    3  A    between atoms: C_14  and  C_15
REMARK    4  A    between atoms: N_17  and  C_18
REMARK    5  A    between atoms: C_18  and  C_19
REMARK    6  A    between atoms: C_19  and  C_20
REMARK    7  A    between atoms: C_25  and  O_26
REMARK                            x       y       z     vdW  Elec       q    Type
REMARK                         _______ _______ _______ _____ _____    ______ ____
ROOT
ATOM      1  C   UNL     1       2.734  -4.743  -1.487  0.00  0.00    +0.100 C 
ENDROOT
BRANCH   1   2
ATOM      2  C   UNL     1       2.828  -6.247  -1.496  0.00  0.00    +0.213 C 
ATOM      3  O   UNL     1       2.784  -6.863  -0.453  0.00  0.00    -0.276 OA
ATOM      4  N   UNL     1       2.959  -6.907  -2.664  0.00  0.00    -0.315 N 
ATOM      5  H   UNL     1       2.994  -6.414  -3.498  0.00  0.00    +0.149 HD
BRANCH   4   6
ATOM      6  C   UNL     1       3.050  -8.369  -2.672  0.00  0.00    +0.109 C 
BRANCH   6   7
ATOM      7  C   UNL     1       3.193  -8.863  -4.114  0.00  0.00    +0.057 C 
BRANCH   7   8
ATOM      8  C   UNL     1       3.286 -10.367  -4.123  0.00  0.00    -0.004 A 
ATOM      9  C   UNL     1       4.523 -10.982  -4.133  0.00  0.00    +0.007 A 
ATOM     10  C   UNL     1       4.609 -12.362  -4.141  0.00  0.00    +0.000 A 
ATOM     11  C   UNL     1       3.459 -13.129  -4.140  0.00  0.00    +0.004 A 
ATOM     12  C   UNL     1       2.220 -12.519  -4.129  0.00  0.00    +0.045 A 
ATOM     13  C   UNL     1       2.131 -11.134  -4.115  0.00  0.00    +0.120 A 
BRANCH  13  14
ATOM     14  O   UNL     1       0.913 -10.531  -4.099  0.00  0.00    -0.506 OA
ATOM     15  H   UNL     1       0.552 -10.351  -4.978  0.00  0.00    +0.292 HD
ENDBRANCH  13  14
ENDBRANCH   7   8
ENDBRANCH   6   7
ENDBRANCH   4   6
ENDBRANCH   1   2
BRANCH   1  16
ATOM     16  C   UNL     1       2.591  -4.249  -0.046  0.00  0.00    +0.050 C 
BRANCH  16  24
ATOM     17  C   UNL     1      -0.016   1.362   0.009  0.00  0.00    +0.001 A 
ATOM     18  C   UNL     1       1.169   2.084   0.002  0.00  0.00    +0.002 A 
ATOM     19  C   UNL     1       2.386   1.439  -0.013  0.00  0.00    +0.026 A 
ATOM     20  C   UNL     1       2.430   0.048  -0.021  0.00  0.00    +0.049 A 
ATOM     21  C   UNL     1       1.226  -0.681  -0.013  0.00  0.00    -0.001 A 
ATOM     22  C   UNL     1       0.002  -0.004   0.002  0.00  0.00    +0.010 A 
ATOM     23  C   UNL     1       1.283  -2.144  -0.022  0.00  0.00    +0.019 A 
ATOM     24  C   UNL     1       2.498  -2.745  -0.037  0.00  0.00    +0.018 A 
ATOM     25  C   UNL     1       3.676  -1.967  -0.044  0.00  0.00    +0.252 A 
ATOM     26  O   UNL     1       4.758  -2.528  -0.058  0.00  0.00    -0.268 OA
ATOM     27  N   UNL     1       3.634  -0.624  -0.036  0.00  0.00    -0.322 N 
ATOM     28  H   UNL     1       4.463  -0.119  -0.042  0.00  0.00    +0.169 HD
ENDBRANCH  16  24
ENDBRANCH   1  16
TORSDOF 7
