REMARK  Name = ZINC01452990
REMARK  3 active torsions:
REMARK  status: ('A' for Active; 'I' for Inactive)
REMARK    1  A    between atoms: C_3  and  C_9
REMARK    2  A    between atoms: C_9  and  C_10
REMARK    3  A    between atoms: C_14  and  C_18
REMARK                            x       y       z     vdW  Elec       q    Type
REMARK                         _______ _______ _______ _____ _____    ______ ____
ROOT
ATOM      1  C   UNL     1      10.017  -2.684   0.851  0.00  0.00    +0.014 A 
ATOM      2  C   UNL     1       9.483  -1.482   0.641  0.00  0.00    +0.104 A 
ATOM      3  N   UNL     1       8.120  -1.292   0.715  0.00  0.00    -0.300 N 
ATOM      4  C   UNL     1       7.211  -0.250   0.566  0.00  0.00    +0.121 A 
ATOM      5  C   UNL     1       5.972  -0.754   0.782  0.00  0.00    +0.097 A 
ATOM      6  N   UNL     1       6.096  -2.070   1.050  0.00  0.00    -0.221 NA
ATOM      7  C   UNL     1       7.356  -2.390   1.012  0.00  0.00    +0.178 A 
ATOM      8  S   UNL     1       8.570  -3.678   1.183  0.00  0.00    -0.054 S 
ENDROOT
BRANCH   5   9
ATOM      9  C   UNL     1       4.700   0.008   0.727  0.00  0.00    +0.083 C 
ATOM     10  C   UNL     1       3.537  -0.614   0.935  0.00  0.00    +0.002 C 
ATOM     11  C   UNL     1       2.251   0.155   0.918  0.00  0.00    +0.080 C 
ATOM     12  C   UNL     1       1.082  -0.657   0.441  0.00  0.00    -0.015 C 
ATOM     13  C   UNL     1       0.002  -0.004   0.002  0.00  0.00    -0.004 C 
ATOM     14  C   UNL     1      -0.018   1.470   0.010  0.00  0.00    -0.001 C 
ATOM     15  C   UNL     1       1.132   2.151   0.003  0.00  0.00    +0.018 C 
ATOM     16  C   UNL     1       2.414   1.370   0.000  0.00  0.00    +0.210 C 
ATOM     17  O   UNL     1       3.548   2.146   0.466  0.00  0.00    -0.453 OA
ATOM     18  C   UNL     1       4.721   1.456   0.418  0.00  0.00    +0.342 C 
ATOM     19  O   UNL     1       5.761   2.014   0.129  0.00  0.00    -0.245 OA
ENDBRANCH   5   9
BRANCH   1  20
ATOM     20  C   UNL     1      11.465  -3.099   0.817  0.00  0.00    +0.080 C 
BRANCH  20  23
ATOM     21  C   UNL     1      13.297  -1.643   3.781  0.00  0.00    +0.002 A 
ATOM     22  C   UNL     1      12.751  -1.789   2.519  0.00  0.00    +0.005 A 
ATOM     23  C   UNL     1      12.065  -2.943   2.191  0.00  0.00    -0.023 A 
ATOM     24  C   UNL     1      11.934  -3.958   3.122  0.00  0.00    +0.063 A 
ATOM     25  C   UNL     1      12.485  -3.814   4.384  0.00  0.00    +0.060 A 
ATOM     26  C   UNL     1      13.167  -2.656   4.712  0.00  0.00    +0.021 A 
ATOM     27 CL   UNL     1      12.321  -5.087   5.553  0.00  0.00    -0.082 Cl
ATOM     28 CL   UNL     1      11.079  -5.411   2.708  0.00  0.00    -0.082 Cl
ENDBRANCH  20  23
ENDBRANCH   1  20
TORSDOF 3
