REMARK  Name = ZINC63301809
REMARK  8 active torsions:
REMARK  status: ('A' for Active; 'I' for Inactive)
REMARK    1  A    between atoms: C_1  and  C_2
REMARK    2  A    between atoms: C_7  and  N_8
REMARK    3  A    between atoms: C_9  and  C_11
REMARK    4  A    between atoms: C_11  and  N_12
REMARK    5  A    between atoms: C_15  and  C_18
REMARK    6  A    between atoms: N_20  and  C_21
REMARK    7  A    between atoms: C_21  and  C_22
REMARK    8  A    between atoms: C_22  and  C_23
REMARK                            x       y       z     vdW  Elec       q    Type
REMARK                         _______ _______ _______ _____ _____    ______ ____
ROOT
ATOM      1  N   UNL     1       4.723   0.698   3.753  0.00  0.00    +0.385 N 
ATOM      2  C   UNL     1       4.807  -0.665   4.291  0.00  0.00    -0.077 C 
ATOM      3  C   UNL     1       5.265  -0.614   5.750  0.00  0.00    -0.006 C 
ATOM      4  C   UNL     1       6.643   0.052   5.824  0.00  0.00    +0.071 C 
ATOM      5  C   UNL     1       6.560   1.444   5.192  0.00  0.00    -0.006 C 
ATOM      6  C   UNL     1       6.054   1.317   3.754  0.00  0.00    -0.077 C 
ATOM      7  H   UNL     1       4.098   1.246   4.325  0.00  0.00    -0.081 HD
ENDROOT
BRANCH   4   8
ATOM      8  C   UNL     1       7.066   0.176   7.265  0.00  0.00    +0.216 C 
ATOM      9  O   UNL     1       6.338  -0.228   8.147  0.00  0.00    -0.276 OA
ATOM     10  N   UNL     1       8.252   0.736   7.573  0.00  0.00    -0.315 N 
ATOM     11  H   UNL     1       8.834   1.058   6.867  0.00  0.00    +0.149 HD
BRANCH  10  12
ATOM     12  C   UNL     1       8.663   0.856   8.974  0.00  0.00    +0.109 C 
BRANCH  12  13
ATOM     13  C   UNL     1      10.039   1.521   9.046  0.00  0.00    +0.061 C 
BRANCH  13  14
ATOM     14  C   UNL     1      10.462   1.645  10.487  0.00  0.00    -0.009 A 
ATOM     15  C   UNL     1      11.166   0.773  11.248  0.00  0.00    +0.011 A 
ATOM     16  C   UNL     1      11.443   1.101  12.562  0.00  0.00    +0.008 A 
ATOM     17  C   UNL     1      11.002   2.285  13.051  0.00  0.00    +0.045 A 
ATOM     18  S   UNL     1      10.173   2.984  11.633  0.00  0.00    -0.102 S 
ENDBRANCH  13  14
ENDBRANCH  12  13
ENDBRANCH  10  12
ENDBRANCH   4   8
BRANCH   1  19
ATOM     19  C   UNL     1       4.209   0.649   2.377  0.00  0.00    +0.019 C 
BRANCH  19  21
ATOM     20  N   UNL     1       2.116  -0.004   1.231  0.00  0.00    -0.314 N 
ATOM     21  C   UNL     1       2.795   0.128   2.388  0.00  0.00    +0.197 C 
ATOM     22  O   UNL     1       2.268  -0.174   3.438  0.00  0.00    -0.278 OA
ATOM     23  H   UNL     1       2.538   0.237   0.392  0.00  0.00    +0.149 HD
BRANCH  20  30
ATOM     24  C   UNL     1      -0.019   1.526   0.010  0.00  0.00    +0.009 C 
ATOM     25  C   UNL     1       0.002  -0.004   0.002  0.00  0.00    +0.006 C 
ATOM     26  C   UNL     1      -1.433  -0.534   0.013  0.00  0.00    +0.005 C 
ATOM     27  C   UNL     1      -1.413  -2.063   0.004  0.00  0.00    +0.000 C 
ATOM     28  C   UNL     1      -0.673  -2.570   1.244  0.00  0.00    +0.002 C 
ATOM     29  C   UNL     1       0.763  -2.041   1.233  0.00  0.00    +0.022 C 
ATOM     30  C   UNL     1       0.742  -0.511   1.242  0.00  0.00    +0.076 C 
ENDBRANCH  20  30
ENDBRANCH  19  21
ENDBRANCH   1  19
TORSDOF 7
