REMARK  Name = ZINC49544019
REMARK  8 active torsions:
REMARK  status: ('A' for Active; 'I' for Inactive)
REMARK    1  A    between atoms: C_1  and  C_2
REMARK    2  A    between atoms: C_2  and  C_3
REMARK    3  A    between atoms: C_2  and  C_4
REMARK    4  A    between atoms: C_2  and  N_5
REMARK    5  A    between atoms: C_10  and  C_17
REMARK    6  A    between atoms: C_22  and  C_23
REMARK    7  A    between atoms: C_26  and  O_29
REMARK    8  A    between atoms: O_29  and  C_30
REMARK                            x       y       z     vdW  Elec       q    Type
REMARK                         _______ _______ _______ _____ _____    ______ ____
ROOT
ATOM      1  N   UNL     1       1.077  -1.150  -0.864  0.00  0.00    -0.245 N 
ATOM      2  C   UNL     1       1.089  -2.372  -1.482  0.00  0.00    +0.128 A 
ATOM      3  C   UNL     1       1.736  -2.216  -2.658  0.00  0.00    +0.029 A 
ATOM      4  C   UNL     1       2.128  -0.864  -2.757  0.00  0.00    +0.141 A 
ATOM      5  N   UNL     1       1.728  -0.234  -1.690  0.00  0.00    -0.177 NA
ATOM      6  C   UNL     1       2.039  -3.211  -3.733  0.00  0.00    +0.115 C 
ATOM      7  S   UNL     1       0.762  -4.457  -3.929  0.00  0.00    -0.138 S 
ATOM      8  C   UNL     1       0.801  -5.448  -2.429  0.00  0.00    +0.166 C 
ATOM      9  C   UNL     1       0.331  -4.710  -1.238  0.00  0.00    +0.228 C 
ATOM     10  O   UNL     1      -0.330  -5.365  -0.460  0.00  0.00    -0.275 OA
ATOM     11  N   UNL     1       0.513  -3.471  -0.891  0.00  0.00    -0.270 N 
ATOM     12  H   UNL     1       0.162  -3.277  -0.008  0.00  0.00    +0.156 HD
ENDROOT
BRANCH   6  13
ATOM     13  C   UNL     1       2.199  -2.477  -5.040  0.00  0.00    +0.015 A 
ATOM     14  C   UNL     1       3.366  -2.078  -5.590  0.00  0.00    +0.110 A 
ATOM     15  N   UNL     1       3.087  -1.458  -6.757  0.00  0.00    -0.284 N 
ATOM     16  H   UNL     1       3.736  -1.070  -7.365  0.00  0.00    +0.188 HD
ATOM     17  N   UNL     1       1.698  -1.472  -6.937  0.00  0.00    -0.174 NA
ATOM     18  C   UNL     1       1.159  -2.091  -5.907  0.00  0.00    +0.097 A 
BRANCH  18  19
ATOM     19  C   UNL     1      -0.290  -2.335  -5.696  0.00  0.00    +0.003 A 
ATOM     20  C   UNL     1      -0.864  -2.097  -4.449  0.00  0.00    +0.013 A 
ATOM     21  C   UNL     1      -2.210  -2.324  -4.256  0.00  0.00    +0.046 A 
ATOM     22  C   UNL     1      -2.994  -2.790  -5.303  0.00  0.00    +0.120 A 
ATOM     23  C   UNL     1      -2.425  -3.027  -6.547  0.00  0.00    +0.046 A 
ATOM     24  C   UNL     1      -1.080  -2.797  -6.747  0.00  0.00    +0.013 A 
BRANCH  22  25
ATOM     25  O   UNL     1      -4.320  -3.013  -5.110  0.00  0.00    -0.495 OA
ATOM     26  C   UNL     1      -5.067  -3.492  -6.230  0.00  0.00    +0.277 C 
ENDBRANCH  22  25
ENDBRANCH  18  19
ENDBRANCH   6  13
BRANCH   1  28
ATOM     27  C   UNL     1       0.675   0.627   0.768  0.00  0.00    +0.036 C 
ATOM     28  C   UNL     1       0.476  -0.854   0.439  0.00  0.00    +0.057 C 
ATOM     29  C   UNL     1       1.147  -1.709   1.516  0.00  0.00    +0.036 C 
ATOM     30  C   UNL     1      -1.020  -1.171   0.396  0.00  0.00    +0.036 C 
ENDBRANCH   1  28
TORSDOF 4
