REMARK  Name = ZINC63490510
REMARK  10 active torsions:
REMARK  status: ('A' for Active; 'I' for Inactive)
REMARK    1  A    between atoms: C_1  and  C_2
REMARK    2  A    between atoms: C_2  and  N_3
REMARK    3  A    between atoms: N_3  and  C_4
REMARK    4  A    between atoms: N_3  and  C_26
REMARK    5  A    between atoms: C_4  and  C_5
REMARK    6  A    between atoms: C_5  and  C_6
REMARK    7  A    between atoms: C_6  and  N_7
REMARK    8  A    between atoms: C_8  and  C_10
REMARK    9  A    between atoms: C_17  and  C_24
REMARK   10  A    between atoms: C_29  and  C_32
REMARK                            x       y       z     vdW  Elec       q    Type
REMARK                         _______ _______ _______ _____ _____    ______ ____
ROOT
ATOM      1  N   UNL     1      -1.744  -3.865   3.739  0.00  0.00    -0.314 N 
ATOM      2  C   UNL     1      -2.450  -4.333   4.787  0.00  0.00    +0.230 C 
ATOM      3  O   UNL     1      -2.703  -3.604   5.722  0.00  0.00    -0.274 OA
ATOM      4  H   UNL     1      -1.542  -4.448   2.990  0.00  0.00    +0.149 HD
ENDROOT
BRANCH   2   5
ATOM      5  C   UNL     1      -2.926  -5.763   4.796  0.00  0.00    +0.160 C 
ATOM      6  C   UNL     1      -4.237  -5.894   5.539  0.00  0.00    +0.011 C 
ATOM      7  C   UNL     1      -4.202  -6.679   6.633  0.00  0.00    +0.049 C 
ATOM      8  C   UNL     1      -2.917  -7.309   6.973  0.00  0.00    +0.030 C 
ATOM      9  C   UNL     1      -2.825  -8.138   8.103  0.00  0.00    +0.011 A 
ATOM     10  C   UNL     1      -1.611  -8.751   8.452  0.00  0.00    +0.014 A 
ATOM     11  C   UNL     1      -1.547  -9.551   9.554  0.00  0.00    -0.050 A 
ATOM     12  C   UNL     1      -2.674  -9.767  10.341  0.00  0.00    +0.005 A 
ATOM     13  C   UNL     1      -3.868  -9.187  10.031  0.00  0.00    +0.024 A 
ATOM     14  C   UNL     1      -3.974  -8.357   8.903  0.00  0.00    +0.042 A 
ATOM     15  N   UNL     1      -5.147  -7.786   8.599  0.00  0.00    -0.281 N 
ATOM     16  C   UNL     1      -5.334  -6.995   7.562  0.00  0.00    +0.249 C 
ATOM     17  O   UNL     1      -6.438  -6.515   7.356  0.00  0.00    -0.270 OA
ATOM     18  C   UNL     1      -0.241 -10.207   9.924  0.00  0.00    +0.044 C 
ATOM     19  S   UNL     1      -1.819  -6.818   5.811  0.00  0.00    -0.107 S 
ATOM     20  H   UNL     1      -5.905  -7.966   9.177  0.00  0.00    +0.155 HD
ENDBRANCH   2   5
BRANCH   1  21
ATOM     21  C   UNL     1      -1.282  -2.475   3.730  0.00  0.00    +0.106 C 
BRANCH  21  22
ATOM     22  C   UNL     1      -0.511  -2.202   2.437  0.00  0.00    +0.037 C 
BRANCH  22  23
ATOM     23  C   UNL     1      -0.028  -0.750   2.427  0.00  0.00    +0.106 C 
BRANCH  23  24
ATOM     24  N   UNL     1       0.711  -0.489   1.189  0.00  0.00    -0.330 N 
BRANCH  24  25
ATOM     25  C   UNL     1       2.090  -0.703   1.140  0.00  0.00    +0.030 A 
ATOM     26  C   UNL     1       2.763  -1.169   2.263  0.00  0.00    +0.023 A 
ATOM     27  C   UNL     1       4.126  -1.380   2.211  0.00  0.00    +0.005 A 
ATOM     28  C   UNL     1       4.823  -1.127   1.043  0.00  0.00    -0.050 A 
ATOM     29  C   UNL     1       4.156  -0.664  -0.077  0.00  0.00    +0.005 A 
ATOM     30  C   UNL     1       2.792  -0.456  -0.033  0.00  0.00    +0.023 A 
ATOM     31  C   UNL     1       6.311  -1.358   0.990  0.00  0.00    +0.044 C 
ENDBRANCH  24  25
BRANCH  24  33
ATOM     32  C   UNL     1      -0.019   1.526   0.010  0.00  0.00    +0.024 C 
ATOM     33  C   UNL     1       0.002  -0.004   0.002  0.00  0.00    +0.102 C 
ENDBRANCH  24  33
ENDBRANCH  23  24
ENDBRANCH  22  23
ENDBRANCH  21  22
ENDBRANCH   1  21
TORSDOF 7
