REMARK  Name = ZINC03326298
REMARK  9 active torsions:
REMARK  status: ('A' for Active; 'I' for Inactive)
REMARK    1  A    between atoms: C_1  and  C_2
REMARK    2  A    between atoms: C_2  and  C_3
REMARK    3  A    between atoms: C_4  and  C_34
REMARK    4  A    between atoms: N_10  and  C_26
REMARK    5  A    between atoms: C_11  and  S_13
REMARK    6  A    between atoms: S_13  and  C_14
REMARK    7  A    between atoms: C_14  and  C_15
REMARK    8  A    between atoms: C_29  and  O_33
REMARK    9  A    between atoms: C_31  and  C_32
REMARK                            x       y       z     vdW  Elec       q    Type
REMARK                         _______ _______ _______ _____ _____    ______ ____
ROOT
ATOM      1  C   UNL     1       6.787   6.623  -0.027  0.00  0.00    -0.023 A 
ATOM      2  C   UNL     1       8.085   6.959  -0.038  0.00  0.00    -0.007 A 
ATOM      3  S   UNL     1       8.921   5.385  -0.055  0.00  0.00    -0.073 S 
ATOM      4  C   UNL     1       7.503   4.319  -0.046  0.00  0.00    +0.117 A 
ATOM      5  C   UNL     1       6.418   5.217  -0.031  0.00  0.00    +0.076 A 
ATOM      6  C   UNL     1       5.118   4.623  -0.022  0.00  0.00    +0.268 A 
ATOM      7  O   UNL     1       4.119   5.322  -0.008  0.00  0.00    -0.267 OA
ATOM      8  N   UNL     1       5.010   3.281  -0.028  0.00  0.00    -0.255 N 
ATOM      9  C   UNL     1       6.118   2.482  -0.038  0.00  0.00    +0.177 A 
ATOM     10  N   UNL     1       7.328   3.003  -0.052  0.00  0.00    -0.216 NA
ATOM     11  C   UNL     1       8.692   8.339  -0.038  0.00  0.00    +0.052 C 
ENDROOT
BRANCH   8  12
ATOM     12  C   UNL     1       3.737   2.693  -0.019  0.00  0.00    +0.055 A 
ATOM     13  C   UNL     1       3.095   2.408  -1.217  0.00  0.00    +0.030 A 
ATOM     14  C   UNL     1       1.841   1.830  -1.208  0.00  0.00    +0.047 A 
ATOM     15  C   UNL     1       1.223   1.533  -0.001  0.00  0.00    +0.117 A 
ATOM     16  C   UNL     1       1.862   1.822   1.196  0.00  0.00    +0.050 A 
ATOM     17  C   UNL     1       3.118   2.396   1.187  0.00  0.00    -0.023 A 
ATOM     18  C   UNL     1       3.814   2.704   2.488  0.00  0.00    +0.046 C 
BRANCH  15  19
ATOM     19  O   UNL     1      -0.011   0.963   0.007  0.00  0.00    -0.507 OA
ATOM     20  H   UNL     1       0.002  -0.004   0.002  0.00  0.00    +0.292 HD
ENDBRANCH  15  19
ENDBRANCH   8  12
BRANCH   1  22
ATOM     21  C   UNL     1       5.377   8.043   1.436  0.00  0.00    +0.009 C 
ATOM     22  C   UNL     1       5.723   7.690  -0.012  0.00  0.00    +0.033 C 
ENDBRANCH   1  22
BRANCH   9  23
ATOM     23  S   UNL     1       5.926   0.730  -0.038  0.00  0.00    -0.083 S 
BRANCH  23  24
ATOM     24  C   UNL     1       7.664   0.224  -0.052  0.00  0.00    +0.125 C 
BRANCH  24  25
ATOM     25  C   UNL     1       7.750  -1.304  -0.055  0.00  0.00    +0.221 C 
ATOM     26  C   UNL     1       9.222  -1.739  -0.036  0.00  0.00    +0.274 C 
ATOM     27  O   UNL     1       9.266  -3.170  -0.026  0.00  0.00    -0.485 OA
ATOM     28  C   UNL     1       8.435  -3.801   0.848  0.00  0.00    +0.162 A 
ATOM     29  C   UNL     1       8.668  -5.129   1.172  0.00  0.00    +0.049 A 
ATOM     30  C   UNL     1       7.831  -5.784   2.055  0.00  0.00    +0.004 A 
ATOM     31  C   UNL     1       6.759  -5.118   2.619  0.00  0.00    +0.004 A 
ATOM     32  C   UNL     1       6.522  -3.794   2.302  0.00  0.00    +0.049 A 
ATOM     33  C   UNL     1       7.358  -3.130   1.417  0.00  0.00    +0.163 A 
ATOM     34  O   UNL     1       7.114  -1.825   1.117  0.00  0.00    -0.481 OA
ENDBRANCH  24  25
ENDBRANCH  23  24
ENDBRANCH   9  23
TORSDOF 6
