REMARK  Name = ZINC37938550
REMARK  3 active torsions:
REMARK  status: ('A' for Active; 'I' for Inactive)
REMARK    1  A    between atoms: C_10  and  C_11
REMARK    2  A    between atoms: C_10  and  N_13
REMARK    3  A    between atoms: N_13  and  C_14
REMARK                            x       y       z     vdW  Elec       q    Type
REMARK                         _______ _______ _______ _____ _____    ______ ____
ROOT
ATOM      1  C   UNL     1      -0.122   1.136   0.002  0.00  0.00    +0.000 A 
ATOM      2  C   UNL     1       1.059   1.832   0.181  0.00  0.00    +0.000 A 
ATOM      3  C   UNL     1       2.263   1.160   0.140  0.00  0.00    +0.007 A 
ATOM      4  C   UNL     1       2.299  -0.211  -0.077  0.00  0.00    -0.007 A 
ATOM      5  C   UNL     1       1.123  -0.905  -0.249  0.00  0.00    -0.041 A 
ATOM      6  C   UNL     1      -0.088  -0.226  -0.212  0.00  0.00    +0.004 A 
ATOM      7  C   UNL     1       1.085  -2.394  -0.473  0.00  0.00    +0.035 C 
ATOM      8  C   UNL     1       2.456  -2.906  -0.912  0.00  0.00    +0.008 C 
ATOM      9  C   UNL     1       3.506  -2.388   0.078  0.00  0.00    +0.046 C 
ATOM     10  C   UNL     1       3.648  -0.880  -0.117  0.00  0.00    +0.145 C 
ENDROOT
BRANCH  10  11
ATOM     11  C   UNL     1       4.494  -0.330   0.955  0.00  0.00    +0.093 C 
ATOM     12  N   UNL     1       5.147   0.094   1.782  0.00  0.00    -0.194 NA
ENDBRANCH  10  11
BRANCH  10  13
ATOM     13  N   UNL     1       4.279  -0.617  -1.413  0.00  0.00    -0.322 N 
ATOM     14  H   UNL     1       3.803  -0.114  -2.091  0.00  0.00    +0.148 HD
BRANCH  13  15
ATOM     15  C   UNL     1       5.568  -1.092  -1.671  0.00  0.00    +0.043 A 
ATOM     16  C   UNL     1       6.294  -1.718  -0.666  0.00  0.00    +0.024 A 
ATOM     17  C   UNL     1       7.567  -2.187  -0.925  0.00  0.00    +0.002 A 
ATOM     18  C   UNL     1       8.120  -2.033  -2.183  0.00  0.00    +0.001 A 
ATOM     19  C   UNL     1       7.400  -1.411  -3.186  0.00  0.00    +0.017 A 
ATOM     20  C   UNL     1       6.124  -0.944  -2.936  0.00  0.00    +0.039 A 
ATOM     21 BR   UNL     1       5.138  -0.099  -4.311  0.00  0.00    -0.048 Br
ENDBRANCH  13  15
ENDBRANCH  10  13
TORSDOF 3
