REMARK  Name = ZINC04532800
REMARK  9 active torsions:
REMARK  status: ('A' for Active; 'I' for Inactive)
REMARK    1  A    between atoms: C_1  and  C_2
REMARK    2  A    between atoms: C_2  and  C_4
REMARK    3  A    between atoms: C_2  and  C_10
REMARK    4  A    between atoms: C_4  and  C_5
REMARK    5  A    between atoms: C_5  and  C_6
REMARK    6  A    between atoms: C_6  and  C_7
REMARK    7  A    between atoms: C_16  and  C_35
REMARK    8  A    between atoms: C_27  and  C_34
REMARK    9  A    between atoms: C_30  and  O_33
REMARK                            x       y       z     vdW  Elec       q    Type
REMARK                         _______ _______ _______ _____ _____    ______ ____
ROOT
ATOM      1  C   UNL     1      -4.149   7.205   0.052  0.00  0.00    -0.002 C 
ATOM      2  C   UNL     1      -3.484   7.875  -1.176  0.00  0.00    +0.004 C 
ATOM      3  C   UNL     1      -4.481   8.954  -1.683  0.00  0.00    +0.004 C 
ATOM      4  C   UNL     1      -5.460   9.095  -0.509  0.00  0.00    -0.001 C 
ATOM      5  C   UNL     1      -5.632   7.632  -0.055  0.00  0.00    -0.026 C 
ATOM      6  C   UNL     1      -6.396   7.546   1.241  0.00  0.00    +0.007 C 
ATOM      7  C   UNL     1      -7.495   8.617   1.310  0.00  0.00    +0.005 C 
ATOM      8  C   UNL     1      -7.915   9.067  -0.081  0.00  0.00    -0.001 C 
ATOM      9  C   UNL     1      -6.761   9.789  -0.775  0.00  0.00    -0.004 C 
ATOM     10  C   UNL     1      -7.059   9.979  -2.258  0.00  0.00    +0.004 C 
ATOM     11  C   UNL     1      -8.499  10.490  -2.428  0.00  0.00    +0.004 C 
ATOM     12  C   UNL     1      -8.964  11.069  -1.102  0.00  0.00    -0.002 C 
ATOM     13  C   UNL     1      -9.149   9.964  -0.061  0.00  0.00    -0.026 C 
ATOM     14  C   UNL     1      -9.383  10.610   1.300  0.00  0.00    +0.010 C 
ATOM     15  C   UNL     1     -10.626  11.502   1.242  0.00  0.00    +0.032 C 
ATOM     16  C   UNL     1     -10.504  12.556   0.145  0.00  0.00    +0.115 C 
ATOM     17  C   UNL     1     -10.230  11.905  -1.216  0.00  0.00    +0.035 C 
ATOM     18  C   UNL     1     -10.355   9.092  -0.420  0.00  0.00    +0.012 C 
ATOM     19  C   UNL     1      -6.265   6.749  -1.131  0.00  0.00    +0.012 C 
ENDROOT
BRANCH   1  21
ATOM     20  C   UNL     1      -4.645   5.054   1.216  0.00  0.00    +0.008 C 
ATOM     21  C   UNL     1      -4.042   5.686  -0.040  0.00  0.00    -0.010 C 
BRANCH  21  22
ATOM     22  C   UNL     1      -2.570   5.285  -0.156  0.00  0.00    +0.004 C 
BRANCH  22  23
ATOM     23  C   UNL     1      -2.468   3.774  -0.373  0.00  0.00    +0.009 C 
BRANCH  23  24
ATOM     24  C   UNL     1      -0.996   3.373  -0.489  0.00  0.00    +0.095 C 
BRANCH  24  25
ATOM     25  C   UNL     1      -0.896   1.884  -0.703  0.00  0.00    +0.210 C 
ATOM     26  O   UNL     1      -1.903   1.211  -0.758  0.00  0.00    -0.276 OA
ATOM     27  N   UNL     1       0.312   1.302  -0.834  0.00  0.00    -0.329 N 
ATOM     28  H   UNL     1       0.377   0.344  -0.972  0.00  0.00    +0.145 HD
ATOM     29  H   UNL     1       1.117   1.841  -0.794  0.00  0.00    +0.145 HD
ENDBRANCH  24  25
ENDBRANCH  23  24
ENDBRANCH  22  23
ENDBRANCH  21  22
ENDBRANCH   1  21
BRANCH  16  30
ATOM     30  O   UNL     1     -11.721  13.303   0.071  0.00  0.00    -0.392 OA
ATOM     31  H   UNL     1     -11.961  13.745   0.897  0.00  0.00    +0.210 HD
ENDBRANCH  16  30
TORSDOF 6
