REMARK  Name = ZINC09386272
REMARK  9 active torsions:
REMARK  status: ('A' for Active; 'I' for Inactive)
REMARK    1  A    between atoms: C_1  and  C_2
REMARK    2  A    between atoms: C_10  and  C_12
REMARK    3  A    between atoms: C_12  and  N_51
REMARK    4  A    between atoms: C_13  and  C_14
REMARK    5  A    between atoms: C_13  and  N_51
REMARK    6  A    between atoms: C_17  and  C_20
REMARK    7  A    between atoms: C_20  and  C_21
REMARK    8  A    between atoms: C_20  and  C_22
REMARK    9  A    between atoms: C_23  and  N_51
REMARK                            x       y       z     vdW  Elec       q    Type
REMARK                         _______ _______ _______ _____ _____    ______ ____
ROOT
ATOM      1  N   UNL     1      -0.728   1.555   1.210  0.00  0.00    +0.388 N 
ATOM      2  H   UNL     1      -1.714   1.390   0.975  0.00  0.00    -0.080 HD
ENDROOT
BRANCH   1   3
ATOM      3  C   UNL     1      -0.514   3.006   1.395  0.00  0.00    -0.068 C 
ATOM      4  C   UNL     1      -1.751   3.840   1.736  0.00  0.00    -0.017 C 
ATOM      5  C   UNL     1      -1.125   3.932   0.342  0.00  0.00    -0.017 C 
ENDBRANCH   1   3
BRANCH   1   6
ATOM      6  C   UNL     1       0.119   1.057   0.106  0.00  0.00    -0.021 C 
BRANCH   6  16
ATOM      7  C   UNL     1      -1.627   3.603  -5.743  0.00  0.00    +0.064 C 
ATOM      8  C   UNL     1      -2.253   2.663  -4.745  0.00  0.00    +0.033 A 
ATOM      9  C   UNL     1      -3.459   2.152  -4.992  0.00  0.00    +0.070 A 
ATOM     10  S   UNL     1      -3.731   1.139  -3.547  0.00  0.00    -0.057 S 
ATOM     11  C   UNL     1      -2.191   1.488  -2.726  0.00  0.00    +0.180 A 
ATOM     12  N   UNL     1      -1.572   2.347  -3.594  0.00  0.00    -0.259 N 
ATOM     13  C   UNL     1      -0.337   2.802  -3.225  0.00  0.00    +0.259 A 
ATOM     14  O   UNL     1       0.274   3.570  -3.951  0.00  0.00    -0.267 OA
ATOM     15  C   UNL     1       0.225   2.386  -2.017  0.00  0.00    +0.092 A 
ATOM     16  C   UNL     1      -0.470   1.518  -1.202  0.00  0.00    +0.033 A 
ATOM     17  N   UNL     1      -1.668   1.090  -1.593  0.00  0.00    -0.229 NA
ENDBRANCH   6  16
ENDBRANCH   1   6
BRANCH   1  18
ATOM     18  C   UNL     1      -0.406   0.834   2.459  0.00  0.00    -0.042 C 
BRANCH  18  19
ATOM     19  C   UNL     1      -1.424   1.199   3.508  0.00  0.00    -0.064 A 
ATOM     20  C   UNL     1      -1.191   2.266   4.355  0.00  0.00    +0.002 A 
ATOM     21  C   UNL     1      -2.127   2.604   5.315  0.00  0.00    +0.004 A 
ATOM     22  C   UNL     1      -3.292   1.869   5.433  0.00  0.00    -0.045 A 
ATOM     23  C   UNL     1      -3.522   0.798   4.589  0.00  0.00    +0.004 A 
ATOM     24  C   UNL     1      -2.588   0.463   3.627  0.00  0.00    +0.002 A 
BRANCH  22  25
ATOM     25  C   UNL     1      -4.311   2.235   6.481  0.00  0.00    +0.013 C 
ATOM     26  C   UNL     1      -3.672   2.140   7.868  0.00  0.00    +0.012 C 
ATOM     27  C   UNL     1      -4.798   3.665   6.241  0.00  0.00    +0.012 C 
ENDBRANCH  22  25
ENDBRANCH  18  19
ENDBRANCH   1  18
TORSDOF 6
