REMARK  Name = ZINC38519845
REMARK  6 active torsions:
REMARK  status: ('A' for Active; 'I' for Inactive)
REMARK    1  A    between atoms: C_1  and  N_2
REMARK    2  A    between atoms: C_8  and  C_10
REMARK    3  A    between atoms: C_10  and  C_11
REMARK    4  A    between atoms: C_11  and  C_12
REMARK    5  A    between atoms: C_11  and  C_18
REMARK    6  A    between atoms: C_24  and  C_30
REMARK                            x       y       z     vdW  Elec       q    Type
REMARK                         _______ _______ _______ _____ _____    ______ ____
ROOT
ATOM      1  C   UNL     1      -0.955   1.381   0.031  0.00  0.00    +0.174 C 
ATOM      2  N   UNL     1      -1.246  -0.051   0.136  0.00  0.00    -0.251 N 
ATOM      3  C   UNL     1      -1.833  -0.813  -0.806  0.00  0.00    +0.129 A 
ATOM      4  C   UNL     1      -1.907  -2.091  -0.322  0.00  0.00    +0.045 A 
ATOM      5  C   UNL     1      -1.359  -2.097   0.958  0.00  0.00    +0.153 A 
ATOM      6  N   UNL     1      -0.955  -0.875   1.235  0.00  0.00    -0.154 NA
ATOM      7  N   UNL     1      -1.252  -3.211   1.802  0.00  0.00    -0.269 N 
ATOM      8  C   UNL     1      -0.698  -3.080   3.023  0.00  0.00    +0.219 C 
ATOM      9  O   UNL     1      -0.292  -1.998   3.392  0.00  0.00    -0.275 OA
ATOM     10  C   UNL     1      -2.493  -3.226  -1.123  0.00  0.00    +0.100 C 
ATOM     11  C   UNL     1      -3.542  -2.648  -2.079  0.00  0.00    +0.112 C 
ATOM     12  C   UNL     1      -3.043  -1.394  -2.740  0.00  0.00    +0.219 C 
ATOM     13  O   UNL     1      -3.314  -1.196  -3.906  0.00  0.00    -0.275 OA
ATOM     14  N   UNL     1      -2.303  -0.480  -2.077  0.00  0.00    -0.270 N 
ATOM     15  H   UNL     1      -1.576  -4.076   1.507  0.00  0.00    +0.156 HD
ATOM     16  H   UNL     1      -2.102   0.382  -2.473  0.00  0.00    +0.156 HD
ENDROOT
BRANCH  10  17
ATOM     17  C   UNL     1      -3.142  -4.221  -0.197  0.00  0.00    +0.113 A 
ATOM     18  C   UNL     1      -2.801  -5.516  -0.069  0.00  0.00    +0.045 A 
ATOM     19  C   UNL     1      -3.663  -6.072   0.903  0.00  0.00    +0.041 A 
ATOM     20  C   UNL     1      -4.480  -5.084   1.312  0.00  0.00    +0.195 A 
ATOM     21  O   UNL     1      -4.155  -3.964   0.646  0.00  0.00    -0.467 OA
ENDBRANCH  10  17
BRANCH   8  22
ATOM     22  C   UNL     1      -0.582  -4.277   3.931  0.00  0.00    +0.109 C 
BRANCH  22  23
ATOM     23  C   UNL     1       0.079  -3.859   5.246  0.00  0.00    +0.058 C 
BRANCH  23  24
ATOM     24  C   UNL     1       0.083  -5.026   6.199  0.00  0.00    -0.040 A 
ATOM     25  C   UNL     1      -0.425  -4.878   7.476  0.00  0.00    +0.004 A 
ATOM     26  C   UNL     1      -0.421  -5.948   8.351  0.00  0.00    +0.000 A 
ATOM     27  C   UNL     1       0.091  -7.167   7.948  0.00  0.00    +0.000 A 
ATOM     28  C   UNL     1       0.599  -7.316   6.671  0.00  0.00    +0.000 A 
ATOM     29  C   UNL     1       0.591  -6.247   5.795  0.00  0.00    +0.004 A 
ENDBRANCH  23  24
BRANCH  23  30
ATOM     30  C   UNL     1       1.496  -3.422   4.979  0.00  0.00    -0.040 A 
ATOM     31  C   UNL     1       2.350  -4.243   4.266  0.00  0.00    +0.004 A 
ATOM     32  C   UNL     1       3.650  -3.842   4.022  0.00  0.00    +0.000 A 
ATOM     33  C   UNL     1       4.096  -2.621   4.490  0.00  0.00    +0.000 A 
ATOM     34  C   UNL     1       3.243  -1.800   5.203  0.00  0.00    +0.000 A 
ATOM     35  C   UNL     1       1.941  -2.199   5.444  0.00  0.00    +0.004 A 
ENDBRANCH  23  30
ENDBRANCH  22  23
ENDBRANCH   8  22
TORSDOF 5
