REMARK  Name = ZINC38680922
REMARK  12 active torsions:
REMARK  status: ('A' for Active; 'I' for Inactive)
REMARK    1  A    between atoms: C_1  and  O_2
REMARK    2  A    between atoms: O_2  and  C_3
REMARK    3  A    between atoms: C_5  and  C_13
REMARK    4  A    between atoms: C_8  and  O_9
REMARK    5  A    between atoms: O_9  and  C_10
REMARK    6  A    between atoms: C_10  and  C_11
REMARK    7  A    between atoms: C_18  and  O_27
REMARK    8  A    between atoms: C_22  and  N_26
REMARK    9  A    between atoms: C_23  and  C_24
REMARK   10  A    between atoms: O_27  and  C_28
REMARK   11  A    between atoms: C_28  and  C_30
REMARK   12  A    between atoms: C_31  and  C_32
REMARK                            x       y       z     vdW  Elec       q    Type
REMARK                         _______ _______ _______ _____ _____    ______ ____
ROOT
ATOM      1  C   UNL     1      -4.818   0.267   0.074  0.00  0.00    +0.098 C 
ATOM      2  C   UNL     1      -5.621  -0.066   1.303  0.00  0.00    +0.008 A 
ATOM      3  C   UNL     1      -5.189   0.380   2.540  0.00  0.00    +0.012 A 
ATOM      4  C   UNL     1      -5.913   0.084   3.678  0.00  0.00    +0.047 A 
ATOM      5  C   UNL     1      -7.079  -0.663   3.584  0.00  0.00    +0.135 A 
ATOM      6  C   UNL     1      -7.514  -1.111   2.347  0.00  0.00    +0.093 A 
ATOM      7  C   UNL     1      -6.784  -0.814   1.204  0.00  0.00    +0.138 A 
ATOM      8  O   UNL     1      -7.223  -1.260   0.001  0.00  0.00    -0.441 OA
ATOM      9  C   UNL     1      -6.782  -0.684  -1.129  0.00  0.00    +0.199 C 
ATOM     10  C   UNL     1      -5.649   0.051  -1.160  0.00  0.00    +0.098 C 
ENDROOT
BRANCH   1  13
ATOM     11  C   UNL     1      -1.217  -0.874  -0.023  0.00  0.00    +0.162 A 
ATOM     12  C   UNL     1      -2.337  -0.059   0.029  0.00  0.00    +0.054 A 
ATOM     13  C   UNL     1      -3.601  -0.620   0.017  0.00  0.00    -0.031 A 
ATOM     14  C   UNL     1      -3.750  -1.993  -0.045  0.00  0.00    +0.008 A 
ATOM     15  C   UNL     1      -2.637  -2.811  -0.097  0.00  0.00    +0.050 A 
ATOM     16  C   UNL     1      -1.368  -2.255  -0.092  0.00  0.00    +0.162 A 
BRANCH  11  18
ATOM     17  C   UNL     1       0.104   1.101   0.061  0.00  0.00    +0.277 C 
ATOM     18  O   UNL     1       0.026  -0.324  -0.012  0.00  0.00    -0.491 OA
ENDBRANCH  11  18
BRANCH  16  19
ATOM     19  O   UNL     1      -0.272  -3.058  -0.148  0.00  0.00    -0.484 OA
BRANCH  19  20
ATOM     20  C   UNL     1      -0.502  -4.467  -0.218  0.00  0.00    +0.256 C 
BRANCH  20  21
ATOM     21  C   UNL     1       0.818  -5.190  -0.274  0.00  0.00    +0.006 C 
ATOM     22  C   UNL     1       1.018  -6.248   0.472  0.00  0.00    +0.007 C 
ENDBRANCH  20  21
ENDBRANCH  19  20
ENDBRANCH  16  19
ENDBRANCH   1  13
BRANCH   9  23
ATOM     23  N   UNL     1      -7.502  -0.849  -2.286  0.00  0.00    -0.328 N 
ATOM     24  H   UNL     1      -8.317  -1.375  -2.279  0.00  0.00    +0.145 HD
ATOM     25  H   UNL     1      -7.196  -0.439  -3.111  0.00  0.00    +0.145 HD
ENDBRANCH   9  23
BRANCH  10  26
ATOM     26  C   UNL     1      -5.231   0.638  -2.398  0.00  0.00    +0.101 C 
ATOM     27  N   UNL     1      -4.901   1.103  -3.380  0.00  0.00    -0.191 NA
ENDBRANCH  10  26
BRANCH   5  28
ATOM     28  O   UNL     1      -7.792  -0.955   4.703  0.00  0.00    -0.423 OA
BRANCH  28  29
ATOM     29  C   UNL     1      -8.434   0.054   5.327  0.00  0.00    +0.337 C 
ATOM     30  O   UNL     1      -8.450   1.164   4.829  0.00  0.00    -0.245 OA
BRANCH  29  31
ATOM     31  C   UNL     1      -9.109  -0.185   6.601  0.00  0.00    +0.092 C 
ATOM     32  C   UNL     1      -9.750   0.825   7.225  0.00  0.00    +0.015 C 
BRANCH  32  33
ATOM     33  C   UNL     1     -10.430   0.584   8.508  0.00  0.00    -0.025 A 
ATOM     34  C   UNL     1     -10.408  -0.689   9.086  0.00  0.00    +0.009 A 
ATOM     35  C   UNL     1     -11.046  -0.908  10.288  0.00  0.00    +0.020 A 
ATOM     36  C   UNL     1     -11.710   0.130  10.923  0.00  0.00    +0.041 A 
ATOM     37  C   UNL     1     -11.736   1.394  10.355  0.00  0.00    +0.020 A 
ATOM     38  C   UNL     1     -11.096   1.629   9.157  0.00  0.00    +0.009 A 
ATOM     39 CL   UNL     1     -12.512  -0.154  12.436  0.00  0.00    -0.084 Cl
ENDBRANCH  32  33
ENDBRANCH  29  31
ENDBRANCH  28  29
ENDBRANCH   5  28
TORSDOF 11
