REMARK  Name = ZINC33923891
REMARK  4 active torsions:
REMARK  status: ('A' for Active; 'I' for Inactive)
REMARK    1  A    between atoms: C_4  and  C_7
REMARK    2  A    between atoms: C_9  and  C_31
REMARK    3  A    between atoms: C_22  and  C_24
REMARK    4  A    between atoms: C_24  and  C_26
REMARK                            x       y       z     vdW  Elec       q    Type
REMARK                         _______ _______ _______ _____ _____    ______ ____
ROOT
ATOM      1  C   UNL     1       3.377  -0.636  -0.172  0.00  0.00    +0.066 C 
ATOM      2  C   UNL     1       3.509  -1.475   1.128  0.00  0.00    +0.185 C 
ATOM      3  N   UNL     1       4.718  -2.272   0.903  0.00  0.00    -0.312 N 
ATOM      4  C   UNL     1       5.672  -2.675   1.821  0.00  0.00    +0.072 C 
ATOM      5  C   UNL     1       6.950  -2.679   1.391  0.00  0.00    +0.023 C 
ATOM      6  C   UNL     1       7.250  -2.242   0.012  0.00  0.00    -0.019 A 
ATOM      7  C   UNL     1       8.554  -1.890  -0.343  0.00  0.00    +0.008 A 
ATOM      8  C   UNL     1       8.828  -1.486  -1.634  0.00  0.00    +0.001 A 
ATOM      9  C   UNL     1       7.817  -1.430  -2.577  0.00  0.00    +0.000 A 
ATOM     10  C   UNL     1       6.521  -1.776  -2.233  0.00  0.00    +0.006 A 
ATOM     11  C   UNL     1       6.234  -2.177  -0.949  0.00  0.00    -0.019 A 
ATOM     12  C   UNL     1       4.832  -2.549  -0.544  0.00  0.00    +0.116 C 
ATOM     13  C   UNL     1       3.797  -1.662  -1.258  0.00  0.00    +0.096 C 
ENDROOT
BRANCH   1  17
ATOM     14  C   UNL     1      -0.654   0.648  -0.763  0.00  0.00    +0.000 A 
ATOM     15  C   UNL     1       0.369   1.577  -0.726  0.00  0.00    +0.000 A 
ATOM     16  C   UNL     1       1.673   1.162  -0.535  0.00  0.00    +0.004 A 
ATOM     17  C   UNL     1       1.955  -0.183  -0.380  0.00  0.00    -0.041 A 
ATOM     18  C   UNL     1       0.932  -1.112  -0.416  0.00  0.00    +0.004 A 
ATOM     19  C   UNL     1      -0.372  -0.697  -0.609  0.00  0.00    +0.000 A 
ENDBRANCH   1  17
BRANCH  13  20
ATOM     20  C   UNL     1       4.422  -0.961  -2.436  0.00  0.00    +0.175 C 
ATOM     21  O   UNL     1       5.168  -0.020  -2.256  0.00  0.00    -0.291 OA
BRANCH  20  22
ATOM     22  C   UNL     1       4.141  -1.398  -3.749  0.00  0.00    +0.055 A 
ATOM     23  C   UNL     1       4.612  -0.900  -4.960  0.00  0.00    +0.019 A 
ATOM     24  C   UNL     1       4.156  -1.540  -6.084  0.00  0.00    +0.008 A 
ATOM     25  C   UNL     1       3.300  -2.585  -5.948  0.00  0.00    +0.046 A 
ATOM     26  S   UNL     1       3.095  -2.738  -4.287  0.00  0.00    -0.094 S 
ENDBRANCH  20  22
ENDBRANCH  13  20
BRANCH   2  27
ATOM     27  C   UNL     1       3.674  -0.596   2.297  0.00  0.00    +0.086 C 
ATOM     28  N   UNL     1       3.801   0.082   3.200  0.00  0.00    -0.195 NA
ENDBRANCH   2  27
TORSDOF 4
