REMARK  Name = ZINC36896024
REMARK  2 active torsions:
REMARK  status: ('A' for Active; 'I' for Inactive)
REMARK    1  A    between atoms: C_8  and  C_11
REMARK    2  A    between atoms: N_19  and  C_20
REMARK                            x       y       z     vdW  Elec       q    Type
REMARK                         _______ _______ _______ _____ _____    ______ ____
ROOT
ATOM      1  C   UNL     1       3.601  -2.920  -1.271  0.00  0.00    +0.132 A 
ATOM      2  N   UNL     1       3.594  -2.407  -2.466  0.00  0.00    -0.230 NA
ATOM      3  C   UNL     1       3.981  -3.346  -3.368  0.00  0.00    +0.089 A 
ATOM      4  C   UNL     1       4.146  -3.339  -4.756  0.00  0.00    +0.030 A 
ATOM      5  C   UNL     1       4.558  -4.473  -5.398  0.00  0.00    +0.002 A 
ATOM      6  C   UNL     1       4.815  -5.636  -4.686  0.00  0.00    +0.002 A 
ATOM      7  C   UNL     1       4.659  -5.666  -3.316  0.00  0.00    +0.028 A 
ATOM      8  C   UNL     1       4.241  -4.524  -2.647  0.00  0.00    +0.069 A 
ATOM      9  N   UNL     1       3.997  -4.221  -1.322  0.00  0.00    -0.323 N 
ENDROOT
BRANCH   1  17
ATOM     10  C   UNL     1       0.397   1.619   0.151  0.00  0.00    +0.000 A 
ATOM     11  C   UNL     1       1.625   2.249   0.080  0.00  0.00    +0.002 A 
ATOM     12  C   UNL     1       2.784   1.506   0.013  0.00  0.00    +0.023 A 
ATOM     13  C   UNL     1       2.727   0.111   0.016  0.00  0.00    +0.031 A 
ATOM     14  C   UNL     1       1.491  -0.512   0.088  0.00  0.00    -0.024 A 
ATOM     15  C   UNL     1       0.332   0.238   0.155  0.00  0.00    +0.005 A 
ATOM     16  C   UNL     1       1.705  -2.009   0.076  0.00  0.00    +0.067 C 
ATOM     17  C   UNL     1       3.230  -2.180  -0.012  0.00  0.00    +0.141 C 
ATOM     18  N   UNL     1       3.768  -0.817  -0.043  0.00  0.00    -0.334 N 
ATOM     19  H   UNL     1       4.710  -0.593  -0.099  0.00  0.00    +0.147 HD
ENDBRANCH   1  17
BRANCH   9  20
ATOM     20  C   UNL     1       4.137  -5.131  -0.183  0.00  0.00    +0.089 C 
ATOM     21  C   UNL     1       3.531  -6.530  -0.319  0.00  0.00    +0.027 C 
ATOM     22  C   UNL     1       2.868  -5.494   0.591  0.00  0.00    +0.027 C 
ENDBRANCH   9  20
TORSDOF 2
