REMARK  Name = ZINC20906183
REMARK  8 active torsions:
REMARK  status: ('A' for Active; 'I' for Inactive)
REMARK    1  A    between atoms: C_1  and  C_2
REMARK    2  A    between atoms: C_2  and  C_3
REMARK    3  A    between atoms: C_2  and  C_4
REMARK    4  A    between atoms: C_4  and  C_5
REMARK    5  A    between atoms: C_5  and  C_7
REMARK    6  A    between atoms: C_5  and  O_26
REMARK    7  A    between atoms: N_14  and  C_18
REMARK    8  A    between atoms: C_18  and  C_19
REMARK                            x       y       z     vdW  Elec       q    Type
REMARK                         _______ _______ _______ _____ _____    ______ ____
ROOT
ATOM      1  C   UNL     1      -0.028   1.389   0.043  0.00  0.00    -0.019 A 
ATOM      2  C   UNL     1      -0.000   0.009   0.125  0.00  0.00    +0.010 A 
ATOM      3  C   UNL     1       1.207  -0.663   0.111  0.00  0.00    +0.046 A 
ATOM      4  C   UNL     1       2.391   0.053   0.015  0.00  0.00    +0.122 A 
ATOM      5  C   UNL     1       2.359   1.433  -0.051  0.00  0.00    -0.022 A 
ATOM      6  C   UNL     1       1.153   2.104  -0.046  0.00  0.00    +0.011 A 
ATOM      7  C   UNL     1       3.661   2.208  -0.104  0.00  0.00    -0.039 C 
ATOM      8  N   UNL     1       4.309   1.956  -1.396  0.00  0.00    +0.385 N 
ATOM      9  C   UNL     1       5.099   0.727  -1.395  0.00  0.00    -0.037 C 
ATOM     10  C   UNL     1       4.262  -0.531  -1.302  0.00  0.00    +0.210 C 
ATOM     11  O   UNL     1       3.585  -0.599  -0.041  0.00  0.00    -0.494 OA
ATOM     12  H   UNL     1       3.506   1.810  -2.133  0.00  0.00    -0.081 HD
ENDROOT
BRANCH   1  13
ATOM     13  C   UNL     1      -1.349   2.116   0.043  0.00  0.00    +0.145 C 
BRANCH  13  14
ATOM     14  O   UNL     1      -2.233   1.496   0.978  0.00  0.00    -0.387 OA
ATOM     15  H   UNL     1      -1.960   1.442   2.042  0.00  0.00    +0.210 HD
ENDBRANCH  13  14
BRANCH  13  16
ATOM     16  C   UNL     1      -1.963   2.058  -1.357  0.00  0.00    +0.039 C 
BRANCH  16  18
ATOM     17  C   UNL     1      -2.892   4.370  -1.181  0.00  0.00    +0.007 C 
ATOM     18  C   UNL     1      -3.243   2.896  -1.387  0.00  0.00    -0.014 C 
ATOM     19  C   UNL     1      -3.935   2.721  -2.741  0.00  0.00    +0.007 C 
ENDBRANCH  16  18
ENDBRANCH  13  16
ENDBRANCH   1  13
BRANCH   8  20
ATOM     20  C   UNL     1       5.125   3.106  -1.809  0.00  0.00    -0.074 C 
BRANCH  20  21
ATOM     21  C   UNL     1       5.580   2.914  -3.257  0.00  0.00    -0.024 C 
ATOM     22  C   UNL     1       6.524   4.055  -3.656  0.00  0.00    +0.006 C 
ATOM     23  C   UNL     1       7.101   3.744  -5.039  0.00  0.00    +0.027 C 
ATOM     24  C   UNL     1       5.998   3.377  -5.988  0.00  0.00    -0.031 C 
ATOM     25  C   UNL     1       4.809   3.025  -5.617  0.00  0.00    -0.031 C 
ATOM     26  C   UNL     1       4.364   2.940  -4.186  0.00  0.00    +0.028 C 
ENDBRANCH  20  21
ENDBRANCH   8  20
TORSDOF 6
