REMARK  Name = ZINC65319698
REMARK  10 active torsions:
REMARK  status: ('A' for Active; 'I' for Inactive)
REMARK    1  A    between atoms: C_1  and  C_2
REMARK    2  A    between atoms: C_2  and  C_3
REMARK    3  A    between atoms: C_3  and  N_4
REMARK    4  A    between atoms: C_10  and  S_11
REMARK    5  A    between atoms: S_11  and  C_12
REMARK    6  A    between atoms: C_12  and  C_13
REMARK    7  A    between atoms: N_15  and  C_16
REMARK    8  A    between atoms: C_16  and  C_17
REMARK    9  A    between atoms: C_17  and  C_18
REMARK   10  A    between atoms: C_30  and  C_33
REMARK                            x       y       z     vdW  Elec       q    Type
REMARK                         _______ _______ _______ _____ _____    ______ ____
ROOT
ATOM      1  N   UNL     1       0.738  -1.962  -1.265  0.00  0.00    -0.287 N 
ATOM      2  C   UNL     1       1.763  -2.637  -0.688  0.00  0.00    +0.271 A 
ATOM      3  O   UNL     1       2.684  -2.041  -0.154  0.00  0.00    -0.266 OA
ATOM      4  C   UNL     1       1.735  -4.021  -0.722  0.00  0.00    +0.124 A 
ATOM      5  C   UNL     1       0.679  -4.724  -1.334  0.00  0.00    +0.177 A 
ATOM      6  N   UNL     1      -0.308  -3.970  -1.888  0.00  0.00    -0.203 NA
ATOM      7  C   UNL     1      -0.278  -2.663  -1.848  0.00  0.00    +0.174 A 
ATOM      8  N   UNL     1       0.812  -6.050  -1.276  0.00  0.00    -0.205 NA
ATOM      9  C   UNL     1       1.843  -6.625  -0.695  0.00  0.00    +0.164 A 
ATOM     10  S   UNL     1       2.775  -5.335  -0.146  0.00  0.00    -0.045 S 
ATOM     11  N   UNL     1       2.100  -7.973  -0.566  0.00  0.00    -0.310 N 
ATOM     12  C   UNL     1       3.309  -8.441   0.126  0.00  0.00    +0.107 C 
ATOM     13  C   UNL     1       2.898  -9.428   1.223  0.00  0.00    +0.022 C 
ATOM     14  C   UNL     1       2.053 -10.546   0.608  0.00  0.00    -0.011 C 
ATOM     15  C   UNL     1       0.783  -9.950  -0.005  0.00  0.00    +0.022 C 
ATOM     16  C   UNL     1       1.167  -8.969  -1.111  0.00  0.00    +0.107 C 
ATOM     17  C   UNL     1       1.669 -11.552   1.694  0.00  0.00    +0.007 C 
ENDROOT
BRANCH   1  18
ATOM     18  C   UNL     1       0.718  -0.497  -1.257  0.00  0.00    +0.127 C 
BRANCH  18  20
ATOM     19  C   UNL     1      -0.019   1.526   0.010  0.00  0.00    +0.005 C 
ATOM     20  C   UNL     1       0.002  -0.004   0.002  0.00  0.00    +0.018 C 
ENDBRANCH  18  20
ENDBRANCH   1  18
BRANCH   7  21
ATOM     21  S   UNL     1      -1.604  -1.767  -2.586  0.00  0.00    -0.078 S 
BRANCH  21  22
ATOM     22  C   UNL     1      -2.705  -3.059  -3.224  0.00  0.00    +0.173 C 
BRANCH  22  23
ATOM     23  C   UNL     1      -3.897  -2.420  -3.889  0.00  0.00    +0.223 C 
ATOM     24  O   UNL     1      -3.994  -1.212  -3.929  0.00  0.00    -0.275 OA
ATOM     25  N   UNL     1      -4.855  -3.192  -4.440  0.00  0.00    -0.314 N 
ATOM     26  H   UNL     1      -4.777  -4.158  -4.409  0.00  0.00    +0.149 HD
BRANCH  25  27
ATOM     27  C   UNL     1      -6.013  -2.570  -5.087  0.00  0.00    +0.108 C 
BRANCH  27  28
ATOM     28  C   UNL     1      -6.942  -3.660  -5.625  0.00  0.00    +0.049 C 
BRANCH  28  29
ATOM     29  C   UNL     1      -8.134  -3.021  -6.291  0.00  0.00    -0.072 C 
ATOM     30  C   UNL     1      -8.092  -2.846  -7.572  0.00  0.00    -0.028 C 
ATOM     31  C   UNL     1      -9.195  -2.216  -8.371  0.00  0.00    +0.027 C 
ATOM     32  C   UNL     1     -10.494  -2.209  -7.563  0.00  0.00    +0.004 C 
ATOM     33  C   UNL     1     -10.196  -1.639  -6.170  0.00  0.00    +0.005 C 
ATOM     34  C   UNL     1      -9.298  -2.633  -5.426  0.00  0.00    +0.030 C 
ENDBRANCH  28  29
ENDBRANCH  27  28
ENDBRANCH  25  27
ENDBRANCH  22  23
ENDBRANCH  21  22
ENDBRANCH   7  21
TORSDOF 8
