REMARK  Name = ZINC36545044
REMARK  7 active torsions:
REMARK  status: ('A' for Active; 'I' for Inactive)
REMARK    1  A    between atoms: C_5  and  N_7
REMARK    2  A    between atoms: N_7  and  C_8
REMARK    3  A    between atoms: C_8  and  C_10
REMARK    4  A    between atoms: C_8  and  C_15
REMARK    5  A    between atoms: N_17  and  C_18
REMARK    6  A    between atoms: C_24  and  C_26
REMARK    7  A    between atoms: C_29  and  O_32
REMARK                            x       y       z     vdW  Elec       q    Type
REMARK                         _______ _______ _______ _____ _____    ______ ____
ROOT
ATOM      1  N   UNL     1       0.755  -2.057  -0.043  0.00  0.00    -0.247 N 
ATOM      2  C   UNL     1       1.376  -2.546   1.049  0.00  0.00    +0.252 C 
ATOM      3  O   UNL     1       1.919  -3.633   1.004  0.00  0.00    -0.270 OA
ENDROOT
BRANCH   1   8
ATOM      4  C   UNL     1       0.396   1.572  -0.511  0.00  0.00    +0.002 A 
ATOM      5  C   UNL     1      -0.862   1.782   0.025  0.00  0.00    +0.002 A 
ATOM      6  C   UNL     1      -1.585   0.721   0.538  0.00  0.00    +0.022 A 
ATOM      7  C   UNL     1      -1.052  -0.554   0.518  0.00  0.00    +0.062 A 
ATOM      8  C   UNL     1       0.212  -0.768  -0.020  0.00  0.00    +0.056 A 
ATOM      9  C   UNL     1       0.935   0.300  -0.534  0.00  0.00    +0.025 A 
ATOM     10 CL   UNL     1      -1.959  -1.886   1.163  0.00  0.00    -0.082 Cl
ENDBRANCH   1   8
BRANCH   2  11
ATOM     11  C   UNL     1       1.398  -1.762   2.299  0.00  0.00    +0.037 A 
ATOM     12  C   UNL     1       1.105  -2.378   3.518  0.00  0.00    +0.016 A 
ATOM     13  C   UNL     1       1.127  -1.643   4.682  0.00  0.00    +0.046 A 
ATOM     14  C   UNL     1       1.439  -0.289   4.646  0.00  0.00    +0.117 A 
ATOM     15  C   UNL     1       1.731   0.328   3.435  0.00  0.00    +0.046 A 
ATOM     16  C   UNL     1       1.717  -0.402   2.267  0.00  0.00    +0.016 A 
BRANCH  14  17
ATOM     17  O   UNL     1       1.459   0.432   5.795  0.00  0.00    -0.507 OA
ATOM     18  H   UNL     1       2.319   0.447   6.236  0.00  0.00    +0.292 HD
ENDBRANCH  14  17
ENDBRANCH   2  11
BRANCH   1  19
ATOM     19  C   UNL     1       0.648  -2.876  -1.253  0.00  0.00    +0.233 C 
BRANCH  19  20
ATOM     20  C   UNL     1      -0.790  -2.925  -1.700  0.00  0.00    +0.135 A 
ATOM     21  C   UNL     1      -1.429  -4.008  -2.179  0.00  0.00    +0.047 A 
ATOM     22  C   UNL     1      -2.752  -3.607  -2.473  0.00  0.00    +0.041 A 
ATOM     23  C   UNL     1      -2.843  -2.302  -2.157  0.00  0.00    +0.195 A 
ATOM     24  O   UNL     1      -1.653  -1.896  -1.684  0.00  0.00    -0.465 OA
ENDBRANCH  19  20
BRANCH  19  25
ATOM     25  C   UNL     1       1.494  -2.272  -2.344  0.00  0.00    +0.242 C 
ATOM     26  O   UNL     1       2.084  -1.232  -2.148  0.00  0.00    -0.273 OA
ATOM     27  N   UNL     1       1.593  -2.889  -3.538  0.00  0.00    -0.311 N 
ATOM     28  H   UNL     1       1.121  -3.721  -3.695  0.00  0.00    +0.149 HD
BRANCH  27  29
ATOM     29  C   UNL     1       2.416  -2.302  -4.599  0.00  0.00    +0.073 C 
ATOM     30  C   UNL     1       1.593  -1.266  -5.368  0.00  0.00    +0.022 C 
ATOM     31  C   UNL     1       2.451  -0.653  -6.476  0.00  0.00    +0.002 C 
ATOM     32  C   UNL     1       2.909  -1.754  -7.435  0.00  0.00    +0.000 C 
ATOM     33  C   UNL     1       3.732  -2.790  -6.666  0.00  0.00    +0.002 C 
ATOM     34  C   UNL     1       2.873  -3.403  -5.558  0.00  0.00    +0.022 C 
ENDBRANCH  27  29
ENDBRANCH  19  25
ENDBRANCH   1  19
TORSDOF 7
