REMARK  Name = ZINC38683500
REMARK  12 active torsions:
REMARK  status: ('A' for Active; 'I' for Inactive)
REMARK    1  A    between atoms: C_1  and  O_2
REMARK    2  A    between atoms: O_2  and  C_3
REMARK    3  A    between atoms: C_3  and  C_5
REMARK    4  A    between atoms: C_8  and  C_11
REMARK    5  A    between atoms: C_16  and  O_25
REMARK    6  A    between atoms: C_20  and  N_24
REMARK    7  A    between atoms: C_21  and  C_22
REMARK    8  A    between atoms: O_25  and  C_26
REMARK    9  A    between atoms: C_26  and  C_28
REMARK   10  A    between atoms: C_31  and  O_34
REMARK   11  A    between atoms: O_34  and  C_35
REMARK   12  A    between atoms: C_35  and  C_36
REMARK                            x       y       z     vdW  Elec       q    Type
REMARK                         _______ _______ _______ _____ _____    ______ ____
ROOT
ATOM      1  C   UNL     1      -1.470  -6.368  -0.046  0.00  0.00    +0.098 C 
ATOM      2  C   UNL     1      -2.172  -6.848   1.197  0.00  0.00    +0.008 A 
ATOM      3  C   UNL     1      -1.470  -6.929   2.387  0.00  0.00    +0.012 A 
ATOM      4  C   UNL     1      -2.097  -7.367   3.536  0.00  0.00    +0.047 A 
ATOM      5  C   UNL     1      -3.437  -7.729   3.501  0.00  0.00    +0.135 A 
ATOM      6  C   UNL     1      -4.142  -7.649   2.311  0.00  0.00    +0.093 A 
ATOM      7  C   UNL     1      -3.510  -7.208   1.156  0.00  0.00    +0.138 A 
ATOM      8  O   UNL     1      -4.214  -7.135  -0.001  0.00  0.00    -0.441 OA
ATOM      9  C   UNL     1      -3.568  -7.094  -1.177  0.00  0.00    +0.199 C 
ATOM     10  C   UNL     1      -2.268  -6.737  -1.265  0.00  0.00    +0.098 C 
ENDROOT
BRANCH   1  14
ATOM     11  C   UNL     1      -1.032  -2.118   0.127  0.00  0.00    +0.059 A 
ATOM     12  C   UNL     1       0.096  -2.937   0.046  0.00  0.00    +0.015 A 
ATOM     13  C   UNL     1      -0.052  -4.307  -0.010  0.00  0.00    +0.005 A 
ATOM     14  C   UNL     1      -1.316  -4.870   0.015  0.00  0.00    -0.035 A 
ATOM     15  C   UNL     1      -2.438  -4.065   0.095  0.00  0.00    +0.005 A 
ATOM     16  C   UNL     1      -2.304  -2.694   0.157  0.00  0.00    +0.015 A 
BRANCH  11  17
ATOM     17  C   UNL     1      -0.881  -0.650   0.186  0.00  0.00    +0.339 C 
ATOM     18  O   UNL     1      -1.864   0.060   0.262  0.00  0.00    -0.245 OA
BRANCH  17  20
ATOM     19  C   UNL     1       0.419   1.329   0.218  0.00  0.00    +0.280 C 
ATOM     20  O   UNL     1       0.348  -0.097   0.157  0.00  0.00    -0.464 OA
ENDBRANCH  17  20
ENDBRANCH  11  17
ENDBRANCH   1  14
BRANCH   9  21
ATOM     21  N   UNL     1      -4.249  -7.422  -2.323  0.00  0.00    -0.328 N 
ATOM     22  H   UNL     1      -5.183  -7.679  -2.276  0.00  0.00    +0.145 HD
ATOM     23  H   UNL     1      -3.796  -7.397  -3.181  0.00  0.00    +0.145 HD
ENDBRANCH   9  21
BRANCH  10  24
ATOM     24  C   UNL     1      -1.637  -6.712  -2.550  0.00  0.00    +0.101 C 
ATOM     25  N   UNL     1      -1.137  -6.692  -3.570  0.00  0.00    -0.191 NA
ENDBRANCH  10  24
BRANCH   5  26
ATOM     26  O   UNL     1      -4.055  -8.160   4.631  0.00  0.00    -0.422 OA
BRANCH  26  27
ATOM     27  C   UNL     1      -4.412  -9.458   4.701  0.00  0.00    +0.344 C 
ATOM     28  O   UNL     1      -4.088 -10.226   3.818  0.00  0.00    -0.245 OA
BRANCH  27  29
ATOM     29  C   UNL     1      -5.198  -9.945   5.850  0.00  0.00    +0.060 A 
ATOM     30  C   UNL     1      -5.577  -9.062   6.865  0.00  0.00    +0.018 A 
ATOM     31  C   UNL     1      -6.311  -9.521   7.936  0.00  0.00    +0.046 A 
ATOM     32  C   UNL     1      -6.674 -10.861   8.009  0.00  0.00    +0.121 A 
ATOM     33  C   UNL     1      -6.298 -11.743   7.002  0.00  0.00    +0.046 A 
ATOM     34  C   UNL     1      -5.569 -11.291   5.925  0.00  0.00    +0.018 A 
BRANCH  32  35
ATOM     35  O   UNL     1      -7.397 -11.310   9.066  0.00  0.00    -0.488 OA
BRANCH  35  36
ATOM     36  C   UNL     1      -7.735 -12.698   9.078  0.00  0.00    +0.256 C 
BRANCH  36  37
ATOM     37  C   UNL     1      -8.532 -13.010  10.319  0.00  0.00    +0.006 C 
ATOM     38  C   UNL     1      -9.609 -13.751  10.236  0.00  0.00    +0.007 C 
ENDBRANCH  36  37
ENDBRANCH  35  36
ENDBRANCH  32  35
ENDBRANCH  27  29
ENDBRANCH  26  27
ENDBRANCH   5  26
TORSDOF 11
