REMARK  Name = ZINC07987563
REMARK  7 active torsions:
REMARK  status: ('A' for Active; 'I' for Inactive)
REMARK    1  A    between atoms: C_4  and  C_7
REMARK    2  A    between atoms: C_7  and  C_8
REMARK    3  A    between atoms: C_8  and  C_10
REMARK    4  A    between atoms: C_8  and  N_20
REMARK    5  A    between atoms: C_21  and  C_23
REMARK    6  A    between atoms: C_23  and  C_24
REMARK    7  A    between atoms: C_24  and  C_25
REMARK                            x       y       z     vdW  Elec       q    Type
REMARK                         _______ _______ _______ _____ _____    ______ ____
ROOT
ATOM      1  C   UNL     1       6.453  -0.116  -2.669  0.00  0.00    +0.143 C 
ENDROOT
BRANCH   1   2
ATOM      2  C   UNL     1       7.404   1.047  -2.548  0.00  0.00    +0.129 A 
ATOM      3  N   UNL     1       7.032   2.340  -2.345  0.00  0.00    -0.340 N 
ATOM      4  H   UNL     1       6.097   2.680  -2.251  0.00  0.00    +0.167 HD
ATOM      5  C   UNL     1       8.187   3.095  -2.291  0.00  0.00    +0.066 A 
ATOM      6  C   UNL     1       8.451   4.446  -2.110  0.00  0.00    +0.028 A 
ATOM      7  C   UNL     1       9.755   4.893  -2.108  0.00  0.00    +0.002 A 
ATOM      8  C   UNL     1      10.804   4.002  -2.286  0.00  0.00    +0.002 A 
ATOM      9  C   UNL     1      10.563   2.669  -2.466  0.00  0.00    +0.030 A 
ATOM     10  C   UNL     1       9.249   2.193  -2.471  0.00  0.00    +0.089 A 
ATOM     11  N   UNL     1       8.700   0.960  -2.617  0.00  0.00    -0.231 NA
ENDBRANCH   1   2
BRANCH   1  12
ATOM     12  N   UNL     1       5.074   0.378  -2.653  0.00  0.00    -0.305 N 
ATOM     13  C   UNL     1       4.450   0.599  -1.479  0.00  0.00    +0.214 C 
ATOM     14  O   UNL     1       5.031   0.390  -0.435  0.00  0.00    -0.276 OA
ATOM     15  H   UNL     1       4.609   0.546  -3.488  0.00  0.00    +0.149 HD
BRANCH  13  16
ATOM     16  C   UNL     1       3.031   1.107  -1.463  0.00  0.00    +0.101 C 
BRANCH  16  17
ATOM     17  C   UNL     1       2.565   1.272  -0.015  0.00  0.00    +0.051 C 
BRANCH  17  18
ATOM     18  C   UNL     1       1.146   1.780   0.001  0.00  0.00    -0.010 A 
ATOM     19  C   UNL     1      -0.013   1.076   0.008  0.00  0.00    +0.011 A 
ATOM     20  C   UNL     1      -1.213   1.761   0.017  0.00  0.00    +0.008 A 
ATOM     21  C   UNL     1      -1.196   3.116   0.030  0.00  0.00    +0.045 A 
ATOM     22  S   UNL     1       0.555   3.464   0.015  0.00  0.00    -0.102 S 
ENDBRANCH  17  18
ENDBRANCH  16  17
ENDBRANCH  13  16
ENDBRANCH   1  12
BRANCH   1  23
ATOM     23  C   UNL     1       6.715  -0.855  -3.982  0.00  0.00    +0.065 C 
BRANCH  23  27
ATOM     24  C   UNL     1       4.263  -4.348  -4.166  0.00  0.00    +0.000 A 
ATOM     25  C   UNL     1       3.795  -3.147  -4.666  0.00  0.00    +0.000 A 
ATOM     26  C   UNL     1       4.588  -2.017  -4.607  0.00  0.00    +0.004 A 
ATOM     27  C   UNL     1       5.850  -2.087  -4.047  0.00  0.00    -0.045 A 
ATOM     28  C   UNL     1       6.320  -3.288  -3.551  0.00  0.00    +0.004 A 
ATOM     29  C   UNL     1       5.525  -4.418  -3.606  0.00  0.00    +0.000 A 
ENDBRANCH  23  27
ENDBRANCH   1  23
TORSDOF 7
