REMARK  Name = ZINC20756745
REMARK  9 active torsions:
REMARK  status: ('A' for Active; 'I' for Inactive)
REMARK    1  A    between atoms: C_1  and  N_2
REMARK    2  A    between atoms: C_15  and  C_17
REMARK    3  A    between atoms: N_23  and  C_26
REMARK    4  A    between atoms: C_28  and  O_36
REMARK    5  A    between atoms: C_29  and  O_34
REMARK    6  A    between atoms: C_30  and  O_32
REMARK    7  A    between atoms: O_32  and  C_33
REMARK    8  A    between atoms: O_34  and  C_35
REMARK    9  A    between atoms: O_36  and  C_37
REMARK                            x       y       z     vdW  Elec       q    Type
REMARK                         _______ _______ _______ _____ _____    ______ ____
ROOT
ATOM      1  C   UNL     1       2.186   0.457   0.686  0.00  0.00    +0.074 A 
ATOM      2  C   UNL     1       2.930  -0.515  -0.007  0.00  0.00    +0.260 A 
ATOM      3  N   UNL     1       4.218  -0.728   0.327  0.00  0.00    -0.274 N 
ATOM      4  H   UNL     1       4.734  -1.397  -0.149  0.00  0.00    +0.173 HD
ATOM      5  C   UNL     1       4.794  -0.021   1.316  0.00  0.00    +0.337 A 
ATOM      6  O   UNL     1       5.957  -0.228   1.602  0.00  0.00    -0.246 OA
ATOM      7  N   UNL     1       4.102   0.914   1.992  0.00  0.00    -0.229 N 
ATOM      8  C   UNL     1       2.788   1.167   1.681  0.00  0.00    +0.267 A 
ATOM      9  O   UNL     1       2.098   2.110   2.358  0.00  0.00    -0.267 OA
ATOM     10  O   UNL     1       2.414  -1.159  -0.903  0.00  0.00    -0.267 OA
ENDROOT
BRANCH   1  25
ATOM     11  C   UNL     1       1.291   2.304  -1.379  0.00  0.00    -0.095 C 
ATOM     12  N   UNL     1       0.637   1.018  -1.105  0.00  0.00    +0.387 N 
ATOM     13  C   UNL     1      -0.775   1.095  -1.504  0.00  0.00    -0.073 C 
ATOM     14  C   UNL     1      -1.380  -0.316  -1.522  0.00  0.00    +0.019 C 
ATOM     15  C   UNL     1      -1.032  -0.984  -0.215  0.00  0.00    -0.022 A 
ATOM     16  C   UNL     1      -1.595  -2.170   0.390  0.00  0.00    +0.003 A 
ATOM     17  C   UNL     1      -2.599  -3.057  -0.009  0.00  0.00    +0.010 A 
ATOM     18  C   UNL     1      -2.879  -4.101   0.838  0.00  0.00    +0.001 A 
ATOM     19  C   UNL     1      -2.206  -4.278   2.035  0.00  0.00    +0.002 A 
ATOM     20  C   UNL     1      -1.208  -3.416   2.455  0.00  0.00    +0.026 A 
ATOM     21  C   UNL     1      -0.901  -2.347   1.616  0.00  0.00    +0.047 A 
ATOM     22  N   UNL     1       0.006  -1.332   1.722  0.00  0.00    -0.359 N 
ATOM     23  H   UNL     1       0.618  -1.205   2.464  0.00  0.00    +0.166 HD
ATOM     24  C   UNL     1      -0.077  -0.521   0.623  0.00  0.00    +0.011 A 
ATOM     25  C   UNL     1       0.744   0.712   0.330  0.00  0.00    +0.021 C 
ATOM     26  H   UNL     1       1.093   0.291  -1.637  0.00  0.00    -0.081 HD
ENDBRANCH   1  25
BRANCH   7  27
ATOM     27  C   UNL     1       4.727   1.638   3.018  0.00  0.00    +0.062 A 
ATOM     28  C   UNL     1       5.380   2.828   2.729  0.00  0.00    +0.076 A 
ATOM     29  C   UNL     1       5.997   3.544   3.742  0.00  0.00    +0.167 A 
ATOM     30  C   UNL     1       5.963   3.070   5.048  0.00  0.00    +0.204 A 
ATOM     31  C   UNL     1       5.308   1.878   5.337  0.00  0.00    +0.167 A 
ATOM     32  C   UNL     1       4.687   1.166   4.323  0.00  0.00    +0.076 A 
BRANCH  31  33
ATOM     33  O   UNL     1       5.273   1.413   6.615  0.00  0.00    -0.491 OA
ATOM     34  C   UNL     1       4.583   0.182   6.838  0.00  0.00    +0.277 C 
ENDBRANCH  31  33
BRANCH  30  35
ATOM     35  O   UNL     1       6.569   3.772   6.044  0.00  0.00    -0.488 OA
ATOM     36  C   UNL     1       5.779   4.750   6.723  0.00  0.00    +0.277 C 
ENDBRANCH  30  35
BRANCH  29  37
ATOM     37  O   UNL     1       6.638   4.710   3.458  0.00  0.00    -0.491 OA
ATOM     38  C   UNL     1       6.634   5.136   2.095  0.00  0.00    +0.277 C 
ENDBRANCH  29  37
ENDBRANCH   7  27
TORSDOF 5
