REMARK  Name = ZINC37297099
REMARK  5 active torsions:
REMARK  status: ('A' for Active; 'I' for Inactive)
REMARK    1  A    between atoms: C_1  and  C_2
REMARK    2  A    between atoms: C_7  and  C_11
REMARK    3  A    between atoms: C_8  and  C_10
REMARK    4  A    between atoms: C_11  and  N_12
REMARK    5  A    between atoms: N_12  and  C_13
REMARK                            x       y       z     vdW  Elec       q    Type
REMARK                         _______ _______ _______ _____ _____    ______ ____
ROOT
ATOM      1  C   UNL     1       0.019   0.967   3.180  0.00  0.00    +0.157 C 
ENDROOT
BRANCH   1   8
ATOM      2  C   UNL     1      -0.018   1.503   0.010  0.00  0.00    +0.064 C 
ATOM      3  C   UNL     1       0.002  -0.004   0.002  0.00  0.00    +0.029 A 
ATOM      4  C   UNL     1       0.005  -0.656  -1.160  0.00  0.00    +0.070 A 
ATOM      5  S   UNL     1       0.032  -2.360  -0.627  0.00  0.00    -0.057 S 
ATOM      6  C   UNL     1       0.036  -2.059   1.125  0.00  0.00    +0.178 A 
ATOM      7  N   UNL     1       0.023  -0.691   1.196  0.00  0.00    -0.293 N 
ATOM      8  C   UNL     1       0.031  -0.406   2.559  0.00  0.00    +0.064 A 
ATOM      9  C   UNL     1       0.054  -1.575   3.221  0.00  0.00    +0.062 A 
ATOM     10  N   UNL     1       0.049  -2.571   2.322  0.00  0.00    -0.226 NA
ATOM     11  C   UNL     1       0.070  -1.739   4.719  0.00  0.00    +0.067 C 
ENDBRANCH   1   8
BRANCH   1  12
ATOM     12  N   UNL     1      -1.366   1.394   3.394  0.00  0.00    -0.336 N 
ATOM     13  H   UNL     1      -2.098   0.810   3.141  0.00  0.00    +0.147 HD
BRANCH  12  14
ATOM     14  C   UNL     1      -1.633   2.644   3.963  0.00  0.00    +0.063 A 
ATOM     15  C   UNL     1      -0.587   3.483   4.320  0.00  0.00    +0.027 A 
ATOM     16  C   UNL     1      -0.854   4.717   4.881  0.00  0.00    +0.022 A 
ATOM     17  C   UNL     1      -2.162   5.117   5.089  0.00  0.00    +0.044 A 
ATOM     18  C   UNL     1      -3.208   4.284   4.734  0.00  0.00    +0.060 A 
ATOM     19  C   UNL     1      -2.948   3.050   4.167  0.00  0.00    +0.145 A 
ATOM     20  F   UNL     1      -3.969   2.238   3.815  0.00  0.00    -0.204 F 
ATOM     21 CL   UNL     1      -2.491   6.668   5.795  0.00  0.00    -0.083 Cl
ENDBRANCH  12  14
ENDBRANCH   1  12
TORSDOF 3
