REMARK  Name = ZINC35701723
REMARK  12 active torsions:
REMARK  status: ('A' for Active; 'I' for Inactive)
REMARK    1  A    between atoms: C_1  and  C_2
REMARK    2  A    between atoms: C_2  and  O_3
REMARK    3  A    between atoms: O_3  and  C_4
REMARK    4  A    between atoms: C_4  and  C_6
REMARK    5  A    between atoms: N_11  and  C_13
REMARK    6  A    between atoms: C_15  and  C_16
REMARK    7  A    between atoms: C_21  and  C_39
REMARK    8  A    between atoms: C_22  and  C_33
REMARK    9  A    between atoms: C_23  and  C_26
REMARK   10  A    between atoms: C_33  and  O_35
REMARK   11  A    between atoms: O_35  and  C_36
REMARK   12  A    between atoms: C_36  and  C_37
REMARK                            x       y       z     vdW  Elec       q    Type
REMARK                         _______ _______ _______ _____ _____    ______ ____
ROOT
ATOM      1  C   UNL     1       5.292  -1.571  -6.933  0.00  0.00    +0.048 C 
ATOM      2  C   UNL     1       5.673  -2.074  -8.128  0.00  0.00    +0.072 C 
ATOM      3  S   UNL     1       6.375  -0.643  -8.924  0.00  0.00    -0.060 S 
ATOM      4  C   UNL     1       6.136   0.477  -7.696  0.00  0.00    +0.166 C 
ATOM      5  N   UNL     1       6.427   1.759  -7.616  0.00  0.00    -0.230 NA
ATOM      6  C   UNL     1       6.175   2.526  -6.568  0.00  0.00    +0.053 C 
ATOM      7  C   UNL     1       5.564   2.000  -5.446  0.00  0.00    +0.083 C 
ATOM      8  C   UNL     1       5.200   0.532  -5.464  0.00  0.00    +0.152 C 
ATOM      9  N   UNL     1       5.526  -0.231  -6.699  0.00  0.00    -0.267 N 
ATOM     10  C   UNL     1       6.558   3.983  -6.598  0.00  0.00    +0.066 C 
ENDROOT
BRANCH   8  11
ATOM     11  C   UNL     1       5.897  -0.134  -4.305  0.00  0.00    +0.013 A 
ATOM     12  C   UNL     1       5.175  -0.516  -3.191  0.00  0.00    +0.008 A 
ATOM     13  C   UNL     1       5.814  -1.126  -2.128  0.00  0.00    +0.001 A 
ATOM     14  C   UNL     1       7.176  -1.355  -2.178  0.00  0.00    +0.003 A 
ATOM     15  C   UNL     1       7.901  -0.974  -3.292  0.00  0.00    +0.039 A 
ATOM     16  C   UNL     1       7.261  -0.367  -4.359  0.00  0.00    +0.129 A 
ATOM     17  F   UNL     1       7.967   0.001  -5.450  0.00  0.00    -0.205 F 
ENDBRANCH   8  11
BRANCH   1  20
ATOM     18  C   UNL     1       4.569  -3.751  -6.109  0.00  0.00    +0.241 C 
ATOM     19  O   UNL     1       5.216  -4.327  -7.152  0.00  0.00    -0.271 OA
ATOM     20  C   UNL     1       4.647  -2.420  -5.921  0.00  0.00    +0.091 C 
BRANCH  18  25
ATOM     21  C   UNL     1       1.454  -4.945  -4.858  0.00  0.00    +0.115 C 
ATOM     22  C   UNL     1       1.834  -6.356  -4.405  0.00  0.00    +0.018 C 
ATOM     23  C   UNL     1       3.045  -6.842  -5.206  0.00  0.00    +0.020 C 
ATOM     24  C   UNL     1       4.233  -5.913  -4.941  0.00  0.00    +0.108 C 
ATOM     25  N   UNL     1       3.829  -4.532  -5.237  0.00  0.00    -0.297 N 
ATOM     26  C   UNL     1       2.625  -3.993  -4.590  0.00  0.00    +0.122 C 
BRANCH  21  27
ATOM     27  C   UNL     1       0.242  -4.480  -4.093  0.00  0.00    +0.312 C 
ATOM     28  O   UNL     1      -0.293  -5.220  -3.301  0.00  0.00    -0.250 OA
BRANCH  27  29
ATOM     29  O   UNL     1      -0.242  -3.244  -4.289  0.00  0.00    -0.465 OA
BRANCH  29  31
ATOM     30  C   UNL     1      -1.816  -1.452  -3.897  0.00  0.00    +0.048 C 
ATOM     31  C   UNL     1      -1.322  -2.829  -3.450  0.00  0.00    +0.229 C 
ENDBRANCH  29  31
ENDBRANCH  27  29
ENDBRANCH  21  27
ENDBRANCH  18  25
ENDBRANCH   1  20
BRANCH   7  32
ATOM     32  C   UNL     1       5.292   2.799  -4.329  0.00  0.00    +0.339 C 
ATOM     33  O   UNL     1       5.514   3.996  -4.367  0.00  0.00    -0.245 OA
BRANCH  32  34
ATOM     34  O   UNL     1       4.782   2.242  -3.208  0.00  0.00    -0.457 OA
BRANCH  34  35
ATOM     35  C   UNL     1       4.423   3.130  -2.148  0.00  0.00    +0.259 C 
BRANCH  35  36
ATOM     36  C   UNL     1       3.989   2.330  -0.947  0.00  0.00    +0.006 C 
ATOM     37  C   UNL     1       4.453   2.628   0.241  0.00  0.00    +0.007 C 
ENDBRANCH  35  36
ENDBRANCH  34  35
ENDBRANCH  32  34
ENDBRANCH   7  32
TORSDOF 10
