REMARK  Name = ZINC50436989
REMARK  5 active torsions:
REMARK  status: ('A' for Active; 'I' for Inactive)
REMARK    1  A    between atoms: C_1  and  O_2
REMARK    2  A    between atoms: O_2  and  C_3
REMARK    3  A    between atoms: C_3  and  C_5
REMARK    4  A    between atoms: C_3  and  C_11
REMARK    5  A    between atoms: C_19  and  N_22
REMARK                            x       y       z     vdW  Elec       q    Type
REMARK                         _______ _______ _______ _____ _____    ______ ____
ROOT
ATOM      1  C   UNL     1      -0.357  -0.782  -2.237  0.00  0.00    +0.253 C 
ATOM      2  O   UNL     1      -1.532  -0.564  -2.032  0.00  0.00    -0.272 OA
ATOM      3  N   UNL     1       0.047  -1.214  -3.448  0.00  0.00    -0.268 N 
ATOM      4  C   UNL     1       1.434  -1.517  -3.812  0.00  0.00    +0.118 C 
ATOM      5  C   UNL     1       1.376  -1.967  -5.281  0.00  0.00    +0.056 C 
ATOM      6  C   UNL     1      -0.088  -1.881  -5.649  0.00  0.00    -0.024 A 
ATOM      7  C   UNL     1      -0.797  -1.446  -4.539  0.00  0.00    +0.041 A 
ATOM      8  C   UNL     1      -2.180  -1.294  -4.633  0.00  0.00    +0.046 A 
ATOM      9  C   UNL     1      -2.833  -1.580  -5.821  0.00  0.00    +0.026 A 
ATOM     10  C   UNL     1      -2.112  -2.020  -6.924  0.00  0.00    +0.023 A 
ATOM     11  C   UNL     1      -0.741  -2.162  -6.835  0.00  0.00    +0.007 A 
ENDROOT
BRANCH   9  12
ATOM     12  N   UNL     1      -4.219  -1.425  -5.909  0.00  0.00    -0.358 N 
ATOM     13  H   UNL     1      -4.723  -1.118  -5.140  0.00  0.00    +0.142 HD
ATOM     14  H   UNL     1      -4.677  -1.626  -6.741  0.00  0.00    +0.142 HD
ENDBRANCH   9  12
BRANCH   1  15
ATOM     15  C   UNL     1       0.652  -0.570  -1.138  0.00  0.00    +0.234 C 
BRANCH  15  16
ATOM     16  C   UNL     1       1.268  -1.893  -0.760  0.00  0.00    -0.010 A 
ATOM     17  C   UNL     1       0.586  -2.760   0.073  0.00  0.00    +0.006 A 
ATOM     18  C   UNL     1       1.151  -3.973   0.420  0.00  0.00    +0.000 A 
ATOM     19  C   UNL     1       2.398  -4.319  -0.066  0.00  0.00    +0.000 A 
ATOM     20  C   UNL     1       3.080  -3.452  -0.900  0.00  0.00    +0.000 A 
ATOM     21  C   UNL     1       2.513  -2.241  -1.250  0.00  0.00    +0.006 A 
ENDBRANCH  15  16
BRANCH  15  23
ATOM     22  C   UNL     1      -0.017   1.425   0.010  0.00  0.00    +0.195 C 
ATOM     23  O   UNL     1       0.002  -0.004   0.002  0.00  0.00    -0.366 OA
ENDBRANCH  15  23
ENDBRANCH   1  15
TORSDOF 4
