REMARK  Name = ZINC37711786
REMARK  7 active torsions:
REMARK  status: ('A' for Active; 'I' for Inactive)
REMARK    1  A    between atoms: C_1  and  O_2
REMARK    2  A    between atoms: O_2  and  C_3
REMARK    3  A    between atoms: C_5  and  C_18
REMARK    4  A    between atoms: C_8  and  O_9
REMARK    5  A    between atoms: O_9  and  C_10
REMARK    6  A    between atoms: C_10  and  C_11
REMARK    7  A    between atoms: C_18  and  N_19
REMARK                            x       y       z     vdW  Elec       q    Type
REMARK                         _______ _______ _______ _____ _____    ______ ____
ROOT
ATOM      1  C   UNL     1       0.606  -0.608  -1.056  0.00  0.00    +0.163 A 
ATOM      2  C   UNL     1       1.173   0.159  -2.062  0.00  0.00    +0.051 A 
ATOM      3  C   UNL     1       1.786  -0.455  -3.138  0.00  0.00    -0.060 A 
ATOM      4  C   UNL     1       1.836  -1.835  -3.214  0.00  0.00    +0.021 A 
ATOM      5  C   UNL     1       1.273  -2.606  -2.213  0.00  0.00    +0.063 A 
ATOM      6  C   UNL     1       0.662  -1.996  -1.129  0.00  0.00    +0.176 A 
ATOM      7 BR   UNL     1       1.342  -4.493  -2.321  0.00  0.00    -0.046 Br
ENDROOT
BRANCH   1   9
ATOM      8  C   UNL     1      -0.017   1.425   0.010  0.00  0.00    +0.277 C 
ATOM      9  O   UNL     1       0.002  -0.004   0.002  0.00  0.00    -0.491 OA
ENDBRANCH   1   9
BRANCH   6  10
ATOM     10  O   UNL     1       0.112  -2.752  -0.141  0.00  0.00    -0.482 OA
BRANCH  10  11
ATOM     11  C   UNL     1      -1.259  -3.125  -0.296  0.00  0.00    +0.272 C 
BRANCH  11  12
ATOM     12  C   UNL     1      -1.691  -3.954   0.885  0.00  0.00    +0.028 A 
ATOM     13  C   UNL     1      -2.236  -3.549   2.058  0.00  0.00    +0.016 A 
ATOM     14  C   UNL     1      -2.558  -4.498   3.011  0.00  0.00    +0.028 A 
ATOM     15  C   UNL     1      -2.318  -5.806   2.743  0.00  0.00    +0.078 A 
ATOM     16  S   UNL     1      -1.625  -5.725   1.100  0.00  0.00    -0.078 S 
ATOM     17 CL   UNL     1      -2.616  -7.198   3.737  0.00  0.00    -0.076 Cl
ENDBRANCH  11  12
ENDBRANCH  10  11
ENDBRANCH   6  10
BRANCH   3  18
ATOM     18  C   UNL     1       2.401   0.380  -4.231  0.00  0.00    -0.050 C 
BRANCH  18  19
ATOM     19  N   UNL     1       3.806   0.659  -3.903  0.00  0.00    +0.381 N 
ATOM     20  H   UNL     1       3.854   1.160  -3.028  0.00  0.00    -0.090 HD
ATOM     21  H   UNL     1       4.311  -0.211  -3.820  0.00  0.00    -0.090 HD
ATOM     22  H   UNL     1       4.218   1.218  -4.634  0.00  0.00    -0.090 HD
ENDBRANCH  18  19
ENDBRANCH   3  18
TORSDOF 6
