REMARK  Name = ZINC14456566
REMARK  10 active torsions:
REMARK  status: ('A' for Active; 'I' for Inactive)
REMARK    1  A    between atoms: C_1  and  C_2
REMARK    2  A    between atoms: C_2  and  C_3
REMARK    3  A    between atoms: C_3  and  N_4
REMARK    4  A    between atoms: N_4  and  C_5
REMARK    5  A    between atoms: N_4  and  S_8
REMARK    6  A    between atoms: C_5  and  C_6
REMARK    7  A    between atoms: C_6  and  C_7
REMARK    8  A    between atoms: S_8  and  C_11
REMARK    9  A    between atoms: C_24  and  C_27
REMARK   10  A    between atoms: C_30  and  C_32
REMARK                            x       y       z     vdW  Elec       q    Type
REMARK                         _______ _______ _______ _____ _____    ______ ____
ROOT
ATOM      1  C   UNL     1       1.162   2.101   0.002  0.00  0.00    +0.106 A 
ATOM      2  C   UNL     1       2.379   1.444  -0.013  0.00  0.00    +0.030 A 
ATOM      3  C   UNL     1       2.410   0.064  -0.020  0.00  0.00    +0.025 A 
ATOM      4  C   UNL     1       1.224  -0.659  -0.011  0.00  0.00    +0.031 A 
ATOM      5  C   UNL     1       0.002  -0.004   0.002  0.00  0.00    -0.018 A 
ATOM      6  C   UNL     1      -0.017   1.384   0.010  0.00  0.00    +0.034 A 
ATOM      7  C   UNL     1      -1.300  -0.739   0.006  0.00  0.00    +0.049 C 
ATOM      8  C   UNL     1      -1.950  -0.704   1.369  0.00  0.00    -0.023 C 
ATOM      9  C   UNL     1      -2.559  -1.839   1.611  0.00  0.00    -0.030 C 
ATOM     10  C   UNL     1      -2.403  -2.786   0.436  0.00  0.00    +0.033 C 
ATOM     11  C   UNL     1      -1.143  -2.241  -0.300  0.00  0.00    +0.029 C 
ATOM     12  C   UNL     1       0.085  -2.797   0.426  0.00  0.00    +0.111 C 
ATOM     13  N   UNL     1       1.272  -2.057  -0.015  0.00  0.00    -0.336 N 
ATOM     14  H   UNL     1       2.072  -2.526  -0.302  0.00  0.00    +0.147 HD
ENDROOT
BRANCH  12  15
ATOM     15  C   UNL     1      -0.089  -2.630   1.913  0.00  0.00    +0.010 A 
ATOM     16  C   UNL     1      -0.482  -3.544   2.834  0.00  0.00    +0.013 A 
ATOM     17  C   UNL     1      -0.569  -3.164   4.161  0.00  0.00    +0.011 A 
ATOM     18  C   UNL     1      -0.269  -1.886   4.500  0.00  0.00    -0.013 A 
ATOM     19  S   UNL     1       0.160  -1.176   2.919  0.00  0.00    -0.097 S 
ATOM     20  C   UNL     1      -0.293  -1.234   5.858  0.00  0.00    +0.051 C 
ENDBRANCH  12  15
BRANCH   1  21
ATOM     21  S   UNL     1       1.117   3.863   0.012  0.00  0.00    +0.061 S 
ATOM     22  O   UNL     1       2.346   4.304  -0.548  0.00  0.00    -0.153 OA
ATOM     23  O   UNL     1      -0.144   4.240  -0.524  0.00  0.00    -0.153 OA
BRANCH  21  24
ATOM     24  N   UNL     1       1.119   4.343   1.597  0.00  0.00    -0.177 NA
BRANCH  24  25
ATOM     25  C   UNL     1       2.389   4.589   2.286  0.00  0.00    +0.109 C 
BRANCH  25  27
ATOM     26  C   UNL     1       4.054   6.335   2.933  0.00  0.00    +0.005 C 
ATOM     27  C   UNL     1       2.729   6.079   2.214  0.00  0.00    +0.014 C 
ENDBRANCH  25  27
ENDBRANCH  24  25
BRANCH  24  28
ATOM     28  C   UNL     1      -0.148   4.523   2.310  0.00  0.00    +0.109 C 
BRANCH  28  29
ATOM     29  C   UNL     1      -0.486   3.245   3.079  0.00  0.00    +0.014 C 
ATOM     30  C   UNL     1      -1.810   3.433   3.823  0.00  0.00    +0.005 C 
ENDBRANCH  28  29
ENDBRANCH  24  28
ENDBRANCH  21  24
ENDBRANCH   1  21
TORSDOF 7
