REMARK  Name = ZINC08962014
REMARK  9 active torsions:
REMARK  status: ('A' for Active; 'I' for Inactive)
REMARK    1  A    between atoms: C_1  and  C_2
REMARK    2  A    between atoms: C_10  and  N_15
REMARK    3  A    between atoms: N_15  and  S_16
REMARK    4  A    between atoms: S_16  and  C_19
REMARK    5  A    between atoms: C_22  and  O_25
REMARK    6  A    between atoms: O_25  and  C_26
REMARK    7  A    between atoms: C_26  and  C_27
REMARK    8  A    between atoms: C_27  and  C_28
REMARK    9  A    between atoms: C_27  and  C_29
REMARK                            x       y       z     vdW  Elec       q    Type
REMARK                         _______ _______ _______ _____ _____    ______ ____
ROOT
ATOM      1  N   UNL     1      -1.199  -0.717   0.007  0.00  0.00    -0.216 N 
ATOM      2  H   UNL     1      -0.924   0.142  -0.351  0.00  0.00    +0.174 HD
ENDROOT
BRANCH   1  11
ATOM      3  C   UNL     1      -2.142  -3.561   5.811  0.00  0.00    +0.053 C 
ATOM      4  C   UNL     1      -1.698  -2.132   6.131  0.00  0.00    +0.187 C 
ATOM      5  C   UNL     1      -0.213  -1.991   5.823  0.00  0.00    +0.148 C 
ATOM      6  N   UNL     1       0.178  -0.581   5.788  0.00  0.00    -0.308 N 
ATOM      7  C   UNL     1      -0.164   0.180   4.721  0.00  0.00    +0.248 C 
ATOM      8  O   UNL     1       0.227   1.328   4.630  0.00  0.00    -0.270 OA
ATOM      9  C   UNL     1      -1.019  -0.407   3.672  0.00  0.00    +0.080 A 
ATOM     10  C   UNL     1      -0.692  -0.282   2.323  0.00  0.00    +0.041 A 
ATOM     11  C   UNL     1      -1.521  -0.839   1.363  0.00  0.00    +0.049 A 
ATOM     12  C   UNL     1      -2.673  -1.520   1.744  0.00  0.00    +0.028 A 
ATOM     13  C   UNL     1      -3.000  -1.650   3.079  0.00  0.00    +0.048 A 
ATOM     14  C   UNL     1      -2.180  -1.099   4.050  0.00  0.00    +0.133 A 
ATOM     15  O   UNL     1      -2.480  -1.222   5.368  0.00  0.00    -0.487 OA
ATOM     16  H   UNL     1       0.680  -0.195   6.523  0.00  0.00    +0.149 HD
ENDBRANCH   1  11
BRANCH   1  17
ATOM     17  S   UNL     1      -1.286  -2.038  -0.987  0.00  0.00    +0.072 S 
ATOM     18  O   UNL     1      -2.581  -2.595  -0.809  0.00  0.00    -0.150 OA
ATOM     19  O   UNL     1      -0.804  -1.623  -2.258  0.00  0.00    -0.150 OA
BRANCH  17  20
ATOM     20  C   UNL     1      -0.138  -3.227  -0.377  0.00  0.00    +0.109 A 
ATOM     21  C   UNL     1       1.190  -3.163  -0.757  0.00  0.00    +0.032 A 
ATOM     22  C   UNL     1       2.093  -4.090  -0.275  0.00  0.00    +0.047 A 
ATOM     23  C   UNL     1       1.665  -5.093   0.583  0.00  0.00    +0.121 A 
ATOM     24  C   UNL     1       0.331  -5.159   0.958  0.00  0.00    +0.047 A 
ATOM     25  C   UNL     1      -0.567  -4.226   0.478  0.00  0.00    +0.032 A 
BRANCH  23  26
ATOM     26  O   UNL     1       2.551  -6.010   1.054  0.00  0.00    -0.492 OA
BRANCH  26  27
ATOM     27  C   UNL     1       3.908  -5.881   0.625  0.00  0.00    +0.232 C 
BRANCH  27  28
ATOM     28  C   UNL     1       4.749  -6.993   1.254  0.00  0.00    +0.020 C 
ATOM     29  C   UNL     1       6.173  -6.931   0.699  0.00  0.00    +0.010 C 
ATOM     30  C   UNL     1       4.785  -6.809   2.772  0.00  0.00    +0.010 C 
ENDBRANCH  27  28
ENDBRANCH  26  27
ENDBRANCH  23  26
ENDBRANCH  17  20
ENDBRANCH   1  17
TORSDOF 6
