REMARK  Name = ZINC08762477
REMARK  10 active torsions:
REMARK  status: ('A' for Active; 'I' for Inactive)
REMARK    1  A    between atoms: C_1  and  C_2
REMARK    2  A    between atoms: C_13  and  O_15
REMARK    3  A    between atoms: N_21  and  O_22
REMARK    4  A    between atoms: O_22  and  C_23
REMARK    5  A    between atoms: C_23  and  C_24
REMARK    6  A    between atoms: N_26  and  C_27
REMARK    7  A    between atoms: C_27  and  C_28
REMARK    8  A    between atoms: C_28  and  C_29
REMARK    9  A    between atoms: C_32  and  O_35
REMARK   10  A    between atoms: C_38  and  C_39
REMARK                            x       y       z     vdW  Elec       q    Type
REMARK                         _______ _______ _______ _____ _____    ______ ____
ROOT
ATOM      1  C   UNL     1      -2.237   1.181  -1.114  0.00  0.00    +0.014 C 
ATOM      2  C   UNL     1      -0.767   1.599  -1.203  0.00  0.00    -0.003 C 
ATOM      3  C   UNL     1      -0.013   1.088   0.009  0.00  0.00    +0.010 C 
ATOM      4  C   UNL     1      -0.755   1.596   1.256  0.00  0.00    +0.005 C 
ATOM      5  C   UNL     1      -0.867   3.117   1.262  0.00  0.00    +0.002 C 
ATOM      6  C   UNL     1      -1.505   3.646  -0.034  0.00  0.00    -0.003 C 
ATOM      7  C   UNL     1      -0.659   3.147  -1.192  0.00  0.00    +0.001 C 
ATOM      8  C   UNL     1      -1.169   3.505  -2.592  0.00  0.00    +0.007 C 
ATOM      9  C   UNL     1      -0.506   2.424  -3.490  0.00  0.00    +0.032 C 
ATOM     10  C   UNL     1      -0.203   1.214  -2.567  0.00  0.00    +0.121 C 
ATOM     11  C   UNL     1      -1.524   5.174  -0.019  0.00  0.00    +0.008 C 
ATOM     12  C   UNL     1      -2.404   5.674   1.133  0.00  0.00    +0.031 C 
ATOM     13  C   UNL     1      -1.882   5.050   2.416  0.00  0.00    -0.062 C 
ATOM     14  C   UNL     1      -1.557   5.846   3.425  0.00  0.00    +0.026 C 
ATOM     15  C   UNL     1      -0.970   5.257   4.645  0.00  0.00    +0.080 C 
ATOM     16  N   UNL     1      -1.052   5.843   5.797  0.00  0.00    -0.089 NA
ATOM     17  C   UNL     1      -0.268   3.924   4.470  0.00  0.00    +0.059 C 
ATOM     18  C   UNL     1      -1.225   2.997   3.751  0.00  0.00    +0.017 C 
ATOM     19  C   UNL     1      -1.728   3.562   2.445  0.00  0.00    -0.007 C 
ATOM     20  C   UNL     1      -3.122   2.972   2.217  0.00  0.00    +0.016 C 
ENDROOT
BRANCH  10  21
ATOM     21  O   UNL     1       1.207   1.002  -2.477  0.00  0.00    -0.391 OA
ATOM     22  H   UNL     1       1.622   0.754  -3.315  0.00  0.00    +0.210 HD
ENDBRANCH  10  21
BRANCH  16  23
ATOM     23  O   UNL     1      -1.718   7.088   5.913  0.00  0.00    -0.384 OA
BRANCH  23  24
ATOM     24  C   UNL     1      -1.731   7.618   7.240  0.00  0.00    +0.358 C 
BRANCH  24  25
ATOM     25  C   UNL     1      -2.462   8.936   7.246  0.00  0.00    +0.253 C 
ATOM     26  O   UNL     1      -2.926   9.378   6.216  0.00  0.00    -0.272 OA
ATOM     27  N   UNL     1      -2.600   9.625   8.396  0.00  0.00    -0.312 N 
ATOM     28  H   UNL     1      -2.229   9.272   9.220  0.00  0.00    +0.149 HD
BRANCH  27  29
ATOM     29  C   UNL     1      -3.310  10.906   8.403  0.00  0.00    +0.109 C 
BRANCH  29  30
ATOM     30  C   UNL     1      -3.325  11.474   9.823  0.00  0.00    +0.054 C 
BRANCH  30  31
ATOM     31  C   UNL     1      -4.055  12.792   9.829  0.00  0.00    -0.046 A 
ATOM     32  C   UNL     1      -3.359  13.969   9.619  0.00  0.00    +0.007 A 
ATOM     33  C   UNL     1      -4.028  15.177   9.619  0.00  0.00    +0.045 A 
ATOM     34  C   UNL     1      -5.397  15.212   9.841  0.00  0.00    +0.117 A 
ATOM     35  C   UNL     1      -6.092  14.031  10.057  0.00  0.00    +0.045 A 
ATOM     36  C   UNL     1      -5.420  12.824  10.051  0.00  0.00    +0.007 A 
BRANCH  34  37
ATOM     37  O   UNL     1      -6.056  16.400   9.847  0.00  0.00    -0.507 OA
ATOM     38  H   UNL     1      -6.104  16.819  10.717  0.00  0.00    +0.292 HD
ENDBRANCH  34  37
ENDBRANCH  30  31
ENDBRANCH  29  30
ENDBRANCH  27  29
ENDBRANCH  24  25
ENDBRANCH  23  24
ENDBRANCH  16  23
TORSDOF 8
