REMARK  Name = ZINC24473586
REMARK  7 active torsions:
REMARK  status: ('A' for Active; 'I' for Inactive)
REMARK    1  A    between atoms: C_4  and  S_8
REMARK    2  A    between atoms: S_8  and  N_11
REMARK    3  A    between atoms: N_11  and  C_12
REMARK    4  A    between atoms: C_12  and  C_13
REMARK    5  A    between atoms: C_13  and  C_14
REMARK    6  A    between atoms: N_16  and  N_17
REMARK    7  A    between atoms: C_18  and  C_20
REMARK                            x       y       z     vdW  Elec       q    Type
REMARK                         _______ _______ _______ _____ _____    ______ ____
ROOT
ATOM      1  C   UNL     1      -7.071   1.209  -0.107  0.00  0.00    +0.230 C 
ATOM      2  O   UNL     1      -6.783   2.387  -0.075  0.00  0.00    -0.274 OA
ATOM      3  N   UNL     1      -6.097   0.277  -0.110  0.00  0.00    -0.234 N 
ATOM      4  H   UNL     1      -6.359  -0.791  -0.139  0.00  0.00    +0.173 HD
ENDROOT
BRANCH   3   5
ATOM      5  N   UNL     1      -4.753   0.669  -0.076  0.00  0.00    -0.230 N 
ATOM      6  C   UNL     1      -3.779  -0.263  -0.080  0.00  0.00    +0.267 C 
ATOM      7  O   UNL     1      -4.068  -1.445  -0.112  0.00  0.00    -0.268 OA
ATOM      8  H   UNL     1      -4.491   1.737  -0.048  0.00  0.00    +0.173 HD
BRANCH   6   9
ATOM      9  C   UNL     1      -2.372   0.146  -0.044  0.00  0.00    +0.076 A 
ATOM     10  C   UNL     1      -1.234  -0.640  -0.041  0.00  0.00    +0.024 A 
ATOM     11  C   UNL     1       0.002  -0.004   0.002  0.00  0.00    -0.036 A 
ATOM     12  C   UNL     1      -0.016   1.348   0.009  0.00  0.00    -0.006 A 
ATOM     13  S   UNL     1      -1.678   1.791   0.005  0.00  0.00    -0.088 S 
ATOM     14  C   UNL     1       1.189   2.263   0.003  0.00  0.00    +0.043 C 
ATOM     15  C   UNL     1       1.901   2.086   1.355  0.00  0.00    +0.005 C 
ATOM     16  C   UNL     1       2.734   0.827   1.351  0.00  0.00    +0.001 C 
ATOM     17  C   UNL     1       1.980  -0.478   1.400  0.00  0.00    +0.005 C 
ATOM     18  C   UNL     1       1.309  -0.801   0.064  0.00  0.00    +0.036 C 
ENDBRANCH   6   9
ENDBRANCH   3   5
BRANCH   1  19
ATOM     19  C   UNL     1      -8.517   0.788  -0.143  0.00  0.00    +0.114 C 
BRANCH  19  20
ATOM     20  C   UNL     1      -9.411   2.030  -0.131  0.00  0.00    +0.115 C 
BRANCH  20  21
ATOM     21  N   UNL     1     -10.817   1.621  -0.166  0.00  0.00    -0.189 NA
ATOM     22  H   UNL     1     -11.096   0.648  -0.596  0.00  0.00    +0.148 HD
BRANCH  21  23
ATOM     23  S   UNL     1     -12.006   2.711   0.208  0.00  0.00    +0.061 S 
ATOM     24  O   UNL     1     -13.244   2.029   0.058  0.00  0.00    -0.153 OA
ATOM     25  O   UNL     1     -11.620   3.331   1.427  0.00  0.00    -0.153 OA
BRANCH  23  29
ATOM     26  C   UNL     1     -11.914   5.936  -2.970  0.00  0.00    +0.003 A 
ATOM     27  C   UNL     1     -13.019   5.113  -2.850  0.00  0.00    +0.002 A 
ATOM     28  C   UNL     1     -13.044   4.125  -1.884  0.00  0.00    +0.031 A 
ATOM     29  C   UNL     1     -11.970   3.966  -1.028  0.00  0.00    +0.140 A 
ATOM     30  C   UNL     1     -10.864   4.790  -1.147  0.00  0.00    +0.150 A 
ATOM     31  C   UNL     1     -10.837   5.776  -2.119  0.00  0.00    +0.040 A 
ATOM     32  F   UNL     1      -9.811   4.631  -0.316  0.00  0.00    -0.203 F 
ENDBRANCH  23  29
ENDBRANCH  21  23
ENDBRANCH  20  21
ENDBRANCH  19  20
ENDBRANCH   1  19
TORSDOF 7
