REMARK  Name = ZINC09478399
REMARK  5 active torsions:
REMARK  status: ('A' for Active; 'I' for Inactive)
REMARK    1  A    between atoms: C_6  and  O_7
REMARK    2  A    between atoms: O_7  and  C_8
REMARK    3  A    between atoms: C_8  and  C_9
REMARK    4  A    between atoms: N_11  and  C_12
REMARK    5  A    between atoms: C_13  and  C_21
REMARK                            x       y       z     vdW  Elec       q    Type
REMARK                         _______ _______ _______ _____ _____    ______ ____
ROOT
ATOM      1  C   UNL     1       4.946   7.936   0.005  0.00  0.00    +0.255 C 
ATOM      2  O   UNL     1       5.896   7.183  -0.007  0.00  0.00    -0.272 OA
ATOM      3  N   UNL     1       5.143   9.270   0.011  0.00  0.00    -0.277 N 
ATOM      4  H   UNL     1       4.382   9.872   0.021  0.00  0.00    +0.155 HD
ENDROOT
BRANCH   3   5
ATOM      5  C   UNL     1       6.432   9.780   0.004  0.00  0.00    +0.084 A 
ATOM      6  C   UNL     1       6.833  11.109   0.003  0.00  0.00    +0.068 A 
ATOM      7  C   UNL     1       8.260  11.379  -0.003  0.00  0.00    -0.023 A 
ATOM      8  C   UNL     1       9.053  10.285  -0.016  0.00  0.00    -0.004 A 
ATOM      9  S   UNL     1       7.932   8.915  -0.014  0.00  0.00    -0.077 S 
ATOM     10  C   UNL     1      10.550  10.255  -0.030  0.00  0.00    +0.043 C 
ATOM     11  C   UNL     1      11.059  11.655  -0.405  0.00  0.00    +0.005 C 
ATOM     12  C   UNL     1      10.319  12.692   0.444  0.00  0.00    +0.005 C 
ATOM     13  C   UNL     1       8.858  12.781   0.001  0.00  0.00    +0.037 C 
BRANCH   6  14
ATOM     14  C   UNL     1       5.853  12.199   0.011  0.00  0.00    +0.244 C 
ATOM     15  O   UNL     1       5.453  12.650   1.068  0.00  0.00    -0.270 OA
ATOM     16  N   UNL     1       5.394  12.701  -1.153  0.00  0.00    -0.325 N 
ATOM     17  H   UNL     1       5.712  12.341  -1.995  0.00  0.00    +0.145 HD
ATOM     18  H   UNL     1       4.745  13.422  -1.147  0.00  0.00    +0.145 HD
ENDBRANCH   6  14
ENDBRANCH   3   5
BRANCH   1  19
ATOM     19  C   UNL     1       3.545   7.381   0.013  0.00  0.00    +0.324 C 
BRANCH  19  20
ATOM     20  O   UNL     1       3.598   5.953   0.004  0.00  0.00    -0.483 OA
BRANCH  20  26
ATOM     21  C   UNL     1       1.220   6.013   0.024  0.00  0.00    +0.046 A 
ATOM     22  C   UNL     1       0.019   5.363   0.030  0.00  0.00    +0.015 A 
ATOM     23  C   UNL     1      -0.014   3.964   0.023  0.00  0.00    +0.021 A 
ATOM     24  C   UNL     1       1.188   3.231   0.009  0.00  0.00    +0.143 A 
ATOM     25  C   UNL     1       2.398   3.907   0.002  0.00  0.00    +0.092 A 
ATOM     26  C   UNL     1       2.412   5.292   0.010  0.00  0.00    +0.125 A 
ATOM     27  O   UNL     1       1.149   1.881   0.001  0.00  0.00    -0.422 OA
ATOM     28  C   UNL     1      -0.014   1.214   0.009  0.00  0.00    +0.341 A 
ATOM     29  O   UNL     1       0.002  -0.004   0.002  0.00  0.00    -0.245 OA
ATOM     30  C   UNL     1      -1.259   1.884   0.018  0.00  0.00    +0.041 A 
ATOM     31  C   UNL     1      -1.287   3.240   0.032  0.00  0.00    -0.027 A 
ATOM     32  C   UNL     1      -2.714   3.736   0.048  0.00  0.00    +0.036 C 
ATOM     33  C   UNL     1      -3.557   2.518   0.485  0.00  0.00    +0.010 C 
ATOM     34  C   UNL     1      -2.670   1.336   0.035  0.00  0.00    +0.043 C 
ENDBRANCH  20  26
ENDBRANCH  19  20
ENDBRANCH   1  19
TORSDOF 5
