REMARK  Name = ZINC18197856
REMARK  6 active torsions:
REMARK  status: ('A' for Active; 'I' for Inactive)
REMARK    1  A    between atoms: C_1  and  O_2
REMARK    2  A    between atoms: O_2  and  C_3
REMARK    3  A    between atoms: C_6  and  C_11
REMARK    4  A    between atoms: C_8  and  O_9
REMARK    5  A    between atoms: O_9  and  C_10
REMARK    6  A    between atoms: C_16  and  C_20
REMARK                            x       y       z     vdW  Elec       q    Type
REMARK                         _______ _______ _______ _____ _____    ______ ____
ROOT
ATOM      1  C   UNL     1      -4.987  -2.627   0.035  0.00  0.00    +0.032 C 
ATOM      2  C   UNL     1      -5.772  -2.230  -1.219  0.00  0.00    +0.062 C 
ATOM      3  C   UNL     1      -7.170  -2.789  -1.127  0.00  0.00    +0.028 A 
ATOM      4  C   UNL     1      -7.749  -3.167   0.077  0.00  0.00    +0.046 A 
ATOM      5  C   UNL     1      -9.087  -3.656  -0.237  0.00  0.00    +0.010 A 
ATOM      6  C   UNL     1      -9.214  -3.535  -1.588  0.00  0.00    +0.092 A 
ATOM      7  N   UNL     1      -8.059  -3.015  -2.100  0.00  0.00    -0.363 N 
ATOM      8  H   UNL     1      -7.905  -2.835  -3.041  0.00  0.00    +0.165 HD
ATOM      9  C   UNL     1      -7.042  -3.043   1.353  0.00  0.00    +0.166 C 
ATOM     10  O   UNL     1      -7.452  -3.549   2.377  0.00  0.00    -0.292 OA
ATOM     11  C   UNL     1      -5.754  -2.233   1.301  0.00  0.00    +0.088 C 
ENDROOT
BRANCH   1  15
ATOM     12  C   UNL     1      -1.201  -0.638   0.010  0.00  0.00    +0.161 A 
ATOM     13  C   UNL     1      -2.374   0.099   0.019  0.00  0.00    +0.049 A 
ATOM     14  C   UNL     1      -3.596  -0.546   0.027  0.00  0.00    +0.008 A 
ATOM     15  C   UNL     1      -3.652  -1.928   0.026  0.00  0.00    -0.040 A 
ATOM     16  C   UNL     1      -2.485  -2.669   0.017  0.00  0.00    +0.053 A 
ATOM     17  C   UNL     1      -1.257  -2.028   0.003  0.00  0.00    +0.162 A 
BRANCH  12  19
ATOM     18  C   UNL     1      -0.017   1.425   0.010  0.00  0.00    +0.277 C 
ATOM     19  O   UNL     1       0.002  -0.004   0.002  0.00  0.00    -0.491 OA
ENDBRANCH  12  19
BRANCH  17  20
ATOM     20  O   UNL     1      -0.108  -2.756  -0.012  0.00  0.00    -0.491 OA
ATOM     21  C   UNL     1      -0.242  -4.179  -0.018  0.00  0.00    +0.277 C 
ENDBRANCH  17  20
ENDBRANCH   1  15
BRANCH   5  22
ATOM     22  C   UNL     1     -10.098  -4.175   0.715  0.00  0.00    -0.016 A 
ATOM     23  C   UNL     1      -9.745  -5.149   1.648  0.00  0.00    +0.008 A 
ATOM     24  C   UNL     1     -10.691  -5.628   2.532  0.00  0.00    +0.001 A 
ATOM     25  C   UNL     1     -11.986  -5.143   2.494  0.00  0.00    +0.000 A 
ATOM     26  C   UNL     1     -12.341  -4.177   1.570  0.00  0.00    +0.001 A 
ATOM     27  C   UNL     1     -11.403  -3.686   0.685  0.00  0.00    +0.008 A 
ENDBRANCH   5  22
TORSDOF 4
