REMARK  Name = ZINC20426696
REMARK  5 active torsions:
REMARK  status: ('A' for Active; 'I' for Inactive)
REMARK    1  A    between atoms: C_1  and  O_2
REMARK    2  A    between atoms: O_2  and  C_3
REMARK    3  A    between atoms: C_12  and  C_14
REMARK    4  A    between atoms: C_23  and  O_26
REMARK    5  A    between atoms: C_24  and  O_25
REMARK                            x       y       z     vdW  Elec       q    Type
REMARK                         _______ _______ _______ _____ _____    ______ ____
ROOT
ATOM      1  C   UNL     1       1.166   3.564   0.010  0.00  0.00    +0.007 A 
ATOM      2  C   UNL     1      -0.073   4.184   0.025  0.00  0.00    +0.101 A 
ATOM      3  C   UNL     1      -1.237   3.401   0.032  0.00  0.00    +0.338 A 
ATOM      4  O   UNL     1      -2.323   3.954   0.046  0.00  0.00    -0.245 OA
ATOM      5  O   UNL     1      -1.188   2.059   0.030  0.00  0.00    -0.418 OA
ATOM      6  C   UNL     1      -0.017   1.386   0.010  0.00  0.00    +0.184 A 
ATOM      7  C   UNL     1       1.198   2.091   0.002  0.00  0.00    +0.029 A 
ATOM      8  C   UNL     1       2.411   1.399  -0.013  0.00  0.00    +0.016 A 
ATOM      9  C   UNL     1       2.415   0.032  -0.020  0.00  0.00    +0.050 A 
ATOM     10  C   UNL     1       1.218  -0.676  -0.013  0.00  0.00    +0.162 A 
ATOM     11  C   UNL     1       0.002  -0.004   0.002  0.00  0.00    +0.202 A 
ENDROOT
BRANCH   1  21
ATOM     12  C   UNL     1       5.968   6.549  -0.132  0.00  0.00    +0.163 A 
ATOM     13  C   UNL     1       6.312   7.348   0.944  0.00  0.00    +0.049 A 
ATOM     14  C   UNL     1       5.488   7.424   2.057  0.00  0.00    +0.004 A 
ATOM     15  C   UNL     1       4.325   6.711   2.109  0.00  0.00    +0.012 A 
ATOM     16  C   UNL     1       3.955   5.893   1.031  0.00  0.00    +0.022 A 
ATOM     17  C   UNL     1       4.784   5.811  -0.100  0.00  0.00    +0.180 A 
ATOM     18  O   UNL     1       4.449   5.031  -1.151  0.00  0.00    -0.418 OA
ATOM     19  C   UNL     1       3.317   4.308  -1.153  0.00  0.00    +0.345 A 
ATOM     20  O   UNL     1       3.042   3.614  -2.113  0.00  0.00    -0.245 OA
ATOM     21  C   UNL     1       2.412   4.354   0.002  0.00  0.00    +0.068 A 
ATOM     22  C   UNL     1       2.745   5.154   1.079  0.00  0.00    +0.027 A 
BRANCH  12  24
ATOM     23  C   UNL     1       7.979   7.264  -1.181  0.00  0.00    +0.277 C 
ATOM     24  O   UNL     1       6.783   6.482  -1.218  0.00  0.00    -0.491 OA
ENDBRANCH  12  24
ENDBRANCH   1  21
BRANCH  11  25
ATOM     25  O   UNL     1      -1.165  -0.703   0.010  0.00  0.00    -0.501 OA
ATOM     26  H   UNL     1      -1.148  -1.803   0.004  0.00  0.00    +0.292 HD
ENDBRANCH  11  25
BRANCH  10  27
ATOM     27  O   UNL     1       1.237  -2.035  -0.021  0.00  0.00    -0.503 OA
ATOM     28  H   UNL     1       0.293  -2.598  -0.015  0.00  0.00    +0.292 HD
ENDBRANCH  10  27
TORSDOF 4
