REMARK  Name = ZINC00630751
REMARK  10 active torsions:
REMARK  status: ('A' for Active; 'I' for Inactive)
REMARK    1  A    between atoms: C_1  and  C_2
REMARK    2  A    between atoms: C_5  and  S_8
REMARK    3  A    between atoms: S_8  and  N_11
REMARK    4  A    between atoms: N_11  and  C_12
REMARK    5  A    between atoms: C_15  and  C_18
REMARK    6  A    between atoms: C_18  and  C_19
REMARK    7  A    between atoms: C_22  and  N_25
REMARK    8  A    between atoms: N_25  and  S_26
REMARK    9  A    between atoms: S_26  and  C_29
REMARK   10  A    between atoms: C_32  and  C_35
REMARK                            x       y       z     vdW  Elec       q    Type
REMARK                         _______ _______ _______ _____ _____    ______ ____
ROOT
ATOM      1  C   UNL     1       4.025   5.124  -0.372  0.00  0.00    +0.070 C 
ENDROOT
BRANCH   1   5
ATOM      2  C   UNL     1       0.642   2.585   0.243  0.00  0.00    +0.048 A 
ATOM      3  C   UNL     1       1.836   2.326   0.904  0.00  0.00    +0.025 A 
ATOM      4  C   UNL     1       2.929   3.145   0.699  0.00  0.00    +0.006 A 
ATOM      5  C   UNL     1       2.832   4.229  -0.155  0.00  0.00    -0.043 A 
ATOM      6  C   UNL     1       1.644   4.492  -0.811  0.00  0.00    +0.006 A 
ATOM      7  C   UNL     1       0.548   3.674  -0.615  0.00  0.00    +0.025 A 
BRANCH   2   8
ATOM      8  N   UNL     1      -0.464   1.756   0.444  0.00  0.00    -0.216 N 
ATOM      9  H   UNL     1      -1.340   2.144   0.597  0.00  0.00    +0.174 HD
BRANCH   8  10
ATOM     10  S   UNL     1      -0.281   0.110   0.415  0.00  0.00    +0.072 S 
ATOM     11  O   UNL     1       0.795  -0.195   1.292  0.00  0.00    -0.150 OA
ATOM     12  O   UNL     1      -1.578  -0.446   0.579  0.00  0.00    -0.150 OA
BRANCH  10  17
ATOM     13  C   UNL     1       1.545  -1.384  -5.139  0.00  0.00    +0.044 C 
ATOM     14  C   UNL     1       1.089  -1.011  -3.752  0.00  0.00    -0.050 A 
ATOM     15  C   UNL     1       2.018  -0.823  -2.746  0.00  0.00    +0.005 A 
ATOM     16  C   UNL     1       1.600  -0.481  -1.473  0.00  0.00    +0.029 A 
ATOM     17  C   UNL     1       0.253  -0.326  -1.207  0.00  0.00    +0.109 A 
ATOM     18  C   UNL     1      -0.677  -0.519  -2.212  0.00  0.00    +0.029 A 
ATOM     19  C   UNL     1      -0.258  -0.857  -3.485  0.00  0.00    +0.005 A 
ENDBRANCH  10  17
ENDBRANCH   8  10
ENDBRANCH   2   8
ENDBRANCH   1   5
BRANCH   1  20
ATOM     20  C   UNL     1       4.006   6.240   0.640  0.00  0.00    -0.043 A 
ATOM     21  C   UNL     1       3.359   7.427   0.346  0.00  0.00    +0.006 A 
ATOM     22  C   UNL     1       3.335   8.450   1.274  0.00  0.00    +0.025 A 
ATOM     23  C   UNL     1       3.970   8.290   2.498  0.00  0.00    +0.048 A 
ATOM     24  C   UNL     1       4.624   7.099   2.788  0.00  0.00    +0.025 A 
ATOM     25  C   UNL     1       4.639   6.078   1.859  0.00  0.00    +0.006 A 
BRANCH  23  26
ATOM     26  N   UNL     1       3.953   9.325   3.436  0.00  0.00    -0.216 N 
ATOM     27  H   UNL     1       3.743   9.135   4.364  0.00  0.00    +0.174 HD
BRANCH  26  28
ATOM     28  S   UNL     1       4.290  10.876   2.964  0.00  0.00    +0.072 S 
ATOM     29  O   UNL     1       3.441  11.157   1.859  0.00  0.00    -0.150 OA
ATOM     30  O   UNL     1       4.292  11.668   4.144  0.00  0.00    -0.150 OA
BRANCH  28  31
ATOM     31  C   UNL     1       5.940  10.886   2.347  0.00  0.00    +0.109 A 
ATOM     32  C   UNL     1       7.003  11.033   3.219  0.00  0.00    +0.029 A 
ATOM     33  C   UNL     1       8.298  11.037   2.735  0.00  0.00    +0.005 A 
ATOM     34  C   UNL     1       8.530  10.902   1.379  0.00  0.00    -0.050 A 
ATOM     35  C   UNL     1       7.466  10.760   0.507  0.00  0.00    +0.005 A 
ATOM     36  C   UNL     1       6.172  10.752   0.991  0.00  0.00    +0.029 A 
ATOM     37  C   UNL     1       9.941  10.911   0.852  0.00  0.00    +0.044 C 
ENDBRANCH  28  31
ENDBRANCH  26  28
ENDBRANCH  23  26
ENDBRANCH   1  20
TORSDOF 8
