REMARK  Name = ZINC09375287
REMARK  8 active torsions:
REMARK  status: ('A' for Active; 'I' for Inactive)
REMARK    1  A    between atoms: C_4  and  C_7
REMARK    2  A    between atoms: C_7  and  O_8
REMARK    3  A    between atoms: O_8  and  C_9
REMARK    4  A    between atoms: C_14  and  C_15
REMARK    5  A    between atoms: C_17  and  C_21
REMARK    6  A    between atoms: N_23  and  N_24
REMARK    7  A    between atoms: C_25  and  C_26
REMARK    8  A    between atoms: C_27  and  C_28
REMARK                            x       y       z     vdW  Elec       q    Type
REMARK                         _______ _______ _______ _____ _____    ______ ____
ROOT
ATOM      1  C   UNL     1       5.029  -1.440   3.942  0.00  0.00    +0.097 A 
ATOM      2  C   UNL     1       5.395  -1.637   5.286  0.00  0.00    +0.062 A 
ATOM      3  C   UNL     1       4.377  -1.068   6.028  0.00  0.00    +0.122 A 
ATOM      4  N   UNL     1       3.474  -0.572   5.130  0.00  0.00    -0.272 N 
ATOM      5  H   UNL     1       2.651  -0.114   5.363  0.00  0.00    +0.189 HD
ATOM      6  N   UNL     1       3.880  -0.796   3.933  0.00  0.00    -0.173 NA
ENDROOT
BRANCH   1  12
ATOM      7  C   UNL     1       5.318  -1.605   1.466  0.00  0.00    +0.130 A 
ATOM      8  C   UNL     1       6.048  -2.007   0.359  0.00  0.00    +0.046 A 
ATOM      9  C   UNL     1       7.245  -2.677   0.526  0.00  0.00    +0.004 A 
ATOM     10  C   UNL     1       7.722  -2.949   1.796  0.00  0.00    +0.001 A 
ATOM     11  C   UNL     1       7.005  -2.554   2.907  0.00  0.00    +0.014 A 
ATOM     12  C   UNL     1       5.800  -1.873   2.751  0.00  0.00    +0.044 A 
BRANCH   7  13
ATOM     13  O   UNL     1       4.141  -0.946   1.304  0.00  0.00    -0.487 OA
BRANCH  13  14
ATOM     14  C   UNL     1       3.711  -0.707  -0.038  0.00  0.00    +0.264 C 
BRANCH  14  18
ATOM     15  C   UNL     1      -0.017   1.378   0.010  0.00  0.00    +0.000 A 
ATOM     16  C   UNL     1       1.171   2.086   0.002  0.00  0.00    +0.000 A 
ATOM     17  C   UNL     1       2.377   1.411  -0.013  0.00  0.00    +0.007 A 
ATOM     18  C   UNL     1       2.396   0.029  -0.020  0.00  0.00    -0.010 A 
ATOM     19  C   UNL     1       1.208  -0.679  -0.012  0.00  0.00    +0.007 A 
ATOM     20  C   UNL     1       0.002  -0.004   0.002  0.00  0.00    +0.000 A 
ENDBRANCH  14  18
ENDBRANCH  13  14
ENDBRANCH   7  13
ENDBRANCH   1  12
BRANCH   3  21
ATOM     21  C   UNL     1       4.282  -1.010   7.495  0.00  0.00    +0.281 C 
ATOM     22  O   UNL     1       5.162  -1.496   8.181  0.00  0.00    -0.267 OA
ATOM     23  N   UNL     1       3.222  -0.419   8.080  0.00  0.00    -0.202 N 
ATOM     24  H   UNL     1       2.521  -0.031   7.533  0.00  0.00    +0.178 HD
BRANCH  23  25
ATOM     25  N   UNL     1       3.132  -0.363   9.477  0.00  0.00    -0.188 NA
ATOM     26  C   UNL     1       2.107   0.208  10.042  0.00  0.00    +0.130 C 
BRANCH  26  27
ATOM     27  C   UNL     1       2.017   0.264  11.456  0.00  0.00    +0.022 C 
ATOM     28  C   UNL     1       0.955   0.856  12.040  0.00  0.00    +0.009 C 
BRANCH  28  29
ATOM     29  C   UNL     1       0.861   0.914  13.508  0.00  0.00    -0.025 A 
ATOM     30  C   UNL     1       1.873   0.362  14.300  0.00  0.00    +0.008 A 
ATOM     31  C   UNL     1       1.778   0.420  15.674  0.00  0.00    +0.001 A 
ATOM     32  C   UNL     1       0.684   1.024  16.270  0.00  0.00    +0.000 A 
ATOM     33  C   UNL     1      -0.322   1.572  15.494  0.00  0.00    +0.001 A 
ATOM     34  C   UNL     1      -0.238   1.527  14.118  0.00  0.00    +0.008 A 
ENDBRANCH  28  29
ENDBRANCH  26  27
ENDBRANCH  23  25
ENDBRANCH   3  21
TORSDOF 8
