REMARK  Name = ZINC36605780
REMARK  12 active torsions:
REMARK  status: ('A' for Active; 'I' for Inactive)
REMARK    1  A    between atoms: C_1  and  C_2
REMARK    2  A    between atoms: C_2  and  C_3
REMARK    3  A    between atoms: C_3  and  C_4
REMARK    4  A    between atoms: C_4  and  N_5
REMARK    5  A    between atoms: C_6  and  C_8
REMARK    6  A    between atoms: C_8  and  C_10
REMARK    7  A    between atoms: C_8  and  N_17
REMARK    8  A    between atoms: N_17  and  C_18
REMARK    9  A    between atoms: C_24  and  C_26
REMARK   10  A    between atoms: C_34  and  C_36
REMARK   11  A    between atoms: C_37  and  C_38
REMARK   12  A    between atoms: C_37  and  C_39
REMARK                            x       y       z     vdW  Elec       q    Type
REMARK                         _______ _______ _______ _____ _____    ______ ____
ROOT
ATOM      1  N   UNL     1      -4.481  -6.582   0.358  0.00  0.00    -0.255 N 
ATOM      2  C   UNL     1      -5.621  -6.441   1.062  0.00  0.00    +0.224 C 
ATOM      3  O   UNL     1      -5.969  -5.342   1.440  0.00  0.00    -0.275 OA
ENDROOT
BRANCH   2   4
ATOM      4  C   UNL     1      -6.471  -7.658   1.383  0.00  0.00    +0.079 C 
ATOM      5  C   UNL     1      -7.440  -7.894   0.229  0.00  0.00    +0.017 C 
ATOM      6  C   UNL     1      -8.808  -8.386   0.698  0.00  0.00    -0.004 C 
ATOM      7  C   UNL     1      -9.467  -7.371   1.657  0.00  0.00    +0.008 C 
ATOM      8  C   UNL     1      -8.581  -8.047   2.732  0.00  0.00    -0.001 C 
ATOM      9  C   UNL     1      -7.187  -7.421   2.706  0.00  0.00    +0.001 C 
ATOM     10  C   UNL     1      -6.341  -7.931   3.877  0.00  0.00    +0.008 C 
ATOM     11  C   UNL     1      -8.754  -9.325   1.910  0.00  0.00    -0.029 C 
ATOM     12  C   UNL     1      -7.599 -10.321   1.922  0.00  0.00    +0.011 C 
ATOM     13  C   UNL     1     -10.095 -10.040   2.177  0.00  0.00    +0.011 C 
ENDBRANCH   2   4
BRANCH   1  14
ATOM     14  C   UNL     1      -4.034  -7.859  -0.001  0.00  0.00    +0.037 A 
ATOM     15  C   UNL     1      -3.600  -8.745   0.976  0.00  0.00    +0.023 A 
ATOM     16  C   UNL     1      -3.159 -10.004   0.619  0.00  0.00    +0.002 A 
ATOM     17  C   UNL     1      -3.151 -10.383  -0.711  0.00  0.00    +0.000 A 
ATOM     18  C   UNL     1      -3.583  -9.503  -1.687  0.00  0.00    +0.002 A 
ATOM     19  C   UNL     1      -4.029  -8.244  -1.335  0.00  0.00    +0.023 A 
ENDBRANCH   1  14
BRANCH   1  20
ATOM     20  C   UNL     1      -3.709  -5.399  -0.032  0.00  0.00    +0.197 C 
BRANCH  20  21
ATOM     21  C   UNL     1      -2.551  -5.819  -0.900  0.00  0.00    -0.018 A 
ATOM     22  C   UNL     1      -1.668  -6.785  -0.455  0.00  0.00    +0.007 A 
ATOM     23  C   UNL     1      -0.606  -7.170  -1.250  0.00  0.00    +0.020 A 
ATOM     24  C   UNL     1      -0.426  -6.588  -2.493  0.00  0.00    +0.041 A 
ATOM     25  C   UNL     1      -1.310  -5.621  -2.938  0.00  0.00    +0.020 A 
ATOM     26  C   UNL     1      -2.375  -5.241  -2.143  0.00  0.00    +0.007 A 
ATOM     27 CL   UNL     1       0.909  -7.071  -3.493  0.00  0.00    -0.084 Cl
ENDBRANCH  20  21
BRANCH  20  29
ATOM     28  N   UNL     1      -2.446  -3.592   1.088  0.00  0.00    -0.313 N 
ATOM     29  C   UNL     1      -3.188  -4.711   1.203  0.00  0.00    +0.238 C 
ATOM     30  O   UNL     1      -3.436  -5.163   2.301  0.00  0.00    -0.273 OA
ATOM     31  H   UNL     1      -2.247  -3.230   0.211  0.00  0.00    +0.149 HD
BRANCH  28  32
ATOM     32  C   UNL     1      -1.939  -2.922   2.289  0.00  0.00    +0.104 C 
BRANCH  32  33
ATOM     33  C   UNL     1      -1.133  -1.687   1.882  0.00  0.00    +0.018 C 
BRANCH  33  35
ATOM     34  C   UNL     1       0.202   0.248   2.729  0.00  0.00    +0.004 C 
ATOM     35  C   UNL     1      -0.604  -0.988   3.136  0.00  0.00    -0.002 C 
ENDBRANCH  33  35
ENDBRANCH  32  33
ENDBRANCH  28  32
ENDBRANCH  20  29
ENDBRANCH   1  20
TORSDOF 8
