REMARK  Name = ZINC41800011
REMARK  9 active torsions:
REMARK  status: ('A' for Active; 'I' for Inactive)
REMARK    1  A    between atoms: C_1  and  C_2
REMARK    2  A    between atoms: C_2  and  N_3
REMARK    3  A    between atoms: N_3  and  C_4
REMARK    4  A    between atoms: N_3  and  C_6
REMARK    5  A    between atoms: C_4  and  C_5
REMARK    6  A    between atoms: C_6  and  C_8
REMARK    7  A    between atoms: C_6  and  C_24
REMARK    8  A    between atoms: C_8  and  N_9
REMARK    9  A    between atoms: C_10  and  C_12
REMARK                            x       y       z     vdW  Elec       q    Type
REMARK                         _______ _______ _______ _____ _____    ______ ____
ROOT
ATOM      1  N   UNL     1      -0.868   1.186  -2.915  0.00  0.00    -0.311 N 
ATOM      2  C   UNL     1      -1.251   2.287  -3.592  0.00  0.00    +0.260 C 
ATOM      3  O   UNL     1      -0.859   2.470  -4.727  0.00  0.00    -0.269 OA
ATOM      4  H   UNL     1      -1.237   1.004  -2.037  0.00  0.00    +0.149 HD
ENDROOT
BRANCH   2   5
ATOM      5  C   UNL     1      -2.151   3.276  -2.950  0.00  0.00    +0.106 A 
ATOM      6  C   UNL     1      -2.487   3.107  -1.647  0.00  0.00    +0.082 A 
ATOM      7  C   UNL     1      -3.348   4.040  -1.010  0.00  0.00    +0.190 A 
ATOM      8  O   UNL     1      -3.663   3.908   0.161  0.00  0.00    -0.287 OA
ATOM      9  C   UNL     1      -3.847   5.172  -1.808  0.00  0.00    +0.045 A 
ATOM     10  C   UNL     1      -4.696   6.132  -1.256  0.00  0.00    +0.014 A 
ATOM     11  C   UNL     1      -5.138   7.169  -2.028  0.00  0.00    +0.001 A 
ATOM     12  C   UNL     1      -4.750   7.275  -3.357  0.00  0.00    +0.002 A 
ATOM     13  C   UNL     1      -3.914   6.339  -3.922  0.00  0.00    +0.026 A 
ATOM     14  C   UNL     1      -3.450   5.274  -3.154  0.00  0.00    +0.051 A 
ATOM     15  N   UNL     1      -2.608   4.327  -3.690  0.00  0.00    -0.350 N 
ATOM     16  H   UNL     1      -2.336   4.407  -4.617  0.00  0.00    +0.166 HD
ENDBRANCH   2   5
BRANCH   1  17
ATOM     17  C   UNL     1       0.106   0.265  -3.506  0.00  0.00    +0.094 C 
BRANCH  17  18
ATOM     18  C   UNL     1       0.271  -0.955  -2.598  0.00  0.00    -0.019 C 
BRANCH  18  19
ATOM     19  C   UNL     1       1.283  -1.896  -3.199  0.00  0.00    -0.041 A 
ATOM     20  C   UNL     1       2.590  -1.884  -2.750  0.00  0.00    +0.003 A 
ATOM     21  C   UNL     1       3.518  -2.747  -3.302  0.00  0.00    +0.000 A 
ATOM     22  C   UNL     1       3.140  -3.623  -4.302  0.00  0.00    +0.001 A 
ATOM     23  C   UNL     1       1.833  -3.636  -4.751  0.00  0.00    +0.020 A 
ATOM     24  C   UNL     1       0.902  -2.776  -4.196  0.00  0.00    +0.043 A 
ATOM     25 CL   UNL     1      -0.741  -2.797  -4.755  0.00  0.00    -0.083 Cl
ENDBRANCH  18  19
BRANCH  18  26
ATOM     26  N   UNL     1       0.734  -0.519  -1.273  0.00  0.00    +0.385 N 
ATOM     27  H   UNL     1       0.006   0.014  -0.821  0.00  0.00    -0.081 HD
BRANCH  26  29
ATOM     28  C   UNL     1      -0.221  -2.486  -0.170  0.00  0.00    -0.017 C 
ATOM     29  C   UNL     1       1.058  -1.696  -0.456  0.00  0.00    -0.081 C 
ENDBRANCH  26  29
BRANCH  26  30
ATOM     30  C   UNL     1       1.932   0.317  -1.424  0.00  0.00    -0.081 C 
ATOM     31  C   UNL     1       1.563   1.784  -1.192  0.00  0.00    -0.017 C 
ENDBRANCH  26  30
ENDBRANCH  18  26
ENDBRANCH  17  18
ENDBRANCH   1  17
TORSDOF 7
