REMARK  Name = ZINC39522651
REMARK  8 active torsions:
REMARK  status: ('A' for Active; 'I' for Inactive)
REMARK    1  A    between atoms: C_1  and  C_2
REMARK    2  A    between atoms: C_2  and  C_3
REMARK    3  A    between atoms: C_2  and  S_4
REMARK    4  A    between atoms: S_4  and  C_7
REMARK    5  A    between atoms: N_13  and  S_14
REMARK    6  A    between atoms: S_14  and  C_15
REMARK    7  A    between atoms: C_19  and  C_22
REMARK    8  A    between atoms: C_22  and  C_23
REMARK                            x       y       z     vdW  Elec       q    Type
REMARK                         _______ _______ _______ _____ _____    ______ ____
ROOT
ATOM      1  C   UNL     1      -1.329   4.300   2.218  0.00  0.00    +0.210 C 
ATOM      2  C   UNL     1      -1.165   5.819   2.117  0.00  0.00    +0.043 C 
ATOM      3  C   UNL     1      -1.915   6.328   0.883  0.00  0.00    +0.005 C 
ATOM      4  C   UNL     1      -1.381   5.615  -0.359  0.00  0.00    +0.023 C 
ATOM      5  C   UNL     1      -1.611   4.089  -0.201  0.00  0.00    +0.034 C 
ATOM      6  N   UNL     1      -0.870   3.667   0.980  0.00  0.00    -0.220 NA
ATOM      7  C   UNL     1      -1.068   3.443  -1.468  0.00  0.00    +0.023 C 
ATOM      8  C   UNL     1      -1.581   2.041  -1.739  0.00  0.00    +0.002 C 
ATOM      9  C   UNL     1      -3.104   1.979  -1.639  0.00  0.00    +0.004 C 
ATOM     10  C   UNL     1      -3.526   2.431  -0.239  0.00  0.00    -0.005 C 
ATOM     11  C   UNL     1      -3.111   3.884  -0.039  0.00  0.00    +0.027 C 
ENDROOT
BRANCH   1  12
ATOM     12  S   UNL     1      -0.339   3.685   3.611  0.00  0.00    -0.012 S 
ATOM     13  O   UNL     1       0.415   4.767   4.139  0.00  0.00    -0.173 OA
ATOM     14  O   UNL     1       0.340   2.508   3.195  0.00  0.00    -0.173 OA
BRANCH  12  16
ATOM     15  C   UNL     1      -0.928   2.602   6.053  0.00  0.00    +0.031 C 
ATOM     16  C   UNL     1      -1.603   3.220   4.826  0.00  0.00    +0.126 C 
ATOM     17  C   UNL     1      -2.388   4.464   5.247  0.00  0.00    +0.031 C 
ENDBRANCH  12  16
ENDBRANCH   1  12
BRANCH   6  18
ATOM     18  S   UNL     1      -0.717   1.926   1.156  0.00  0.00    -0.079 S 
ATOM     19  C   UNL     1       0.618   1.485   0.010  0.00  0.00    +0.103 C 
ENDBRANCH   6  18
BRANCH  10  20
ATOM     20  C   UNL     1      -5.050   2.315  -0.113  0.00  0.00    +0.038 C 
BRANCH  20  21
ATOM     21  C   UNL     1      -5.453   0.866  -0.207  0.00  0.00    -0.047 A 
ATOM     22  C   UNL     1      -5.739   0.307  -1.439  0.00  0.00    +0.003 A 
ATOM     23  C   UNL     1      -6.109  -1.022  -1.525  0.00  0.00    +0.000 A 
ATOM     24  C   UNL     1      -6.192  -1.792  -0.381  0.00  0.00    +0.000 A 
ATOM     25  C   UNL     1      -5.905  -1.234   0.851  0.00  0.00    +0.000 A 
ATOM     26  C   UNL     1      -5.531   0.095   0.937  0.00  0.00    +0.003 A 
ENDBRANCH  20  21
ENDBRANCH  10  20
TORSDOF 5
