REMARK  Name = ZINC66834298
REMARK  8 active torsions:
REMARK  status: ('A' for Active; 'I' for Inactive)
REMARK    1  A    between atoms: C_1  and  C_2
REMARK    2  A    between atoms: C_2  and  C_4
REMARK    3  A    between atoms: C_2  and  N_18
REMARK    4  A    between atoms: N_6  and  C_7
REMARK    5  A    between atoms: C_8  and  C_15
REMARK    6  A    between atoms: C_22  and  C_25
REMARK    7  A    between atoms: C_25  and  O_27
REMARK    8  A    between atoms: O_27  and  C_28
REMARK                            x       y       z     vdW  Elec       q    Type
REMARK                         _______ _______ _______ _____ _____    ______ ____
ROOT
ATOM      1  C   UNL     1       0.673  -0.401   1.292  0.00  0.00    +0.204 C 
ATOM      2  O   UNL     1       0.041  -0.974   2.153  0.00  0.00    -0.277 OA
ATOM      3  N   UNL     1       1.977  -0.120   1.487  0.00  0.00    -0.281 N 
ATOM      4  H   UNL     1       2.483   0.338   0.798  0.00  0.00    +0.155 HD
ENDROOT
BRANCH   3   5
ATOM      5  C   UNL     1       2.595  -0.486   2.673  0.00  0.00    +0.084 A 
ATOM      6  C   UNL     1       3.909  -0.276   3.047  0.00  0.00    +0.068 A 
ATOM      7  C   UNL     1       4.316  -0.762   4.364  0.00  0.00    -0.023 A 
ATOM      8  C   UNL     1       3.332  -1.365   5.055  0.00  0.00    -0.004 A 
ATOM      9  S   UNL     1       1.917  -1.277   3.988  0.00  0.00    -0.077 S 
ATOM     10  C   UNL     1       3.805  -1.848   6.399  0.00  0.00    +0.043 C 
ATOM     11  C   UNL     1       5.347  -1.848   6.294  0.00  0.00    +0.010 C 
ATOM     12  C   UNL     1       5.588  -0.777   5.211  0.00  0.00    +0.037 C 
BRANCH   6  13
ATOM     13  C   UNL     1       4.856   0.404   2.158  0.00  0.00    +0.244 C 
ATOM     14  O   UNL     1       4.981   1.614   2.214  0.00  0.00    -0.270 OA
ATOM     15  N   UNL     1       5.588  -0.309   1.280  0.00  0.00    -0.325 N 
ATOM     16  H   UNL     1       5.488  -1.273   1.236  0.00  0.00    +0.145 HD
ATOM     17  H   UNL     1       6.214   0.141   0.692  0.00  0.00    +0.145 HD
ENDBRANCH   6  13
ENDBRANCH   3   5
BRANCH   1  19
ATOM     18  C   UNL     1      -0.557   1.414   0.134  0.00  0.00    -0.004 C 
ATOM     19  C   UNL     1       0.002  -0.004   0.002  0.00  0.00    +0.016 C 
BRANCH  19  20
ATOM     20  N   UNL     1      -1.094  -0.938  -0.287  0.00  0.00    +0.388 N 
ATOM     21  C   UNL     1      -0.559  -2.300  -0.395  0.00  0.00    -0.078 C 
ATOM     22  C   UNL     1      -1.707  -3.288  -0.616  0.00  0.00    -0.018 C 
ATOM     23  C   UNL     1      -2.445  -2.924  -1.907  0.00  0.00    +0.011 C 
ATOM     24  C   UNL     1      -2.934  -1.476  -1.813  0.00  0.00    +0.081 C 
ATOM     25  C   UNL     1      -1.741  -0.556  -1.548  0.00  0.00    -0.063 C 
ATOM     26  H   UNL     1      -1.771  -0.903   0.461  0.00  0.00    -0.081 HD
BRANCH  24  27
ATOM     27  C   UNL     1      -3.596  -1.083  -3.109  0.00  0.00    +0.308 C 
ATOM     28  O   UNL     1      -3.160  -0.159  -3.754  0.00  0.00    -0.251 OA
BRANCH  27  29
ATOM     29  O   UNL     1      -4.669  -1.760  -3.547  0.00  0.00    -0.468 OA
ATOM     30  C   UNL     1      -5.245  -1.333  -4.783  0.00  0.00    +0.280 C 
ENDBRANCH  27  29
ENDBRANCH  24  27
ENDBRANCH  19  20
ENDBRANCH   1  19
TORSDOF 6
