REMARK  Name = ZINC39674153
REMARK  8 active torsions:
REMARK  status: ('A' for Active; 'I' for Inactive)
REMARK    1  A    between atoms: C_1  and  C_2
REMARK    2  A    between atoms: C_7  and  C_8
REMARK    3  A    between atoms: C_12  and  C_21
REMARK    4  A    between atoms: N_23  and  C_24
REMARK    5  A    between atoms: C_24  and  C_26
REMARK    6  A    between atoms: C_24  and  C_27
REMARK    7  A    between atoms: C_28  and  C_34
REMARK    8  A    between atoms: C_31  and  C_33
REMARK                            x       y       z     vdW  Elec       q    Type
REMARK                         _______ _______ _______ _____ _____    ______ ____
ROOT
ATOM      1  C   UNL     1       0.780   0.238   2.301  0.00  0.00    +0.247 C 
ATOM      2  O   UNL     1       0.623   1.421   2.534  0.00  0.00    -0.270 OA
ATOM      3  N   UNL     1       0.886  -0.641   3.317  0.00  0.00    -0.296 N 
ATOM      4  C   UNL     1       1.195  -2.088   3.238  0.00  0.00    +0.121 C 
ATOM      5  C   UNL     1       2.129  -2.354   4.440  0.00  0.00    +0.100 C 
ATOM      6  C   UNL     1       1.810  -1.230   5.441  0.00  0.00    -0.004 C 
ATOM      7  C   UNL     1       0.726  -0.376   4.767  0.00  0.00    +0.115 C 
ATOM      8  C   UNL     1       1.286  -1.817   6.747  0.00  0.00    -0.010 C 
ATOM      9  C   UNL     1       1.032  -0.685   7.745  0.00  0.00    -0.082 C 
ATOM     10  N   UNL     1       2.280   0.051   7.982  0.00  0.00    +0.379 N 
ATOM     11  C   UNL     1       2.728   0.691   6.739  0.00  0.00    -0.082 C 
ATOM     12  C   UNL     1       3.054  -0.384   5.699  0.00  0.00    -0.010 C 
ATOM     13  H   UNL     1       2.124   0.757   8.686  0.00  0.00    -0.086 HD
ATOM     14  H   UNL     1       2.990  -0.590   8.304  0.00  0.00    -0.086 HD
ENDROOT
BRANCH   1  21
ATOM     15  C   UNL     1       2.299   1.750   0.357  0.00  0.00    +0.044 C 
ATOM     16  C   UNL     1       1.585   0.485  -0.044  0.00  0.00    -0.038 A 
ATOM     17  C   UNL     1       1.656   0.033  -1.346  0.00  0.00    +0.004 A 
ATOM     18  C   UNL     1       1.002  -1.128  -1.715  0.00  0.00    +0.000 A 
ATOM     19  C   UNL     1       0.272  -1.845  -0.783  0.00  0.00    +0.001 A 
ATOM     20  C   UNL     1       0.193  -1.405   0.522  0.00  0.00    +0.013 A 
ATOM     21  C   UNL     1       0.856  -0.236   0.902  0.00  0.00    +0.040 A 
ENDBRANCH   1  21
BRANCH   5  22
ATOM     22  C   UNL     1       3.571  -2.283   4.010  0.00  0.00    +0.219 C 
ATOM     23  O   UNL     1       3.889  -1.595   3.063  0.00  0.00    -0.275 OA
ATOM     24  N   UNL     1       4.509  -2.985   4.677  0.00  0.00    -0.309 N 
ATOM     25  H   UNL     1       4.255  -3.536   5.434  0.00  0.00    +0.149 HD
BRANCH  24  26
ATOM     26  C   UNL     1       5.911  -2.917   4.259  0.00  0.00    +0.100 C 
ATOM     27  C   UNL     1       6.159  -3.930   3.139  0.00  0.00    +0.033 C 
BRANCH  26  28
ATOM     28  C   UNL     1       6.801  -3.237   5.432  0.00  0.00    -0.001 C 
ATOM     29  C   UNL     1       7.827  -2.525   5.904  0.00  0.00    +0.063 C 
ATOM     30  N   UNL     1       8.384  -3.136   6.973  0.00  0.00    -0.159 NA
ATOM     31  N   UNL     1       7.848  -4.200   7.291  0.00  0.00    -0.180 NA
ATOM     32  C   UNL     1       6.735  -4.440   6.356  0.00  0.00    +0.154 C 
ATOM     33  C   UNL     1       6.958  -5.736   5.574  0.00  0.00    +0.039 C 
ATOM     34  C   UNL     1       8.301  -1.218   5.323  0.00  0.00    +0.067 C 
ENDBRANCH  26  28
ENDBRANCH  24  26
ENDBRANCH   5  22
TORSDOF 4
