REMARK  Name = ZINC01022109
REMARK  10 active torsions:
REMARK  status: ('A' for Active; 'I' for Inactive)
REMARK    1  A    between atoms: C_1  and  C_2
REMARK    2  A    between atoms: C_2  and  O_3
REMARK    3  A    between atoms: O_3  and  C_4
REMARK    4  A    between atoms: C_4  and  C_6
REMARK    5  A    between atoms: C_7  and  N_29
REMARK    6  A    between atoms: C_11  and  C_13
REMARK    7  A    between atoms: C_15  and  N_19
REMARK    8  A    between atoms: C_16  and  C_18
REMARK    9  A    between atoms: C_25  and  C_27
REMARK   10  A    between atoms: C_25  and  C_28
REMARK                            x       y       z     vdW  Elec       q    Type
REMARK                         _______ _______ _______ _____ _____    ______ ____
ROOT
ATOM      1  C   UNL     1       1.621   5.642   1.200  0.00  0.00    +0.106 C 
ATOM      2  C   UNL     1       2.926   6.021   1.218  0.00  0.00    +0.195 C 
ATOM      3  O   UNL     1       3.674   6.001   0.105  0.00  0.00    -0.446 OA
ATOM      4  C   UNL     1       3.080   6.028  -1.104  0.00  0.00    +0.115 C 
ATOM      5  C   UNL     1       1.797   5.656  -1.263  0.00  0.00    +0.046 C 
ATOM      6  C   UNL     1       0.979   5.191  -0.082  0.00  0.00    +0.104 C 
ATOM      7  C   UNL     1       1.177   5.688  -2.527  0.00  0.00    +0.164 C 
ATOM      8  O   UNL     1       0.023   5.324  -2.635  0.00  0.00    -0.292 OA
ATOM      9  C   UNL     1       1.918   6.164  -3.747  0.00  0.00    +0.086 C 
ATOM     10  C   UNL     1       2.992   7.167  -3.312  0.00  0.00    -0.021 C 
ATOM     11  C   UNL     1       3.901   6.489  -2.285  0.00  0.00    +0.081 C 
ATOM     12  C   UNL     1       2.327   8.391  -2.680  0.00  0.00    +0.012 C 
ATOM     13  C   UNL     1       3.819   7.599  -4.524  0.00  0.00    +0.012 C 
ENDROOT
BRANCH   6  14
ATOM     14  C   UNL     1       0.893   3.686  -0.096  0.00  0.00    +0.005 A 
ATOM     15  C   UNL     1      -0.205   2.895  -0.171  0.00  0.00    +0.045 A 
ATOM     16  C   UNL     1      -0.044   1.522  -0.174  0.00  0.00    +0.136 A 
ATOM     17  C   UNL     1       1.208   1.008  -0.089  0.00  0.00    +0.017 A 
ATOM     18  S   UNL     1       2.210   2.483  -0.016  0.00  0.00    -0.095 S 
ATOM     19  C   UNL     1       1.641  -0.435  -0.068  0.00  0.00    +0.054 C 
BRANCH  16  20
ATOM     20  N   UNL     1      -1.219   0.627  -0.263  0.00  0.00    +0.057 N 
ATOM     21  O   UNL     1      -2.340   1.099  -0.339  0.00  0.00    -0.126 OA
ATOM     22  O   UNL     1      -1.067  -0.581  -0.261  0.00  0.00    -0.126 OA
ENDBRANCH  16  20
ENDBRANCH   6  14
BRANCH   2  23
ATOM     23  N   UNL     1       3.488   6.434   2.396  0.00  0.00    -0.329 N 
ATOM     24  H   UNL     1       2.984   6.998   3.002  0.00  0.00    +0.145 HD
ATOM     25  H   UNL     1       4.391   6.161   2.624  0.00  0.00    +0.145 HD
ENDBRANCH   2  23
BRANCH   1  26
ATOM     26  C   UNL     1       0.870   5.671   2.385  0.00  0.00    +0.341 C 
ATOM     27  O   UNL     1       1.414   5.920   3.446  0.00  0.00    -0.245 OA
BRANCH  26  28
ATOM     28  O   UNL     1      -0.458   5.424   2.349  0.00  0.00    -0.462 OA
BRANCH  28  30
ATOM     29  C   UNL     1      -2.641   5.167   3.353  0.00  0.00    +0.048 C 
ATOM     30  C   UNL     1      -1.160   5.470   3.592  0.00  0.00    +0.229 C 
ENDBRANCH  28  30
ENDBRANCH  26  28
ENDBRANCH   1  26
TORSDOF 6
