REMARK  Name = ZINC09044035
REMARK  6 active torsions:
REMARK  status: ('A' for Active; 'I' for Inactive)
REMARK    1  A    between atoms: C_1  and  C_2
REMARK    2  A    between atoms: C_15  and  S_17
REMARK    3  A    between atoms: S_17  and  C_18
REMARK    4  A    between atoms: C_18  and  C_19
REMARK    5  A    between atoms: C_19  and  C_21
REMARK    6  A    between atoms: N_27  and  C_32
REMARK                            x       y       z     vdW  Elec       q    Type
REMARK                         _______ _______ _______ _____ _____    ______ ____
ROOT
ATOM      1  C   UNL     1       1.397   3.572   0.258  0.00  0.00    +0.008 C 
ATOM      2  C   UNL     1       1.415   2.064  -0.000  0.00  0.00    -0.009 C 
ATOM      3  C   UNL     1      -0.019   1.524   0.010  0.00  0.00    +0.008 C 
ATOM      4  C   UNL     1       0.002  -0.004   0.002  0.00  0.00    +0.037 C 
ATOM      5  C   UNL     1       0.873  -0.481  -1.157  0.00  0.00    -0.023 A 
ATOM      6  C   UNL     1       1.763   0.356  -1.737  0.00  0.00    -0.004 A 
ATOM      7  S   UNL     1       2.540  -0.602  -3.014  0.00  0.00    -0.073 S 
ATOM      8  C   UNL     1       1.673  -2.120  -2.768  0.00  0.00    +0.117 A 
ATOM      9  C   UNL     1       0.801  -1.830  -1.694  0.00  0.00    +0.075 A 
ATOM     10  C   UNL     1      -0.058  -2.886  -1.245  0.00  0.00    +0.261 A 
ATOM     11  O   UNL     1      -0.844  -2.734  -0.326  0.00  0.00    -0.267 OA
ATOM     12  N   UNL     1       0.057  -4.062  -1.905  0.00  0.00    -0.301 N 
ATOM     13  H   UNL     1      -0.507  -4.803  -1.633  0.00  0.00    +0.171 HD
ATOM     14  C   UNL     1       0.928  -4.253  -2.935  0.00  0.00    +0.170 A 
ATOM     15  N   UNL     1       1.737  -3.299  -3.374  0.00  0.00    -0.216 NA
ATOM     16  C   UNL     1       2.034   1.784  -1.377  0.00  0.00    +0.046 C 
ENDROOT
BRANCH  14  17
ATOM     17  S   UNL     1       0.983  -5.833  -3.713  0.00  0.00    -0.080 S 
BRANCH  17  18
ATOM     18  C   UNL     1       2.262  -5.526  -4.957  0.00  0.00    +0.156 C 
BRANCH  18  19
ATOM     19  C   UNL     1       2.485  -6.777  -5.767  0.00  0.00    +0.173 C 
ATOM     20  O   UNL     1       1.842  -7.777  -5.528  0.00  0.00    -0.291 OA
BRANCH  19  21
ATOM     21  C   UNL     1       3.480  -6.784  -6.847  0.00  0.00    +0.020 A 
ATOM     22  C   UNL     1       4.223  -5.630  -7.125  0.00  0.00    +0.015 A 
ATOM     23  C   UNL     1       5.157  -5.638  -8.137  0.00  0.00    +0.048 A 
ATOM     24  C   UNL     1       5.365  -6.788  -8.884  0.00  0.00    +0.143 A 
ATOM     25  C   UNL     1       4.626  -7.944  -8.614  0.00  0.00    +0.079 A 
ATOM     26  C   UNL     1       3.693  -7.948  -7.598  0.00  0.00    +0.038 A 
ATOM     27  N   UNL     1       4.851  -9.096  -9.382  0.00  0.00    -0.269 N 
ATOM     28  C   UNL     1       5.969  -9.172 -10.136  0.00  0.00    +0.257 C 
ATOM     29  O   UNL     1       6.170 -10.146 -10.831  0.00  0.00    -0.272 OA
ATOM     30  C   UNL     1       6.966  -8.042 -10.109  0.00  0.00    +0.325 C 
ATOM     31  O   UNL     1       6.285  -6.805  -9.883  0.00  0.00    -0.481 OA
ATOM     32  C   UNL     1       3.887 -10.200  -9.366  0.00  0.00    +0.138 C 
ENDBRANCH  19  21
ENDBRANCH  18  19
ENDBRANCH  17  18
ENDBRANCH  14  17
TORSDOF 4
