REMARK  Name = ZINC05398575
REMARK  8 active torsions:
REMARK  status: ('A' for Active; 'I' for Inactive)
REMARK    1  A    between atoms: C_1  and  C_2
REMARK    2  A    between atoms: C_2  and  C_4
REMARK    3  A    between atoms: C_2  and  N_8
REMARK    4  A    between atoms: C_4  and  O_6
REMARK    5  A    between atoms: O_6  and  C_7
REMARK    6  A    between atoms: C_9  and  C_11
REMARK    7  A    between atoms: C_18  and  C_20
REMARK    8  A    between atoms: C_26  and  C_28
REMARK                            x       y       z     vdW  Elec       q    Type
REMARK                         _______ _______ _______ _____ _____    ______ ____
ROOT
ATOM      1  C   UNL     1      -4.686   1.320   0.863  0.00  0.00    +0.179 C 
ATOM      2  C   UNL     1      -4.989  -0.102   0.373  0.00  0.00    +0.139 C 
ATOM      3  N   UNL     1      -6.436  -0.337   0.479  0.00  0.00    -0.298 N 
ATOM      4  C   UNL     1      -7.359   0.597  -0.182  0.00  0.00    +0.127 C 
ATOM      5  C   UNL     1      -7.055   2.018   0.312  0.00  0.00    +0.127 C 
ATOM      6  N   UNL     1      -5.609   2.254   0.202  0.00  0.00    -0.287 N 
ATOM      7  C   UNL     1      -5.137   3.308  -0.492  0.00  0.00    +0.219 C 
ATOM      8  O   UNL     1      -3.942   3.448  -0.644  0.00  0.00    -0.275 OA
ATOM      9  C   UNL     1      -6.908  -1.391   1.173  0.00  0.00    +0.219 C 
ATOM     10  O   UNL     1      -6.143  -2.105   1.786  0.00  0.00    -0.275 OA
ENDROOT
BRANCH   9  11
ATOM     11  C   UNL     1      -8.387  -1.682   1.189  0.00  0.00    +0.072 C 
ATOM     12  C   UNL     1      -9.023  -1.033   2.421  0.00  0.00    -0.007 C 
ATOM     13  C   UNL     1     -10.513  -1.383   2.464  0.00  0.00    -0.082 C 
ATOM     14  C   UNL     1     -10.111  -3.483   1.322  0.00  0.00    -0.082 C 
ATOM     15  C   UNL     1      -8.610  -3.196   1.246  0.00  0.00    -0.007 C 
ATOM     16  N   UNL     1     -10.678  -2.848   2.527  0.00  0.00    +0.379 N 
ATOM     17  H   UNL     1     -11.678  -3.073   2.590  0.00  0.00    -0.086 HD
ATOM     18  H   UNL     1     -10.194  -3.207   3.358  0.00  0.00    -0.086 HD
ENDBRANCH   9  11
BRANCH   7  19
ATOM     19  C   UNL     1      -6.094   4.314  -1.079  0.00  0.00    +0.075 C 
ATOM     20  C   UNL     1      -6.862   3.672  -2.236  0.00  0.00    +0.013 C 
ATOM     21  C   UNL     1      -7.834   4.692  -2.831  0.00  0.00    +0.001 C 
ATOM     22  C   UNL     1      -7.050   5.901  -3.348  0.00  0.00    +0.000 C 
ATOM     23  C   UNL     1      -6.282   6.543  -2.191  0.00  0.00    +0.001 C 
ATOM     24  C   UNL     1      -5.310   5.522  -1.595  0.00  0.00    +0.013 C 
ENDBRANCH   7  19
BRANCH   1  26
ATOM     25  N   UNL     1      -2.432   2.134   1.476  0.00  0.00    -0.301 N 
ATOM     26  C   UNL     1      -3.265   1.683   0.517  0.00  0.00    +0.236 C 
ATOM     27  O   UNL     1      -2.871   1.569  -0.624  0.00  0.00    -0.274 OA
ATOM     28  H   UNL     1      -2.748   2.224   2.389  0.00  0.00    +0.150 HD
BRANCH  25  30
ATOM     29  C   UNL     1      -0.179   1.229   1.179  0.00  0.00    +0.040 C 
ATOM     30  C   UNL     1      -1.051   2.486   1.140  0.00  0.00    +0.179 C 
BRANCH  30  31
ATOM     31  C   UNL     1      -0.531   3.489   2.137  0.00  0.00    +0.327 C 
ATOM     32  O   UNL     1      -1.242   3.870   3.037  0.00  0.00    -0.249 OA
BRANCH  31  33
ATOM     33  O   UNL     1       0.721   3.959   2.026  0.00  0.00    -0.467 OA
ATOM     34  C   UNL     1       1.154   4.923   3.023  0.00  0.00    +0.280 C 
ENDBRANCH  31  33
ENDBRANCH  30  31
ENDBRANCH  25  30
ENDBRANCH   1  26
TORSDOF 6
