REMARK  Name = ZINC10850885
REMARK  10 active torsions:
REMARK  status: ('A' for Active; 'I' for Inactive)
REMARK    1  A    between atoms: C_1  and  C_2
REMARK    2  A    between atoms: C_5  and  N_30
REMARK    3  A    between atoms: C_7  and  S_8
REMARK    4  A    between atoms: S_8  and  N_11
REMARK    5  A    between atoms: C_14  and  C_17
REMARK    6  A    between atoms: N_19  and  C_20
REMARK    7  A    between atoms: C_20  and  C_22
REMARK    8  A    between atoms: C_20  and  C_27
REMARK    9  A    between atoms: C_27  and  C_28
REMARK   10  A    between atoms: C_27  and  C_29
REMARK                            x       y       z     vdW  Elec       q    Type
REMARK                         _______ _______ _______ _____ _____    ______ ____
ROOT
ATOM      1  N   UNL     1       6.188   7.493  -3.042  0.00  0.00    -0.177 NA
ATOM      2  C   UNL     1       4.955   7.773  -3.790  0.00  0.00    +0.110 C 
ATOM      3  C   UNL     1       3.763   7.666  -2.834  0.00  0.00    +0.030 C 
ATOM      4  C   UNL     1       3.785   6.298  -2.148  0.00  0.00    +0.077 C 
ATOM      5  C   UNL     1       5.072   6.155  -1.333  0.00  0.00    +0.030 C 
ATOM      6  C   UNL     1       6.279   6.245  -2.273  0.00  0.00    +0.110 C 
ENDROOT
BRANCH   4   7
ATOM      7  C   UNL     1       2.595   6.176  -1.232  0.00  0.00    +0.217 C 
ATOM      8  O   UNL     1       1.806   7.093  -1.137  0.00  0.00    -0.275 OA
ATOM      9  N   UNL     1       2.406   5.048  -0.519  0.00  0.00    -0.308 N 
ATOM     10  H   UNL     1       3.037   4.315  -0.595  0.00  0.00    +0.149 HD
BRANCH   9  11
ATOM     11  C   UNL     1       1.249   4.930   0.372  0.00  0.00    +0.112 C 
BRANCH  11  12
ATOM     12  C   UNL     1       0.909   3.474   0.562  0.00  0.00    +0.010 A 
ATOM     13  C   UNL     1      -0.310   2.883   0.620  0.00  0.00    +0.013 A 
ATOM     14  C   UNL     1      -0.383   1.514   0.798  0.00  0.00    +0.008 A 
ATOM     15  C   UNL     1       0.766   0.805   0.920  0.00  0.00    +0.045 A 
ATOM     16  S   UNL     1       2.005   2.081   0.771  0.00  0.00    -0.100 S 
ENDBRANCH  11  12
BRANCH  11  17
ATOM     17  C   UNL     1       1.582   5.557   1.727  0.00  0.00    +0.008 C 
ATOM     18  C   UNL     1       1.928   7.035   1.534  0.00  0.00    +0.009 C 
ATOM     19  C   UNL     1       0.374   5.433   2.658  0.00  0.00    +0.009 C 
ENDBRANCH  11  17
ENDBRANCH   9  11
ENDBRANCH   4   7
BRANCH   1  20
ATOM     20  S   UNL     1       7.451   8.564  -3.066  0.00  0.00    +0.061 S 
ATOM     21  O   UNL     1       8.634   7.801  -2.869  0.00  0.00    -0.153 OA
ATOM     22  O   UNL     1       7.259   9.393  -4.204  0.00  0.00    -0.153 OA
BRANCH  20  29
ATOM     23  C   UNL     1       5.229  10.584  -2.699  0.00  0.00    +0.046 C 
ATOM     24  C   UNL     1       6.229  10.497  -1.575  0.00  0.00    -0.024 A 
ATOM     25  C   UNL     1       6.093  11.308  -0.464  0.00  0.00    +0.007 A 
ATOM     26  C   UNL     1       7.013  11.232   0.565  0.00  0.00    +0.033 A 
ATOM     27  C   UNL     1       8.067  10.341   0.484  0.00  0.00    +0.128 A 
ATOM     28  C   UNL     1       8.201   9.527  -0.624  0.00  0.00    +0.061 A 
ATOM     29  C   UNL     1       7.280   9.602  -1.653  0.00  0.00    +0.111 A 
BRANCH  27  30
ATOM     30  N   UNL     1       9.053  10.260   1.586  0.00  0.00    +0.056 N 
ATOM     31  O   UNL     1       9.982   9.476   1.515  0.00  0.00    -0.126 OA
ATOM     32  O   UNL     1       8.935  10.978   2.562  0.00  0.00    -0.126 OA
ENDBRANCH  27  30
ENDBRANCH  20  29
ENDBRANCH   1  20
TORSDOF 7
