REMARK  Name = ZINC40917266
REMARK  10 active torsions:
REMARK  status: ('A' for Active; 'I' for Inactive)
REMARK    1  A    between atoms: C_1  and  C_2
REMARK    2  A    between atoms: C_2  and  O_3
REMARK    3  A    between atoms: O_3  and  C_4
REMARK    4  A    between atoms: C_6  and  C_20
REMARK    5  A    between atoms: C_9  and  O_10
REMARK    6  A    between atoms: O_10  and  C_11
REMARK    7  A    between atoms: C_11  and  C_12
REMARK    8  A    between atoms: C_16  and  C_18
REMARK    9  A    between atoms: C_22  and  C_31
REMARK   10  A    between atoms: C_23  and  C_30
REMARK                            x       y       z     vdW  Elec       q    Type
REMARK                         _______ _______ _______ _____ _____    ______ ____
ROOT
ATOM      1  C   UNL     1       0.752  -1.729  -1.086  0.00  0.00    +0.163 A 
ATOM      2  C   UNL     1       0.135  -2.640  -0.243  0.00  0.00    +0.055 A 
ATOM      3  C   UNL     1       0.334  -3.996  -0.427  0.00  0.00    -0.014 A 
ATOM      4  C   UNL     1       1.147  -4.446  -1.451  0.00  0.00    +0.025 A 
ATOM      5  C   UNL     1       1.765  -3.542  -2.295  0.00  0.00    +0.063 A 
ATOM      6  C   UNL     1       1.565  -2.181  -2.120  0.00  0.00    +0.176 A 
ATOM      7 BR   UNL     1       2.878  -4.162  -3.693  0.00  0.00    -0.046 Br
ENDROOT
BRANCH   3   8
ATOM      8  C   UNL     1      -0.337  -4.985   0.490  0.00  0.00    +0.179 C 
ATOM      9  C   UNL     1       0.710  -5.811   1.191  0.00  0.00    +0.060 C 
ATOM     10  C   UNL     1       0.938  -7.101   0.906  0.00  0.00    +0.018 C 
ATOM     11  N   UNL     1       0.220  -7.779  -0.050  0.00  0.00    -0.286 N 
ATOM     12  C   UNL     1      -0.926  -7.169  -0.538  0.00  0.00    +0.240 A 
ATOM     13  N   UNL     1      -1.203  -5.862  -0.289  0.00  0.00    -0.201 N 
ATOM     14  N   UNL     1      -2.419  -5.610  -0.921  0.00  0.00    -0.042 NA
ATOM     15  N   UNL     1      -2.776  -6.719  -1.485  0.00  0.00    -0.021 NA
ATOM     16  N   UNL     1      -1.900  -7.638  -1.264  0.00  0.00    -0.092 NA
ATOM     17  C   UNL     1       2.020  -7.832   1.658  0.00  0.00    +0.061 C 
ATOM     18  H   UNL     1       0.504  -8.649  -0.370  0.00  0.00    +0.155 HD
BRANCH   9  19
ATOM     19  C   UNL     1       1.490  -5.195   2.199  0.00  0.00    +0.241 C 
ATOM     20  O   UNL     1       1.042  -5.071   3.325  0.00  0.00    -0.271 OA
ATOM     21  N   UNL     1       2.728  -4.746   1.913  0.00  0.00    -0.325 N 
ATOM     22  H   UNL     1       3.085  -4.845   1.016  0.00  0.00    +0.145 HD
ATOM     23  H   UNL     1       3.263  -4.324   2.604  0.00  0.00    +0.145 HD
ENDBRANCH   9  19
ENDBRANCH   3   8
BRANCH   1  24
ATOM     24  O   UNL     1       0.557  -0.395  -0.906  0.00  0.00    -0.489 OA
BRANCH  24  26
ATOM     25  C   UNL     1      -0.388   1.523   0.220  0.00  0.00    +0.048 C 
ATOM     26  C   UNL     1      -0.290  -0.003   0.176  0.00  0.00    +0.226 C 
ENDBRANCH  24  26
ENDBRANCH   1  24
BRANCH   6  27
ATOM     27  O   UNL     1       2.167  -1.291  -2.953  0.00  0.00    -0.483 OA
BRANCH  27  28
ATOM     28  C   UNL     1       3.464  -0.824  -2.575  0.00  0.00    +0.264 C 
BRANCH  28  29
ATOM     29  C   UNL     1       3.969   0.148  -3.610  0.00  0.00    -0.010 A 
ATOM     30  C   UNL     1       4.698  -0.311  -4.691  0.00  0.00    +0.007 A 
ATOM     31  C   UNL     1       5.162   0.580  -5.641  0.00  0.00    +0.001 A 
ATOM     32  C   UNL     1       4.896   1.931  -5.509  0.00  0.00    +0.003 A 
ATOM     33  C   UNL     1       4.167   2.390  -4.428  0.00  0.00    -0.050 A 
ATOM     34  C   UNL     1       3.700   1.498  -3.481  0.00  0.00    +0.010 A 
ATOM     35  C   UNL     1       3.878   3.862  -4.284  0.00  0.00    +0.044 C 
ENDBRANCH  28  29
ENDBRANCH  27  28
ENDBRANCH   6  27
TORSDOF 7
