REMARK  Name = ZINC14953123
REMARK  7 active torsions:
REMARK  status: ('A' for Active; 'I' for Inactive)
REMARK    1  A    between atoms: C_5  and  C_7
REMARK    2  A    between atoms: C_7  and  C_8
REMARK    3  A    between atoms: C_17  and  C_19
REMARK    4  A    between atoms: C_19  and  C_20
REMARK    5  A    between atoms: C_20  and  C_22
REMARK    6  A    between atoms: C_20  and  N_53
REMARK    7  A    between atoms: C_22  and  C_23
REMARK                            x       y       z     vdW  Elec       q    Type
REMARK                         _______ _______ _______ _____ _____    ______ ____
ROOT
ATOM      1  C   UNL     1       2.008   4.087   1.187  0.00  0.00    +0.168 C 
ATOM      2  C   UNL     1       2.018   5.601   1.186  0.00  0.00    +0.234 C 
ATOM      3  O   UNL     1       1.729   6.215   2.191  0.00  0.00    -0.274 OA
ATOM      4  N   UNL     1       2.349   6.255   0.062  0.00  0.00    -0.314 N 
ATOM      5  C   UNL     1       2.758   5.513  -1.136  0.00  0.00    +0.106 C 
ATOM      6  C   UNL     1       4.146   4.912  -0.901  0.00  0.00    +0.038 C 
ATOM      7  C   UNL     1       4.020   3.533  -0.262  0.00  0.00    +0.110 C 
ATOM      8  N   UNL     1       3.388   3.608   1.053  0.00  0.00    -0.290 N 
ATOM      9  C   UNL     1       4.077   3.236   2.150  0.00  0.00    +0.215 C 
ATOM     10  O   UNL     1       3.556   3.297   3.243  0.00  0.00    -0.276 OA
ATOM     11  H   UNL     1       2.316   7.224   0.041  0.00  0.00    +0.149 HD
ENDROOT
BRANCH   1  12
ATOM     12  C   UNL     1       1.173   3.579   0.010  0.00  0.00    +0.087 C 
BRANCH  12  17
ATOM     13  C   UNL     1      -1.445   0.937   0.624  0.00  0.00    +0.003 A 
ATOM     14  C   UNL     1      -0.632  -0.093   1.071  0.00  0.00    +0.020 A 
ATOM     15  C   UNL     1       0.732   0.113   1.154  0.00  0.00    +0.111 A 
ATOM     16  N   UNL     1       1.260   1.272   0.814  0.00  0.00    -0.260 NA
ATOM     17  C   UNL     1       0.518   2.274   0.385  0.00  0.00    +0.044 A 
ATOM     18  C   UNL     1      -0.853   2.142   0.276  0.00  0.00    +0.023 A 
ENDBRANCH  12  17
ENDBRANCH   1  12
BRANCH   9  19
ATOM     19  C   UNL     1       5.495   2.743   2.018  0.00  0.00    +0.080 C 
BRANCH  19  20
ATOM     20  C   UNL     1       6.043   2.388   3.401  0.00  0.00    -0.062 C 
BRANCH  20  23
ATOM     21  H   UNL     1       6.741   4.284   3.795  0.00  0.00    -0.090 HD
ATOM     22  H   UNL     1       5.213   3.994   4.386  0.00  0.00    -0.090 HD
ATOM     23  N   UNL     1       6.139   3.594   4.242  0.00  0.00    +0.381 N 
ATOM     24  H   UNL     1       6.539   3.340   5.153  0.00  0.00    -0.090 HD
ENDBRANCH  20  23
BRANCH  20  25
ATOM     25  C   UNL     1       7.436   1.771   3.256  0.00  0.00    +0.022 C 
BRANCH  25  26
ATOM     26  C   UNL     1       7.924   1.309   4.605  0.00  0.00    -0.011 A 
ATOM     27  C   UNL     1       8.734   2.132   5.365  0.00  0.00    +0.047 A 
ATOM     28  C   UNL     1       9.179   1.711   6.606  0.00  0.00    +0.159 A 
ATOM     29  C   UNL     1       8.820   0.459   7.082  0.00  0.00    +0.161 A 
ATOM     30  C   UNL     1       8.014  -0.366   6.318  0.00  0.00    +0.080 A 
ATOM     31  C   UNL     1       7.565   0.059   5.079  0.00  0.00    +0.129 A 
ATOM     32  F   UNL     1       6.778  -0.746   4.333  0.00  0.00    -0.205 F 
ATOM     33  F   UNL     1       9.258   0.045   8.291  0.00  0.00    -0.202 F 
ATOM     34  F   UNL     1       9.966   2.518   7.351  0.00  0.00    -0.202 F 
ENDBRANCH  25  26
ENDBRANCH  20  25
ENDBRANCH  19  20
ENDBRANCH   9  19
TORSDOF 7
