REMARK  Name = ZINC37847905
REMARK  8 active torsions:
REMARK  status: ('A' for Active; 'I' for Inactive)
REMARK    1  A    between atoms: C_1  and  C_2
REMARK    2  A    between atoms: C_8  and  N_10
REMARK    3  A    between atoms: N_10  and  C_11
REMARK    4  A    between atoms: C_11  and  C_12
REMARK    5  A    between atoms: C_12  and  C_14
REMARK    6  A    between atoms: C_12  and  O_24
REMARK    7  A    between atoms: C_14  and  O_15
REMARK    8  A    between atoms: O_15  and  C_16
REMARK                            x       y       z     vdW  Elec       q    Type
REMARK                         _______ _______ _______ _____ _____    ______ ____
ROOT
ATOM      1  C   UNL     1       4.229   0.141   2.467  0.00  0.00    +0.135 C 
ENDROOT
BRANCH   1   2
ATOM      2  O   UNL     1       4.933  -0.413   1.354  0.00  0.00    -0.390 OA
ATOM      3  H   UNL     1       4.986  -1.379   1.362  0.00  0.00    +0.210 HD
ENDBRANCH   1   2
BRANCH   1   4
ATOM      4  C   UNL     1       2.794  -0.389   2.478  0.00  0.00    -0.047 C 
BRANCH   4   5
ATOM      5  N   UNL     1       2.120  -0.002   1.231  0.00  0.00    +0.383 N 
ATOM      6  H   UNL     1       2.617  -0.394   0.445  0.00  0.00    -0.085 HD
ATOM      7  H   UNL     1       2.107   1.004   1.154  0.00  0.00    -0.085 HD
BRANCH   5  14
ATOM      8  C   UNL     1      -0.019   1.526   0.010  0.00  0.00    +0.006 C 
ATOM      9  C   UNL     1       0.002  -0.004   0.002  0.00  0.00    -0.028 C 
ATOM     10  C   UNL     1      -1.433  -0.534   0.013  0.00  0.00    +0.002 C 
ATOM     11  C   UNL     1      -1.413  -2.063   0.004  0.00  0.00    +0.000 C 
ATOM     12  C   UNL     1      -0.673  -2.570   1.244  0.00  0.00    -0.002 C 
ATOM     13  C   UNL     1       0.763  -2.041   1.233  0.00  0.00    -0.016 C 
ATOM     14  C   UNL     1       0.742  -0.511   1.242  0.00  0.00    -0.069 C 
ENDBRANCH   5  14
ENDBRANCH   4   5
ENDBRANCH   1   4
BRANCH   1  15
ATOM     15  C   UNL     1       4.931  -0.262   3.766  0.00  0.00    +0.258 C 
BRANCH  15  16
ATOM     16  O   UNL     1       6.231   0.330   3.808  0.00  0.00    -0.488 OA
BRANCH  16  17
ATOM     17  C   UNL     1       6.993   0.070   4.904  0.00  0.00    +0.139 A 
ATOM     18  C   UNL     1       6.501  -0.742   5.914  0.00  0.00    +0.048 A 
ATOM     19  C   UNL     1       7.276  -1.004   7.027  0.00  0.00    +0.023 A 
ATOM     20  C   UNL     1       8.542  -0.458   7.135  0.00  0.00    +0.043 A 
ATOM     21  C   UNL     1       9.036   0.352   6.128  0.00  0.00    +0.043 A 
ATOM     22  C   UNL     1       8.266   0.613   5.010  0.00  0.00    +0.084 A 
ATOM     23 CL   UNL     1       8.888   1.624   3.743  0.00  0.00    -0.080 Cl
ATOM     24 CL   UNL     1       9.514  -0.790   8.535  0.00  0.00    -0.083 Cl
ENDBRANCH  16  17
ENDBRANCH  15  16
ENDBRANCH   1  15
TORSDOF 7
