REMARK  Name = ZINC09673569
REMARK  6 active torsions:
REMARK  status: ('A' for Active; 'I' for Inactive)
REMARK    1  A    between atoms: N_9  and  C_23
REMARK    2  A    between atoms: C_15  and  C_16
REMARK    3  A    between atoms: C_23  and  C_24
REMARK    4  A    between atoms: N_26  and  C_27
REMARK    5  A    between atoms: C_27  and  C_28
REMARK    6  A    between atoms: C_28  and  C_29
REMARK                            x       y       z     vdW  Elec       q    Type
REMARK                         _______ _______ _______ _____ _____    ______ ____
ROOT
ATOM      1  C   UNL     1       7.847   2.402   0.100  0.00  0.00    +0.001 A 
ATOM      2  C   UNL     1       7.999   3.602  -0.576  0.00  0.00    +0.002 A 
ATOM      3  C   UNL     1       6.934   4.172  -1.246  0.00  0.00    +0.027 A 
ATOM      4  C   UNL     1       5.701   3.536  -1.242  0.00  0.00    +0.062 A 
ATOM      5  C   UNL     1       5.546   2.326  -0.562  0.00  0.00    +0.063 A 
ATOM      6  C   UNL     1       6.626   1.758   0.112  0.00  0.00    +0.015 A 
ATOM      7  C   UNL     1       4.222   1.677  -0.571  0.00  0.00    +0.262 A 
ATOM      8  O   UNL     1       4.041   0.626   0.013  0.00  0.00    -0.267 OA
ATOM      9  N   UNL     1       3.224   2.271  -1.242  0.00  0.00    -0.284 N 
ATOM     10  C   UNL     1       3.397   3.489  -1.923  0.00  0.00    +0.137 A 
ATOM     11  N   UNL     1       4.615   4.119  -1.928  0.00  0.00    -0.282 N 
ATOM     12  C   UNL     1       4.733   5.303  -2.605  0.00  0.00    +0.132 A 
ATOM     13  S   UNL     1       6.120   6.291  -2.774  0.00  0.00    -0.024 S 
ATOM     14  S   UNL     1       3.151   5.563  -3.249  0.00  0.00    -0.059 S 
ATOM     15  C   UNL     1       2.370   4.099  -2.607  0.00  0.00    +0.063 A 
ENDROOT
BRANCH  15  16
ATOM     16  C   UNL     1       0.973   3.652  -2.768  0.00  0.00    -0.006 A 
ATOM     17  C   UNL     1       0.632   2.769  -3.796  0.00  0.00    +0.009 A 
ATOM     18  C   UNL     1      -0.674   2.351  -3.937  0.00  0.00    +0.002 A 
ATOM     19  C   UNL     1      -1.649   2.812  -3.070  0.00  0.00    +0.020 A 
ATOM     20  C   UNL     1      -1.321   3.692  -2.052  0.00  0.00    +0.042 A 
ATOM     21  C   UNL     1      -0.016   4.114  -1.896  0.00  0.00    +0.029 A 
ATOM     22 CL   UNL     1      -2.552   4.264  -0.971  0.00  0.00    -0.084 Cl
ENDBRANCH  15  16
BRANCH   9  23
ATOM     23  C   UNL     1       1.906   1.631  -1.262  0.00  0.00    +0.222 C 
BRANCH  23  24
ATOM     24  C   UNL     1       1.762   0.818  -2.523  0.00  0.00    +0.233 C 
ATOM     25  O   UNL     1       2.592   0.909  -3.402  0.00  0.00    -0.274 OA
ATOM     26  N   UNL     1       0.709  -0.010  -2.674  0.00  0.00    -0.314 N 
ATOM     27  H   UNL     1       0.085  -0.140  -1.942  0.00  0.00    +0.149 HD
BRANCH  26  28
ATOM     28  C   UNL     1       0.504  -0.710  -3.944  0.00  0.00    +0.108 C 
BRANCH  28  29
ATOM     29  C   UNL     1      -0.751  -1.580  -3.851  0.00  0.00    +0.049 C 
BRANCH  29  30
ATOM     30  C   UNL     1      -0.962  -2.300  -5.158  0.00  0.00    -0.072 C 
ATOM     31  C   UNL     1      -0.498  -3.503  -5.269  0.00  0.00    -0.028 C 
ATOM     32  C   UNL     1      -0.622  -4.340  -6.509  0.00  0.00    +0.027 C 
ATOM     33  C   UNL     1      -1.704  -3.767  -7.427  0.00  0.00    +0.004 C 
ATOM     34  C   UNL     1      -1.450  -2.263  -7.594  0.00  0.00    +0.005 C 
ATOM     35  C   UNL     1      -1.702  -1.580  -6.247  0.00  0.00    +0.030 C 
ENDBRANCH  29  30
ENDBRANCH  28  29
ENDBRANCH  26  28
ENDBRANCH  23  24
ENDBRANCH   9  23
TORSDOF 6
