REMARK  Name = ZINC46128542
REMARK  7 active torsions:
REMARK  status: ('A' for Active; 'I' for Inactive)
REMARK    1  A    between atoms: C_1  and  C_2
REMARK    2  A    between atoms: C_5  and  C_28
REMARK    3  A    between atoms: N_8  and  C_10
REMARK    4  A    between atoms: C_10  and  C_11
REMARK    5  A    between atoms: C_16  and  C_17
REMARK    6  A    between atoms: C_17  and  N_18
REMARK    7  A    between atoms: N_21  and  C_22
REMARK                            x       y       z     vdW  Elec       q    Type
REMARK                         _______ _______ _______ _____ _____    ______ ____
ROOT
ATOM      1  C   UNL     1       2.515  -2.036   2.264  0.00  0.00    -0.059 A 
ATOM      2  C   UNL     1       3.336  -2.982   1.678  0.00  0.00    +0.002 A 
ATOM      3  C   UNL     1       4.666  -2.690   1.442  0.00  0.00    +0.000 A 
ATOM      4  C   UNL     1       5.175  -1.453   1.790  0.00  0.00    +0.000 A 
ATOM      5  C   UNL     1       4.354  -0.508   2.375  0.00  0.00    +0.005 A 
ATOM      6  C   UNL     1       3.023  -0.797   2.608  0.00  0.00    -0.029 A 
ENDROOT
BRANCH   1   7
ATOM      7  C   UNL     1       1.064  -2.353   2.523  0.00  0.00    -0.043 C 
BRANCH   7  13
ATOM      8  C   UNL     1       2.235  -5.711   5.888  0.00  0.00    +0.005 C 
ATOM      9  C   UNL     1       1.496  -4.394   5.643  0.00  0.00    -0.031 C 
ATOM     10  C   UNL     1       0.020  -4.559   6.016  0.00  0.00    +0.003 C 
ATOM     11  C   UNL     1      -0.726  -3.261   5.694  0.00  0.00    -0.031 C 
ATOM     12  C   UNL     1      -0.536  -2.924   4.213  0.00  0.00    -0.075 C 
ATOM     13  N   UNL     1       0.893  -2.753   3.926  0.00  0.00    +0.383 N 
ATOM     14  C   UNL     1       1.604  -4.015   4.164  0.00  0.00    -0.075 C 
ATOM     15  C   UNL     1      -2.216  -3.440   5.991  0.00  0.00    +0.005 C 
ATOM     16  H   UNL     1       1.272  -2.036   4.526  0.00  0.00    -0.081 HD
ENDBRANCH   7  13
ENDBRANCH   1   7
BRANCH   6  17
ATOM     17  C   UNL     1       2.126   0.235   3.241  0.00  0.00    +0.141 C 
BRANCH  17  18
ATOM     18  N   UNL     1       2.001  -0.039   4.675  0.00  0.00    -0.295 N 
ATOM     19  C   UNL     1       1.155   0.690   5.429  0.00  0.00    +0.304 C 
ATOM     20  O   UNL     1       0.496   1.576   4.920  0.00  0.00    -0.252 OA
ATOM     21  N   UNL     1       1.040   0.437   6.748  0.00  0.00    -0.267 N 
ATOM     22  H   UNL     1       2.526  -0.746   5.081  0.00  0.00    +0.151 HD
ATOM     23  H   UNL     1       1.565  -0.270   7.154  0.00  0.00    +0.156 HD
BRANCH  21  24
ATOM     24  C   UNL     1       0.156   1.199   7.536  0.00  0.00    +0.072 A 
ATOM     25  C   UNL     1      -0.053   1.055   8.870  0.00  0.00    +0.128 A 
ATOM     26  N   UNL     1      -0.976   1.979   9.243  0.00  0.00    -0.283 N 
ATOM     27  H   UNL     1      -1.321   2.112  10.139  0.00  0.00    +0.188 HD
ATOM     28  N   UNL     1      -1.339   2.708   8.103  0.00  0.00    -0.180 NA
ATOM     29  C   UNL     1      -0.660   2.246   7.084  0.00  0.00    +0.157 A 
ENDBRANCH  21  24
ENDBRANCH  17  18
ENDBRANCH   6  17
TORSDOF 5
