REMARK  Name = ZINC15082621
REMARK  13 active torsions:
REMARK  status: ('A' for Active; 'I' for Inactive)
REMARK    1  A    between atoms: C_1  and  C_2
REMARK    2  A    between atoms: C_3  and  C_12
REMARK    3  A    between atoms: C_12  and  C_13
REMARK    4  A    between atoms: C_13  and  C_14
REMARK    5  A    between atoms: C_14  and  N_64
REMARK    6  A    between atoms: C_15  and  C_16
REMARK    7  A    between atoms: C_15  and  N_64
REMARK    8  A    between atoms: C_19  and  C_22
REMARK    9  A    between atoms: C_22  and  C_23
REMARK   10  A    between atoms: C_25  and  O_34
REMARK   11  A    between atoms: C_28  and  O_29
REMARK   12  A    between atoms: O_29  and  C_30
REMARK   13  A    between atoms: O_34  and  C_35
REMARK                            x       y       z     vdW  Elec       q    Type
REMARK                         _______ _______ _______ _____ _____    ______ ____
ROOT
ATOM      1  C   UNL     1       1.149   1.928   0.001  0.00  0.00    +0.044 C 
ATOM      2  N   UNL     1      -0.017   1.410   0.010  0.00  0.00    -0.096 NA
ATOM      3  O   UNL     1       0.002  -0.004   0.002  0.00  0.00    -0.390 OA
ATOM      4  C   UNL     1       1.317  -0.418  -0.423  0.00  0.00    +0.214 C 
ATOM      5  C   UNL     1       2.172   0.808  -0.022  0.00  0.00    +0.099 C 
ENDROOT
BRANCH   1   6
ATOM      6  C   UNL     1       1.458   3.403   0.013  0.00  0.00    -0.027 C 
BRANCH   6   7
ATOM      7  N   UNL     1       0.193   4.161   0.036  0.00  0.00    +0.383 N 
ATOM      8  H   UNL     1      -0.358   3.927  -0.798  0.00  0.00    -0.085 HD
ATOM      9  H   UNL     1      -0.337   3.909   0.878  0.00  0.00    -0.085 HD
BRANCH   7  10
ATOM     10  C   UNL     1       0.465   5.611   0.048  0.00  0.00    -0.082 C 
BRANCH  10  11
ATOM     11  C   UNL     1      -0.863   6.370   0.071  0.00  0.00    -0.014 C 
BRANCH  11  12
ATOM     12  C   UNL     1      -0.589   7.876   0.084  0.00  0.00    +0.036 C 
BRANCH  12  15
ATOM     13  C   UNL     1      -2.145   8.758   2.620  0.00  0.00    +0.063 C 
ATOM     14  C   UNL     1      -2.577   9.009   1.199  0.00  0.00    +0.017 A 
ATOM     15  C   UNL     1      -1.897   8.623   0.107  0.00  0.00    -0.019 A 
ATOM     16  C   UNL     1      -2.665   9.073  -1.056  0.00  0.00    +0.003 A 
ATOM     17  C   UNL     1      -2.486   8.968  -2.437  0.00  0.00    +0.010 A 
ATOM     18  C   UNL     1      -3.415   9.502  -3.285  0.00  0.00    +0.001 A 
ATOM     19  C   UNL     1      -4.540  10.143  -2.784  0.00  0.00    +0.002 A 
ATOM     20  C   UNL     1      -4.739  10.253  -1.426  0.00  0.00    +0.026 A 
ATOM     21  C   UNL     1      -3.806   9.717  -0.544  0.00  0.00    +0.047 A 
ATOM     22  N   UNL     1      -3.720   9.664   0.829  0.00  0.00    -0.358 N 
ATOM     23  H   UNL     1      -4.373  10.035   1.443  0.00  0.00    +0.166 HD
ENDBRANCH  12  15
ENDBRANCH  11  12
ENDBRANCH  10  11
ENDBRANCH   7  10
ENDBRANCH   6   7
ENDBRANCH   1   6
BRANCH   4  24
ATOM     24  C   UNL     1       1.768  -1.671   0.329  0.00  0.00    +0.086 C 
BRANCH  24  25
ATOM     25  C   UNL     1       0.892  -2.834  -0.061  0.00  0.00    +0.005 A 
ATOM     26  C   UNL     1      -0.205  -3.163   0.715  0.00  0.00    +0.057 A 
ATOM     27  C   UNL     1      -1.013  -4.231   0.359  0.00  0.00    +0.166 A 
ATOM     28  C   UNL     1      -0.723  -4.974  -0.780  0.00  0.00    +0.211 A 
ATOM     29  C   UNL     1       0.379  -4.643  -1.559  0.00  0.00    +0.211 A 
ATOM     30  C   UNL     1       1.183  -3.567  -1.200  0.00  0.00    +0.169 A 
ATOM     31  O   UNL     1       0.448  -5.513  -2.611  0.00  0.00    -0.449 OA
ATOM     32  C   UNL     1      -0.854  -6.123  -2.691  0.00  0.00    +0.467 C 
ATOM     33  O   UNL     1      -1.347  -6.052  -1.340  0.00  0.00    -0.449 OA
BRANCH  30  34
ATOM     34  O   UNL     1       2.259  -3.237  -1.965  0.00  0.00    -0.491 OA
ATOM     35  C   UNL     1       3.502  -3.862  -1.639  0.00  0.00    +0.277 C 
ENDBRANCH  30  34
BRANCH  27  36
ATOM     36  O   UNL     1      -2.091  -4.553   1.125  0.00  0.00    -0.491 OA
ATOM     37  C   UNL     1      -2.329  -3.746   2.280  0.00  0.00    +0.277 C 
ENDBRANCH  27  36
ENDBRANCH  24  25
ENDBRANCH   4  24
TORSDOF 10
