REMARK  Name = ZINC13570926
REMARK  6 active torsions:
REMARK  status: ('A' for Active; 'I' for Inactive)
REMARK    1  A    between atoms: C_1  and  C_2
REMARK    2  A    between atoms: C_2  and  C_3
REMARK    3  A    between atoms: N_6  and  N_7
REMARK    4  A    between atoms: C_8  and  C_10
REMARK    5  A    between atoms: C_10  and  C_12
REMARK    6  A    between atoms: C_10  and  N_18
REMARK                            x       y       z     vdW  Elec       q    Type
REMARK                         _______ _______ _______ _____ _____    ______ ____
ROOT
ATOM      1  C   UNL     1       2.345   1.428   0.529  0.00  0.00    -0.032 A 
ATOM      2  C   UNL     1       1.270   2.070   0.001  0.00  0.00    +0.071 A 
ATOM      3  C   UNL     1      -0.016   1.359   0.009  0.00  0.00    +0.212 A 
ATOM      4  N   UNL     1      -1.148   2.016   0.018  0.00  0.00    -0.274 N 
ATOM      5  O   UNL     1       0.002  -0.004   0.002  0.00  0.00    -0.438 OA
ATOM      6  C   UNL     1       0.941  -0.605   0.777  0.00  0.00    +0.141 A 
ATOM      7  C   UNL     1       2.137   0.074   1.067  0.00  0.00    +0.021 A 
ATOM      8  C   UNL     1       3.108  -0.539   1.858  0.00  0.00    +0.019 A 
ATOM      9  C   UNL     1       2.893  -1.810   2.358  0.00  0.00    -0.005 A 
ATOM     10  C   UNL     1       1.710  -2.478   2.076  0.00  0.00    +0.128 A 
ATOM     11  C   UNL     1       0.737  -1.873   1.284  0.00  0.00    +0.092 A 
ATOM     12  O   UNL     1       1.466  -3.718   2.558  0.00  0.00    -0.485 OA
ATOM     13  C   UNL     1       2.517  -4.500   3.102  0.00  0.00    +0.111 C 
ATOM     14  C   UNL     1       3.316  -5.139   1.959  0.00  0.00    +0.048 C 
ATOM     15  C   UNL     1       2.383  -5.997   1.103  0.00  0.00    +0.004 C 
ATOM     16  C   UNL     1       1.774  -7.104   1.967  0.00  0.00    +0.000 C 
ATOM     17  C   UNL     1       0.984  -6.476   3.116  0.00  0.00    +0.004 C 
ATOM     18  C   UNL     1       1.919  -5.616   3.968  0.00  0.00    +0.048 C 
ATOM     19  C   UNL     1       3.453  -3.655   3.954  0.00  0.00    +0.053 C 
ATOM     20  C   UNL     1       3.964  -2.440   3.204  0.00  0.00    +0.043 C 
ATOM     21  H   UNL     1      -2.102   1.468   0.020  0.00  0.00    +0.187 HD
ENDROOT
BRANCH   4  22
ATOM     22  N   UNL     1      -1.144   3.417   0.026  0.00  0.00    -0.226 N 
ATOM     23  C   UNL     1      -2.310   4.094   0.035  0.00  0.00    +0.252 C 
ATOM     24  O   UNL     1      -3.362   3.490   0.037  0.00  0.00    -0.272 OA
ATOM     25  H   UNL     1      -0.190   3.964   0.025  0.00  0.00    +0.175 HD
BRANCH  23  26
ATOM     26  C   UNL     1      -2.306   5.601   0.043  0.00  0.00    +0.170 C 
BRANCH  26  27
ATOM     27  C   UNL     1      -2.064   6.110  -1.354  0.00  0.00    -0.022 A 
ATOM     28  C   UNL     1      -3.103   6.147  -2.265  0.00  0.00    +0.005 A 
ATOM     29  C   UNL     1      -2.883   6.619  -3.546  0.00  0.00    +0.000 A 
ATOM     30  C   UNL     1      -1.621   7.043  -3.918  0.00  0.00    +0.000 A 
ATOM     31  C   UNL     1      -0.581   7.002  -3.009  0.00  0.00    +0.000 A 
ATOM     32  C   UNL     1      -0.803   6.535  -1.727  0.00  0.00    +0.005 A 
ENDBRANCH  26  27
BRANCH  26  33
ATOM     33  N   UNL     1      -3.603   6.091   0.526  0.00  0.00    -0.316 NA
ATOM     34  H   UNL     1      -3.601   7.191   0.532  0.00  0.00    +0.119 HD
ATOM     35  H   UNL     1      -4.402   5.730  -0.139  0.00  0.00    +0.119 HD
ENDBRANCH  26  33
ENDBRANCH  23  26
ENDBRANCH   4  22
BRANCH   1  37
ATOM     36  C   UNL     1       3.839   3.037  -0.624  0.00  0.00    +0.009 C 
ATOM     37  C   UNL     1       3.703   2.080   0.562  0.00  0.00    +0.032 C 
ENDBRANCH   1  37
TORSDOF 5
