REMARK  Name = ZINC66929536
REMARK  9 active torsions:
REMARK  status: ('A' for Active; 'I' for Inactive)
REMARK    1  A    between atoms: C_1  and  C_2
REMARK    2  A    between atoms: C_2  and  O_3
REMARK    3  A    between atoms: O_3  and  C_4
REMARK    4  A    between atoms: C_9  and  C_10
REMARK    5  A    between atoms: C_10  and  C_11
REMARK    6  A    between atoms: C_11  and  C_12
REMARK    7  A    between atoms: N_14  and  C_15
REMARK    8  A    between atoms: C_15  and  C_16
REMARK    9  A    between atoms: C_16  and  O_26
REMARK                            x       y       z     vdW  Elec       q    Type
REMARK                         _______ _______ _______ _____ _____    ______ ____
ROOT
ATOM      1  C   UNL     1      -5.669  -0.359  -1.423  0.00  0.00    +0.213 C 
ATOM      2  O   UNL     1      -6.104   0.017  -0.355  0.00  0.00    -0.276 OA
ATOM      3  N   UNL     1      -6.152   0.160  -2.569  0.00  0.00    -0.312 N 
ATOM      4  H   UNL     1      -5.803  -0.141  -3.422  0.00  0.00    +0.149 HD
ENDROOT
BRANCH   1   5
ATOM      5  C   UNL     1      -4.587  -1.408  -1.468  0.00  0.00    +0.100 C 
BRANCH   5   6
ATOM      6  C   UNL     1      -4.222  -1.825  -0.042  0.00  0.00    +0.048 C 
BRANCH   6  12
ATOM      7  C   UNL     1      -1.809  -2.495  -0.175  0.00  0.00    +0.124 A 
ATOM      8  C   UNL     1      -0.816  -3.463  -0.211  0.00  0.00    +0.046 A 
ATOM      9  C   UNL     1      -1.155  -4.801  -0.165  0.00  0.00    +0.004 A 
ATOM     10  C   UNL     1      -2.483  -5.177  -0.083  0.00  0.00    +0.000 A 
ATOM     11  C   UNL     1      -3.475  -4.214  -0.047  0.00  0.00    +0.007 A 
ATOM     12  C   UNL     1      -3.141  -2.874  -0.087  0.00  0.00    -0.005 A 
BRANCH   7  13
ATOM     13  O   UNL     1      -1.478  -1.178  -0.220  0.00  0.00    -0.492 OA
BRANCH  13  15
ATOM     14  C   UNL     1       0.088   0.658  -0.350  0.00  0.00    +0.048 C 
ATOM     15  C   UNL     1      -0.087  -0.861  -0.311  0.00  0.00    +0.225 C 
ENDBRANCH  13  15
ENDBRANCH   7  13
ENDBRANCH   6  12
ENDBRANCH   5   6
ENDBRANCH   1   5
BRANCH   3  16
ATOM     16  C   UNL     1      -7.203   1.180  -2.525  0.00  0.00    +0.143 C 
BRANCH  16  17
ATOM     17  C   UNL     1      -7.476   1.692  -3.940  0.00  0.00    +0.107 C 
ATOM     18  C   UNL     1      -6.178   2.230  -4.540  0.00  0.00    +0.041 C 
ATOM     19  C   UNL     1      -6.511   2.933  -5.861  0.00  0.00    +0.008 C 
ATOM     20  C   UNL     1      -7.274   4.218  -5.544  0.00  0.00    +0.035 C 
ATOM     21  C   UNL     1      -8.431   3.933  -4.623  0.00  0.00    -0.041 A 
ATOM     22  C   UNL     1      -8.522   2.775  -3.883  0.00  0.00    -0.011 A 
ATOM     23  C   UNL     1      -9.613   2.577  -3.047  0.00  0.00    +0.007 A 
ATOM     24  C   UNL     1     -10.607   3.529  -2.955  0.00  0.00    +0.000 A 
ATOM     25  C   UNL     1     -10.518   4.689  -3.700  0.00  0.00    +0.000 A 
ATOM     26  C   UNL     1      -9.434   4.889  -4.530  0.00  0.00    +0.004 A 
BRANCH  17  27
ATOM     27  O   UNL     1      -7.956   0.615  -4.747  0.00  0.00    -0.382 OA
ATOM     28  H   UNL     1      -8.775   0.216  -4.423  0.00  0.00    +0.211 HD
ENDBRANCH  17  27
ENDBRANCH  16  17
ENDBRANCH   3  16
TORSDOF 8
