REMARK  Name = ZINC20463038
REMARK  7 active torsions:
REMARK  status: ('A' for Active; 'I' for Inactive)
REMARK    1  A    between atoms: C_4  and  N_7
REMARK    2  A    between atoms: C_13  and  C_29
REMARK    3  A    between atoms: C_15  and  C_18
REMARK    4  A    between atoms: C_18  and  C_19
REMARK    5  A    between atoms: C_19  and  N_20
REMARK    6  A    between atoms: C_24  and  C_26
REMARK    7  A    between atoms: C_29  and  C_30
REMARK                            x       y       z     vdW  Elec       q    Type
REMARK                         _______ _______ _______ _____ _____    ______ ____
ROOT
ATOM      1  N   UNL     1       2.529   5.805   3.751  0.00  0.00    -0.269 N 
ATOM      2  C   UNL     1       2.004   6.413   2.669  0.00  0.00    +0.306 C 
ATOM      3  O   UNL     1       0.840   6.764   2.674  0.00  0.00    -0.252 OA
ATOM      4  N   UNL     1       2.770   6.633   1.581  0.00  0.00    -0.285 N 
ATOM      5  C   UNL     1       4.203   6.313   1.598  0.00  0.00    +0.109 C 
ATOM      6  C   UNL     1       4.519   5.403   0.406  0.00  0.00    +0.023 C 
ATOM      7  C   UNL     1       4.040   6.074  -0.883  0.00  0.00    +0.006 C 
ATOM      8  C   UNL     1       2.525   6.279  -0.821  0.00  0.00    +0.008 C 
ATOM      9  C   UNL     1       2.186   7.199   0.357  0.00  0.00    +0.113 C 
ATOM     10  H   UNL     1       3.609   5.600   3.796  0.00  0.00    +0.156 HD
ENDROOT
BRANCH   1  14
ATOM     11  C   UNL     1       0.062   4.700   6.921  0.00  0.00    +0.000 A 
ATOM     12  C   UNL     1       1.371   5.075   7.163  0.00  0.00    +0.002 A 
ATOM     13  C   UNL     1       2.191   5.441   6.114  0.00  0.00    +0.023 A 
ATOM     14  C   UNL     1       1.701   5.433   4.815  0.00  0.00    +0.035 A 
ATOM     15  C   UNL     1       0.384   5.061   4.576  0.00  0.00    +0.023 A 
ATOM     16  C   UNL     1      -0.429   4.690   5.628  0.00  0.00    +0.002 A 
ENDBRANCH   1  14
BRANCH   8  17
ATOM     17  C   UNL     1       1.833   4.928  -0.628  0.00  0.00    -0.013 C 
BRANCH  17  18
ATOM     18  C   UNL     1       0.316   5.117  -0.690  0.00  0.00    -0.077 C 
BRANCH  18  19
ATOM     19  N   UNL     1      -0.347   3.820  -0.506  0.00  0.00    +0.387 N 
ATOM     20  C   UNL     1      -0.230   2.983  -1.728  0.00  0.00    -0.078 C 
ATOM     21  C   UNL     1      -1.373   1.953  -1.605  0.00  0.00    -0.020 C 
ATOM     22  C   UNL     1      -2.413   2.616  -0.679  0.00  0.00    -0.008 C 
ATOM     23  C   UNL     1      -1.811   3.992  -0.320  0.00  0.00    +0.019 C 
ATOM     24  H   UNL     1       0.142   3.366   0.369  0.00  0.00    -0.081 HD
BRANCH  23  25
ATOM     25  C   UNL     1      -2.122   4.345   1.111  0.00  0.00    +0.197 C 
ATOM     26  O   UNL     1      -1.219   4.508   1.905  0.00  0.00    -0.278 OA
ATOM     27  N   UNL     1      -3.402   4.478   1.510  0.00  0.00    -0.331 N 
ATOM     28  H   UNL     1      -3.629   4.736   2.555  0.00  0.00    +0.145 HD
ATOM     29  H   UNL     1      -4.221   4.330   0.790  0.00  0.00    +0.145 HD
ENDBRANCH  23  25
ENDBRANCH  18  19
ENDBRANCH  17  18
ENDBRANCH   8  17
BRANCH   7  30
ATOM     30  C   UNL     1       4.384   5.183  -2.079  0.00  0.00    +0.129 C 
BRANCH  30  31
ATOM     31  C   UNL     1       5.882   5.081  -2.213  0.00  0.00    +0.356 C 
ATOM     32  O   UNL     1       6.600   5.660  -1.433  0.00  0.00    -0.246 OA
ATOM     33  O   UNL     1       6.418   4.345  -3.200  0.00  0.00    -0.246 OA
ENDBRANCH  30  31
ENDBRANCH   7  30
TORSDOF 7
