REMARK  Name = ZINC13781351
REMARK  3 active torsions:
REMARK  status: ('A' for Active; 'I' for Inactive)
REMARK    1  A    between atoms: C_8  and  C_21
REMARK    2  A    between atoms: C_10  and  N_11
REMARK    3  A    between atoms: C_12  and  C_14
REMARK                            x       y       z     vdW  Elec       q    Type
REMARK                         _______ _______ _______ _____ _____    ______ ____
ROOT
ATOM      1  C   UNL     1       0.548   1.017   1.183  0.00  0.00    +0.001 A 
ATOM      2  C   UNL     1       1.621   1.712   0.631  0.00  0.00    +0.001 A 
ATOM      3  C   UNL     1       2.753   1.061   0.240  0.00  0.00    +0.012 A 
ATOM      4  C   UNL     1       2.842  -0.328   0.395  0.00  0.00    +0.020 A 
ATOM      5  C   UNL     1       1.749  -1.036   0.958  0.00  0.00    -0.013 A 
ATOM      6  C   UNL     1       0.598  -0.335   1.349  0.00  0.00    +0.009 A 
ATOM      7  C   UNL     1       1.859  -2.430   1.104  0.00  0.00    +0.036 A 
ATOM      8  C   UNL     1       3.025  -3.050   0.695  0.00  0.00    +0.067 A 
ATOM      9  N   UNL     1       4.037  -2.357   0.169  0.00  0.00    -0.341 N 
ATOM     10  C   UNL     1       3.992  -1.051   0.006  0.00  0.00    +0.110 A 
ATOM     11  H   UNL     1       4.836  -2.833  -0.104  0.00  0.00    +0.167 HD
ENDROOT
BRANCH   8  12
ATOM     12  C   UNL     1       3.155  -4.519   0.845  0.00  0.00    +0.087 A 
ATOM     13  C   UNL     1       4.366  -5.140   0.547  0.00  0.00    +0.030 A 
ATOM     14  C   UNL     1       4.472  -6.513   0.693  0.00  0.00    +0.004 A 
ATOM     15  C   UNL     1       3.361  -7.220   1.131  0.00  0.00    +0.020 A 
ATOM     16  C   UNL     1       2.190  -6.539   1.409  0.00  0.00    +0.111 A 
ATOM     17  N   UNL     1       2.118  -5.232   1.267  0.00  0.00    -0.254 NA
ENDBRANCH   8  12
BRANCH  10  18
ATOM     18  N   UNL     1       5.076  -0.384  -0.547  0.00  0.00    -0.285 N 
ATOM     19  C   UNL     1       6.137  -1.100  -1.062  0.00  0.00    +0.123 C 
ATOM     20  N   UNL     1       7.350  -0.640  -0.948  0.00  0.00    -0.285 NA
ATOM     21  H   UNL     1       7.501   0.241  -0.570  0.00  0.00    +0.188 HD
ATOM     22  H   UNL     1       5.087   0.586  -0.571  0.00  0.00    +0.155 HD
BRANCH  19  23
ATOM     23  C   UNL     1       5.897  -2.391  -1.746  0.00  0.00    +0.015 A 
ATOM     24  C   UNL     1       4.619  -2.714  -2.201  0.00  0.00    +0.013 A 
ATOM     25  C   UNL     1       4.400  -3.918  -2.838  0.00  0.00    +0.020 A 
ATOM     26  C   UNL     1       5.447  -4.805  -3.025  0.00  0.00    +0.041 A 
ATOM     27  C   UNL     1       6.718  -4.489  -2.575  0.00  0.00    +0.020 A 
ATOM     28  C   UNL     1       6.949  -3.286  -1.942  0.00  0.00    +0.013 A 
ATOM     29 CL   UNL     1       5.165  -6.319  -3.826  0.00  0.00    -0.084 Cl
ENDBRANCH  19  23
ENDBRANCH  10  18
TORSDOF 3
