REMARK  Name = ZINC00989134
REMARK  8 active torsions:
REMARK  status: ('A' for Active; 'I' for Inactive)
REMARK    1  A    between atoms: C_1  and  C_2
REMARK    2  A    between atoms: C_2  and  O_3
REMARK    3  A    between atoms: O_3  and  C_4
REMARK    4  A    between atoms: C_4  and  C_6
REMARK    5  A    between atoms: C_7  and  N_35
REMARK    6  A    between atoms: C_12  and  C_13
REMARK    7  A    between atoms: C_22  and  C_32
REMARK    8  A    between atoms: C_23  and  C_25
REMARK                            x       y       z     vdW  Elec       q    Type
REMARK                         _______ _______ _______ _____ _____    ______ ____
ROOT
ATOM      1  C   UNL     1       3.806  -0.043   1.104  0.00  0.00    +0.087 C 
ATOM      2  C   UNL     1       2.804  -0.949   1.008  0.00  0.00    +0.115 C 
ATOM      3  N   UNL     1       1.449  -0.610   1.010  0.00  0.00    -0.257 N 
ATOM      4  C   UNL     1       0.460  -1.521   0.914  0.00  0.00    +0.271 A 
ATOM      5  O   UNL     1       0.713  -2.708   0.819  0.00  0.00    -0.266 OA
ATOM      6  C   UNL     1      -0.930  -1.048   0.926  0.00  0.00    +0.079 A 
ATOM      7  C   UNL     1      -2.083  -1.760   0.844  0.00  0.00    +0.028 C 
ATOM      8  S   UNL     1      -0.694   0.715   1.079  0.00  0.00    -0.065 S 
ATOM      9  C   UNL     1       1.088   0.719   1.114  0.00  0.00    +0.099 A 
ATOM     10  C   UNL     1       1.970   1.747   1.218  0.00  0.00    +0.057 C 
ATOM     11  C   UNL     1       3.451   1.426   1.220  0.00  0.00    +0.097 C 
ENDROOT
BRANCH   7  12
ATOM     12  C   UNL     1      -3.373  -1.095   1.071  0.00  0.00    -0.024 A 
ATOM     13  C   UNL     1      -3.413   0.221   1.546  0.00  0.00    +0.009 A 
ATOM     14  C   UNL     1      -4.628   0.839   1.752  0.00  0.00    +0.020 A 
ATOM     15  C   UNL     1      -5.808   0.158   1.499  0.00  0.00    +0.041 A 
ATOM     16  C   UNL     1      -5.776  -1.147   1.033  0.00  0.00    +0.020 A 
ATOM     17  C   UNL     1      -4.569  -1.777   0.817  0.00  0.00    +0.009 A 
ATOM     18 CL   UNL     1      -7.332   0.943   1.767  0.00  0.00    -0.084 Cl
ENDBRANCH   7  12
BRANCH  11  19
ATOM     19  C   UNL     1       4.046   1.955   2.500  0.00  0.00    -0.035 A 
ATOM     20  C   UNL     1       3.671   1.410   3.713  0.00  0.00    +0.006 A 
ATOM     21  C   UNL     1       4.221   1.891   4.887  0.00  0.00    +0.020 A 
ATOM     22  C   UNL     1       5.138   2.926   4.847  0.00  0.00    +0.041 A 
ATOM     23  C   UNL     1       5.509   3.475   3.633  0.00  0.00    +0.020 A 
ATOM     24  C   UNL     1       4.963   2.990   2.460  0.00  0.00    +0.006 A 
ATOM     25 CL   UNL     1       5.824   3.535   6.321  0.00  0.00    -0.084 Cl
ENDBRANCH  11  19
BRANCH  10  26
ATOM     26  C   UNL     1       1.520   3.073   1.321  0.00  0.00    +0.241 C 
ATOM     27  O   UNL     1       0.325   3.313   1.318  0.00  0.00    -0.271 OA
ATOM     28  N   UNL     1       2.410   4.080   1.423  0.00  0.00    -0.326 N 
ATOM     29  H   UNL     1       3.361   3.889   1.426  0.00  0.00    +0.145 HD
ATOM     30  H   UNL     1       2.099   4.996   1.495  0.00  0.00    +0.145 HD
ENDBRANCH  10  26
BRANCH   2  31
ATOM     31  N   UNL     1       3.139  -2.274   0.903  0.00  0.00    -0.344 N 
ATOM     32  H   UNL     1       2.610  -2.865   0.346  0.00  0.00    +0.144 HD
ATOM     33  H   UNL     1       3.906  -2.620   1.387  0.00  0.00    +0.144 HD
ENDBRANCH   2  31
BRANCH   1  34
ATOM     34  C   UNL     1       5.147  -0.455   1.096  0.00  0.00    +0.339 C 
ATOM     35  O   UNL     1       5.422  -1.630   0.927  0.00  0.00    -0.245 OA
BRANCH  34  36
ATOM     36  O   UNL     1       6.133   0.450   1.276  0.00  0.00    -0.462 OA
BRANCH  36  38
ATOM     37  C   UNL     1       8.446   1.121   1.474  0.00  0.00    +0.048 C 
ATOM     38  C   UNL     1       7.475  -0.041   1.256  0.00  0.00    +0.229 C 
ENDBRANCH  36  38
ENDBRANCH  34  36
ENDBRANCH   1  34
TORSDOF 7
