REMARK  Name = ZINC12632016
REMARK  4 active torsions:
REMARK  status: ('A' for Active; 'I' for Inactive)
REMARK    1  A    between atoms: N_9  and  C_21
REMARK    2  A    between atoms: C_10  and  C_13
REMARK    3  A    between atoms: C_16  and  O_20
REMARK    4  A    between atoms: C_17  and  O_19
REMARK                            x       y       z     vdW  Elec       q    Type
REMARK                         _______ _______ _______ _____ _____    ______ ____
ROOT
ATOM      1  C   UNL     1       7.285  -1.027  -1.260  0.00  0.00    +0.001 A 
ATOM      2  C   UNL     1       7.017  -0.385  -2.459  0.00  0.00    +0.002 A 
ATOM      3  C   UNL     1       6.579   0.925  -2.470  0.00  0.00    +0.024 A 
ATOM      4  C   UNL     1       6.404   1.601  -1.274  0.00  0.00    +0.041 A 
ATOM      5  C   UNL     1       6.657   0.947  -0.056  0.00  0.00    +0.058 A 
ATOM      6  C   UNL     1       7.111  -0.371  -0.059  0.00  0.00    +0.015 A 
ATOM      7  C   UNL     1       6.451   1.690   1.199  0.00  0.00    +0.254 C 
ATOM      8  O   UNL     1       6.824   1.222   2.258  0.00  0.00    -0.270 OA
ATOM      9  N   UNL     1       5.844   2.894   1.163  0.00  0.00    -0.244 N 
ATOM     10  C   UNL     1       5.238   3.400  -0.068  0.00  0.00    +0.198 C 
ATOM     11  N   UNL     1       5.991   2.928  -1.236  0.00  0.00    -0.321 N 
ATOM     12  H   UNL     1       6.197   3.531  -1.968  0.00  0.00    +0.148 HD
ENDROOT
BRANCH   9  13
ATOM     13  C   UNL     1       5.793   3.672   2.325  0.00  0.00    +0.039 A 
ATOM     14  C   UNL     1       6.339   4.949   2.331  0.00  0.00    +0.025 A 
ATOM     15  C   UNL     1       6.282   5.717   3.478  0.00  0.00    +0.022 A 
ATOM     16  C   UNL     1       5.692   5.211   4.623  0.00  0.00    +0.041 A 
ATOM     17  C   UNL     1       5.152   3.937   4.620  0.00  0.00    +0.022 A 
ATOM     18  C   UNL     1       5.201   3.167   3.475  0.00  0.00    +0.025 A 
ATOM     19 CL   UNL     1       5.630   6.176   6.064  0.00  0.00    -0.084 Cl
ENDBRANCH   9  13
BRANCH  10  20
ATOM     20  C   UNL     1       3.816   2.912  -0.162  0.00  0.00    -0.005 A 
ATOM     21  C   UNL     1       3.089   2.680   0.992  0.00  0.00    +0.011 A 
ATOM     22  C   UNL     1       1.782   2.238   0.911  0.00  0.00    +0.049 A 
ATOM     23  C   UNL     1       1.200   2.017  -0.327  0.00  0.00    +0.158 A 
ATOM     24  C   UNL     1       1.931   2.251  -1.487  0.00  0.00    +0.159 A 
ATOM     25  C   UNL     1       3.239   2.699  -1.400  0.00  0.00    +0.056 A 
BRANCH  24  26
ATOM     26  O   UNL     1       1.363   2.040  -2.705  0.00  0.00    -0.503 OA
ATOM     27  H   UNL     1       0.912   2.815  -3.068  0.00  0.00    +0.292 HD
ENDBRANCH  24  26
BRANCH  23  28
ATOM     28  O   UNL     1      -0.084   1.577  -0.407  0.00  0.00    -0.503 OA
ATOM     29  H   UNL     1      -0.170   0.614  -0.419  0.00  0.00    +0.292 HD
ENDBRANCH  23  28
ENDBRANCH  10  20
TORSDOF 4
