REMARK  Name = ZINC60466730
REMARK  10 active torsions:
REMARK  status: ('A' for Active; 'I' for Inactive)
REMARK    1  A    between atoms: C_1  and  C_2
REMARK    2  A    between atoms: C_6  and  C_26
REMARK    3  A    between atoms: C_7  and  N_8
REMARK    4  A    between atoms: C_9  and  C_13
REMARK    5  A    between atoms: C_13  and  N_14
REMARK    6  A    between atoms: N_14  and  C_15
REMARK    7  A    between atoms: C_15  and  C_16
REMARK    8  A    between atoms: C_15  and  C_23
REMARK    9  A    between atoms: C_23  and  C_24
REMARK   10  A    between atoms: C_23  and  C_25
REMARK                            x       y       z     vdW  Elec       q    Type
REMARK                         _______ _______ _______ _____ _____    ______ ____
ROOT
ATOM      1  C   UNL     1       0.351  -1.686   3.693  0.00  0.00    -0.002 C 
ENDROOT
BRANCH   1   3
ATOM      2  N   UNL     1       0.185   0.214   1.999  0.00  0.00    -0.199 N 
ATOM      3  C   UNL     1       0.246  -0.244   3.268  0.00  0.00    +0.140 A 
ATOM      4  N   UNL     1       0.195   0.795   4.059  0.00  0.00    -0.115 NA
ATOM      5  N   UNL     1       0.106   1.880   3.377  0.00  0.00    -0.023 NA
ATOM      6  N   UNL     1       0.101   1.613   2.116  0.00  0.00    -0.039 NA
BRANCH   2  13
ATOM      7  C   UNL     1      -2.275  -0.835   1.025  0.00  0.00    +0.046 C 
ATOM      8  C   UNL     1      -0.970  -1.072   0.309  0.00  0.00    -0.025 A 
ATOM      9  C   UNL     1      -0.945  -1.811  -0.858  0.00  0.00    +0.005 A 
ATOM     10  C   UNL     1       0.252  -2.029  -1.515  0.00  0.00    +0.001 A 
ATOM     11  C   UNL     1       1.427  -1.507  -1.007  0.00  0.00    +0.005 A 
ATOM     12  C   UNL     1       1.409  -0.767   0.159  0.00  0.00    -0.025 A 
ATOM     13  C   UNL     1       0.208  -0.542   0.818  0.00  0.00    +0.075 A 
ATOM     14  C   UNL     1       2.691  -0.199   0.713  0.00  0.00    +0.046 C 
ENDBRANCH   2  13
ENDBRANCH   1   3
BRANCH   1  15
ATOM     15  N   UNL     1       1.763  -2.030   3.910  0.00  0.00    +0.388 N 
ATOM     16  H   UNL     1       2.283  -1.872   3.060  0.00  0.00    -0.084 HD
ATOM     17  H   UNL     1       2.140  -1.454   4.647  0.00  0.00    -0.084 HD
BRANCH  15  18
ATOM     18  C   UNL     1       1.869  -3.445   4.292  0.00  0.00    -0.038 C 
BRANCH  18  19
ATOM     19  C   UNL     1       3.303  -3.770   4.621  0.00  0.00    -0.061 A 
ATOM     20  C   UNL     1       4.325  -3.238   3.858  0.00  0.00    +0.003 A 
ATOM     21  C   UNL     1       5.641  -3.536   4.159  0.00  0.00    +0.020 A 
ATOM     22  C   UNL     1       5.935  -4.367   5.224  0.00  0.00    +0.041 A 
ATOM     23  C   UNL     1       4.912  -4.900   5.988  0.00  0.00    +0.020 A 
ATOM     24  C   UNL     1       3.596  -4.597   5.690  0.00  0.00    +0.003 A 
ATOM     25 CL   UNL     1       7.587  -4.743   5.603  0.00  0.00    -0.084 Cl
ENDBRANCH  18  19
BRANCH  18  26
ATOM     26  C   UNL     1       1.400  -4.323   3.131  0.00  0.00    -0.027 C 
ATOM     27  C   UNL     1       2.328  -4.122   1.932  0.00  0.00    +0.006 C 
ATOM     28  C   UNL     1       1.430  -5.792   3.558  0.00  0.00    +0.006 C 
ENDBRANCH  18  26
ENDBRANCH  15  18
ENDBRANCH   1  15
TORSDOF 6
