REMARK  Name = ZINC57614620
REMARK  6 active torsions:
REMARK  status: ('A' for Active; 'I' for Inactive)
REMARK    1  A    between atoms: C_1  and  C_2
REMARK    2  A    between atoms: C_2  and  C_4
REMARK    3  A    between atoms: C_2  and  N_16
REMARK    4  A    between atoms: N_6  and  C_7
REMARK    5  A    between atoms: N_19  and  S_22
REMARK    6  A    between atoms: S_22  and  N_25
REMARK                            x       y       z     vdW  Elec       q    Type
REMARK                         _______ _______ _______ _____ _____    ______ ____
ROOT
ATOM      1  N   UNL     1       0.679  -0.492  -1.207  0.00  0.00    -0.289 NA
ATOM      2  C   UNL     1       2.055   0.019  -1.266  0.00  0.00    +0.102 C 
ATOM      3  C   UNL     1       2.790  -0.640  -2.438  0.00  0.00    +0.126 C 
ATOM      4  N   UNL     1       1.998  -0.438  -3.660  0.00  0.00    -0.164 NA
ATOM      5  C   UNL     1       0.573  -0.800  -3.634  0.00  0.00    +0.126 C 
ATOM      6  C   UNL     1      -0.076  -0.134  -2.415  0.00  0.00    +0.102 C 
ENDROOT
BRANCH   4   7
ATOM      7  S   UNL     1       2.692   0.181  -5.031  0.00  0.00    +0.100 S 
ATOM      8  O   UNL     1       1.643   0.763  -5.791  0.00  0.00    -0.141 OA
ATOM      9  O   UNL     1       3.831   0.921  -4.611  0.00  0.00    -0.141 OA
BRANCH   7  10
ATOM     10  N   UNL     1       3.260  -1.101  -5.913  0.00  0.00    -0.166 NA
ATOM     11  C   UNL     1       4.611  -1.560  -5.677  0.00  0.00    +0.110 C 
ATOM     12  C   UNL     1       5.589  -0.793  -6.599  0.00  0.00    +0.017 C 
ATOM     13  C   UNL     1       5.422  -1.226  -7.995  0.00  0.00    +0.001 C 
ATOM     14  C   UNL     1       4.044  -0.936  -8.582  0.00  0.00    +0.001 C 
ATOM     15  C   UNL     1       3.101  -2.056  -8.220  0.00  0.00    +0.017 C 
ATOM     16  C   UNL     1       2.365  -1.730  -6.904  0.00  0.00    +0.110 C 
ENDBRANCH   7  10
ENDBRANCH   4   7
BRANCH   1  18
ATOM     17  C   UNL     1      -0.037   1.513   0.004  0.00  0.00    +0.034 C 
ATOM     18  C   UNL     1      -0.007  -0.017   0.002  0.00  0.00    +0.140 C 
BRANCH  18  19
ATOM     19  C   UNL     1       0.729  -0.506   1.223  0.00  0.00    +0.234 C 
ATOM     20  O   UNL     1       1.726  -1.184   1.098  0.00  0.00    -0.274 OA
ATOM     21  N   UNL     1       0.278  -0.191   2.453  0.00  0.00    -0.282 N 
ATOM     22  H   UNL     1      -0.472   0.417   2.554  0.00  0.00    +0.155 HD
BRANCH  21  23
ATOM     23  C   UNL     1       0.892  -0.740   3.587  0.00  0.00    +0.072 A 
ATOM     24  C   UNL     1       1.576  -1.944   3.492  0.00  0.00    +0.029 A 
ATOM     25  C   UNL     1       2.181  -2.485   4.610  0.00  0.00    +0.043 A 
ATOM     26  C   UNL     1       2.107  -1.828   5.826  0.00  0.00    +0.161 A 
ATOM     27  C   UNL     1       1.426  -0.624   5.926  0.00  0.00    +0.195 A 
ATOM     28  C   UNL     1       0.823  -0.076   4.806  0.00  0.00    +0.182 A 
ATOM     29  F   UNL     1       0.164   1.099   4.900  0.00  0.00    -0.200 F 
ATOM     30  F   UNL     1       1.355   0.015   7.113  0.00  0.00    -0.199 F 
ATOM     31  F   UNL     1       2.700  -2.359   6.917  0.00  0.00    -0.202 F 
ENDBRANCH  21  23
ENDBRANCH  18  19
ENDBRANCH   1  18
TORSDOF 5
