REMARK  Name = ZINC02263684
REMARK  9 active torsions:
REMARK  status: ('A' for Active; 'I' for Inactive)
REMARK    1  A    between atoms: C_1  and  C_2
REMARK    2  A    between atoms: C_2  and  N_3
REMARK    3  A    between atoms: C_14  and  N_16
REMARK    4  A    between atoms: C_17  and  C_19
REMARK    5  A    between atoms: C_19  and  S_20
REMARK    6  A    between atoms: S_20  and  C_21
REMARK    7  A    between atoms: C_24  and  C_28
REMARK    8  A    between atoms: N_25  and  C_26
REMARK    9  A    between atoms: C_26  and  C_27
REMARK                            x       y       z     vdW  Elec       q    Type
REMARK                         _______ _______ _______ _____ _____    ______ ____
ROOT
ATOM      1  N   UNL     1       5.972  -1.675  -2.393  0.00  0.00    -0.285 N 
ATOM      2  C   UNL     1       6.978  -1.466  -1.522  0.00  0.00    +0.227 C 
ATOM      3  O   UNL     1       6.736  -1.089  -0.395  0.00  0.00    -0.275 OA
ATOM      4  H   UNL     1       6.158  -2.049  -3.269  0.00  0.00    +0.155 HD
ENDROOT
BRANCH   1  16
ATOM      5  N   UNL     1       0.855  -0.207  -0.833  0.00  0.00    -0.340 N 
ATOM      6  C   UNL     1       1.119   0.886  -0.028  0.00  0.00    +0.050 A 
ATOM      7  C   UNL     1       0.291   1.739   0.697  0.00  0.00    +0.026 A 
ATOM      8  C   UNL     1       0.835   2.771   1.430  0.00  0.00    +0.002 A 
ATOM      9  C   UNL     1       2.207   2.971   1.456  0.00  0.00    +0.001 A 
ATOM     10  C   UNL     1       3.043   2.138   0.746  0.00  0.00    +0.010 A 
ATOM     11  C   UNL     1       2.507   1.091  -0.000  0.00  0.00    +0.008 A 
ATOM     12  C   UNL     1       3.102   0.043  -0.851  0.00  0.00    +0.009 A 
ATOM     13  C   UNL     1       2.036  -0.731  -1.333  0.00  0.00    +0.050 A 
ATOM     14  C   UNL     1       2.299  -1.811  -2.170  0.00  0.00    +0.028 A 
ATOM     15  C   UNL     1       3.597  -2.117  -2.516  0.00  0.00    +0.025 A 
ATOM     16  C   UNL     1       4.656  -1.353  -2.035  0.00  0.00    +0.034 A 
ATOM     17  C   UNL     1       4.410  -0.270  -1.208  0.00  0.00    +0.034 A 
BRANCH   5  19
ATOM     18  C   UNL     1      -0.844  -1.787  -0.059  0.00  0.00    +0.027 C 
ATOM     19  C   UNL     1      -0.482  -0.738  -1.112  0.00  0.00    +0.119 C 
ENDBRANCH   5  19
ENDBRANCH   1  16
BRANCH   2  20
ATOM     20  C   UNL     1       8.405  -1.700  -1.948  0.00  0.00    +0.173 C 
BRANCH  20  21
ATOM     21  S   UNL     1       9.518  -1.333  -0.563  0.00  0.00    -0.077 S 
BRANCH  21  22
ATOM     22  C   UNL     1      11.125  -1.651  -1.211  0.00  0.00    +0.192 A 
ATOM     23  N   UNL     1      11.407  -2.054  -2.430  0.00  0.00    -0.122 NA
ATOM     24  N   UNL     1      12.678  -2.188  -2.568  0.00  0.00    -0.125 NA
ATOM     25  C   UNL     1      13.287  -1.878  -1.444  0.00  0.00    +0.200 A 
ATOM     26  N   UNL     1      12.309  -1.519  -0.542  0.00  0.00    -0.300 N 
BRANCH  25  27
ATOM     27  C   UNL     1      14.737  -1.903  -1.199  0.00  0.00    +0.172 A 
ATOM     28  C   UNL     1      15.709  -1.966  -2.152  0.00  0.00    +0.053 A 
ATOM     29  C   UNL     1      16.943  -1.968  -1.473  0.00  0.00    +0.042 A 
ATOM     30  C   UNL     1      16.669  -1.907  -0.155  0.00  0.00    +0.196 A 
ATOM     31  O   UNL     1      15.336  -1.863   0.007  0.00  0.00    -0.460 OA
ENDBRANCH  25  27
BRANCH  26  32
ATOM     32  C   UNL     1      12.499  -1.088   0.845  0.00  0.00    +0.122 C 
ATOM     33  C   UNL     1      12.472  -2.309   1.766  0.00  0.00    +0.027 C 
ENDBRANCH  26  32
ENDBRANCH  21  22
ENDBRANCH  20  21
ENDBRANCH   2  20
TORSDOF 7
