REMARK  Name = ZINC24023392
REMARK  6 active torsions:
REMARK  status: ('A' for Active; 'I' for Inactive)
REMARK    1  A    between atoms: C_1  and  C_2
REMARK    2  A    between atoms: C_4  and  N_31
REMARK    3  A    between atoms: N_8  and  C_9
REMARK    4  A    between atoms: C_12  and  N_15
REMARK    5  A    between atoms: N_15  and  S_16
REMARK    6  A    between atoms: S_16  and  C_19
REMARK                            x       y       z     vdW  Elec       q    Type
REMARK                         _______ _______ _______ _____ _____    ______ ____
ROOT
ATOM      1  C   UNL     1      -3.740  -1.838   0.907  0.00  0.00    +0.034 A 
ATOM      2  C   UNL     1      -2.730  -2.277   0.062  0.00  0.00    +0.025 A 
ATOM      3  C   UNL     1      -1.676  -1.440  -0.248  0.00  0.00    +0.026 A 
ATOM      4  C   UNL     1      -1.627  -0.159   0.286  0.00  0.00    +0.048 A 
ATOM      5  C   UNL     1      -2.634   0.278   1.136  0.00  0.00    +0.026 A 
ATOM      6  C   UNL     1      -3.691  -0.556   1.441  0.00  0.00    +0.025 A 
ENDROOT
BRANCH   1  14
ATOM      7  C   UNL     1      -4.752  -0.892   5.666  0.00  0.00    +0.063 C 
ATOM      8  C   UNL     1      -5.376  -1.780   4.620  0.00  0.00    +0.019 A 
ATOM      9  C   UNL     1      -6.502  -2.523   4.917  0.00  0.00    +0.064 A 
ATOM     10  C   UNL     1      -7.048  -3.333   3.919  0.00  0.00    +0.126 A 
ATOM     11  N   UNL     1      -6.471  -3.357   2.721  0.00  0.00    -0.201 NA
ATOM     12  C   UNL     1      -5.389  -2.634   2.478  0.00  0.00    +0.199 A 
ATOM     13  N   UNL     1      -4.850  -1.857   3.406  0.00  0.00    -0.331 N 
ATOM     14  N   UNL     1      -4.809  -2.687   1.222  0.00  0.00    -0.285 N 
ATOM     15  H   UNL     1      -5.188  -3.395   0.471  0.00  0.00    +0.155 HD
ATOM     16  H   UNL     1      -3.953  -1.270   3.158  0.00  0.00    +0.168 HD
BRANCH  10  17
ATOM     17  N   UNL     1      -8.177  -4.095   4.171  0.00  0.00    -0.315 N 
ATOM     18  C   UNL     1      -9.340  -3.231   4.498  0.00  0.00    +0.106 C 
ATOM     19  C   UNL     1     -10.554  -4.154   4.226  0.00  0.00    +0.020 C 
ATOM     20  C   UNL     1     -10.110  -4.951   2.978  0.00  0.00    +0.020 C 
ATOM     21  C   UNL     1      -8.572  -4.869   2.974  0.00  0.00    +0.106 C 
ENDBRANCH  10  17
ENDBRANCH   1  14
BRANCH   4  22
ATOM     22  N   UNL     1      -0.559   0.689  -0.028  0.00  0.00    -0.216 N 
ATOM     23  H   UNL     1       0.472   0.304  -0.015  0.00  0.00    +0.174 HD
BRANCH  22  24
ATOM     24  S   UNL     1      -0.846   2.272  -0.420  0.00  0.00    +0.073 S 
ATOM     25  O   UNL     1      -1.618   2.819   0.640  0.00  0.00    -0.150 OA
ATOM     26  O   UNL     1       0.401   2.825  -0.818  0.00  0.00    -0.150 OA
BRANCH  24  27
ATOM     27  C   UNL     1      -1.878   2.276  -1.848  0.00  0.00    +0.112 A 
ATOM     28  C   UNL     1      -3.164   2.817  -1.775  0.00  0.00    +0.030 A 
ATOM     29  C   UNL     1      -4.003   2.853  -2.851  0.00  0.00    +0.010 A 
ATOM     30  C   UNL     1      -3.562   2.315  -4.071  0.00  0.00    -0.017 A 
ATOM     31  C   UNL     1      -4.330   2.284  -5.247  0.00  0.00    +0.008 A 
ATOM     32  C   UNL     1      -3.790   1.732  -6.372  0.00  0.00    +0.001 A 
ATOM     33  C   UNL     1      -2.499   1.198  -6.396  0.00  0.00    +0.004 A 
ATOM     34  C   UNL     1      -1.728   1.212  -5.274  0.00  0.00    -0.039 A 
ATOM     35  C   UNL     1      -2.267   1.771  -4.119  0.00  0.00    -0.010 A 
ATOM     36  C   UNL     1      -1.419   1.748  -3.016  0.00  0.00    -0.013 A 
ATOM     37  C   UNL     1      -0.131   1.093  -3.450  0.00  0.00    +0.042 C 
ATOM     38  C   UNL     1      -0.334   0.740  -4.940  0.00  0.00    +0.040 C 
ENDBRANCH  24  27
ENDBRANCH  22  24
ENDBRANCH   4  22
TORSDOF 5
