REMARK  Name = ZINC00726679
REMARK  11 active torsions:
REMARK  status: ('A' for Active; 'I' for Inactive)
REMARK    1  A    between atoms: C_1  and  C_2
REMARK    2  A    between atoms: C_2  and  O_3
REMARK    3  A    between atoms: O_3  and  C_4
REMARK    4  A    between atoms: C_6  and  C_11
REMARK    5  A    between atoms: C_9  and  O_10
REMARK    6  A    between atoms: C_16  and  C_20
REMARK    7  A    between atoms: C_16  and  C_21
REMARK    8  A    between atoms: C_23  and  C_34
REMARK    9  A    between atoms: C_24  and  C_25
REMARK   10  A    between atoms: C_25  and  O_27
REMARK   11  A    between atoms: O_27  and  C_28
REMARK                            x       y       z     vdW  Elec       q    Type
REMARK                         _______ _______ _______ _____ _____    ______ ____
ROOT
ATOM      1  C   UNL     1       0.018   1.556  -0.022  0.00  0.00    +0.092 C 
ATOM      2  C   UNL     1       1.451   2.004   0.118  0.00  0.00    +0.024 C 
ATOM      3  C   UNL     1       2.466   1.183  -0.223  0.00  0.00    +0.016 C 
ATOM      4  C   UNL     1       3.901   1.631  -0.104  0.00  0.00    +0.058 C 
ATOM      5  C   UNL     1       4.036   2.622   1.054  0.00  0.00    -0.023 C 
ATOM      6  C   UNL     1       3.102   3.808   0.791  0.00  0.00    +0.086 C 
ATOM      7  C   UNL     1       1.698   3.296   0.614  0.00  0.00    +0.162 C 
ATOM      8  O   UNL     1       0.761   4.012   0.906  0.00  0.00    -0.292 OA
ATOM      9  C   UNL     1       3.640   1.937   2.364  0.00  0.00    +0.011 C 
ATOM     10  C   UNL     1       5.482   3.112   1.147  0.00  0.00    +0.011 C 
ATOM     11  N   UNL     1       2.212  -0.079  -0.690  0.00  0.00    -0.321 N 
ATOM     12  C   UNL     1       1.004  -0.676  -0.463  0.00  0.00    +0.016 C 
ATOM     13  C   UNL     1      -0.071   0.063  -0.138  0.00  0.00    +0.065 C 
ATOM     14  C   UNL     1       0.875  -2.174  -0.577  0.00  0.00    +0.061 C 
ATOM     15  H   UNL     1       2.985  -0.623  -1.254  0.00  0.00    +0.152 HD
ENDROOT
BRANCH   1  18
ATOM     16  C   UNL     1      -2.210   3.614  -2.276  0.00  0.00    +0.162 A 
ATOM     17  C   UNL     1      -1.665   3.031  -1.143  0.00  0.00    +0.054 A 
ATOM     18  C   UNL     1      -0.578   2.184  -1.256  0.00  0.00    -0.032 A 
ATOM     19  C   UNL     1      -0.040   1.908  -2.499  0.00  0.00    +0.008 A 
ATOM     20  C   UNL     1      -0.583   2.481  -3.634  0.00  0.00    +0.049 A 
ATOM     21  C   UNL     1      -1.669   3.336  -3.527  0.00  0.00    +0.158 A 
BRANCH  21  22
ATOM     22  O   UNL     1      -2.203   3.901  -4.642  0.00  0.00    -0.503 OA
ATOM     23  H   UNL     1      -1.774   3.680  -5.631  0.00  0.00    +0.292 HD
ENDBRANCH  21  22
BRANCH  16  24
ATOM     24  O   UNL     1      -3.275   4.452  -2.165  0.00  0.00    -0.489 OA
BRANCH  24  26
ATOM     25  C   UNL     1      -4.967   5.652  -0.925  0.00  0.00    +0.048 C 
ATOM     26  C   UNL     1      -3.778   4.692  -0.850  0.00  0.00    +0.226 C 
ENDBRANCH  24  26
ENDBRANCH  16  24
ENDBRANCH   1  18
BRANCH  13  27
ATOM     27  C   UNL     1      -1.309  -0.579   0.099  0.00  0.00    +0.338 C 
ATOM     28  O   UNL     1      -1.728  -0.692   1.235  0.00  0.00    -0.245 OA
BRANCH  27  29
ATOM     29  O   UNL     1      -2.025  -1.067  -0.936  0.00  0.00    -0.458 OA
BRANCH  29  30
ATOM     30  C   UNL     1      -3.266  -1.703  -0.624  0.00  0.00    +0.177 C 
ATOM     31  C   UNL     1      -3.028  -3.196  -0.386  0.00  0.00    +0.044 C 
ATOM     32  C   UNL     1      -4.356  -3.877  -0.052  0.00  0.00    +0.004 C 
ATOM     33  C   UNL     1      -5.331  -3.695  -1.218  0.00  0.00    +0.000 C 
ATOM     34  C   UNL     1      -5.568  -2.202  -1.455  0.00  0.00    +0.004 C 
ATOM     35  C   UNL     1      -4.240  -1.521  -1.789  0.00  0.00    +0.044 C 
ENDBRANCH  29  30
ENDBRANCH  27  29
ENDBRANCH  13  27
TORSDOF 7
