REMARK  Name = ZINC32115009
REMARK  9 active torsions:
REMARK  status: ('A' for Active; 'I' for Inactive)
REMARK    1  A    between atoms: C_1  and  C_2
REMARK    2  A    between atoms: C_2  and  C_3
REMARK    3  A    between atoms: C_3  and  C_4
REMARK    4  A    between atoms: C_4  and  C_5
REMARK    5  A    between atoms: C_5  and  C_6
REMARK    6  A    between atoms: N_8  and  C_9
REMARK    7  A    between atoms: C_9  and  N_11
REMARK    8  A    between atoms: N_11  and  C_12
REMARK    9  A    between atoms: C_19  and  C_21
REMARK                            x       y       z     vdW  Elec       q    Type
REMARK                         _______ _______ _______ _____ _____    ______ ____
ROOT
ATOM      1  C   UNL     1       1.219  -0.687  -0.119  0.00  0.00    +0.035 A 
ATOM      2  C   UNL     1       2.060  -0.421  -1.197  0.00  0.00    +0.027 A 
ATOM      3  C   UNL     1       3.262  -1.083  -1.325  0.00  0.00    +0.050 A 
ATOM      4  C   UNL     1       3.637  -2.028  -0.382  0.00  0.00    +0.156 A 
ATOM      5  C   UNL     1       2.792  -2.307   0.705  0.00  0.00    +0.112 A 
ATOM      6  C   UNL     1       1.577  -1.628   0.829  0.00  0.00    +0.054 A 
ATOM      7  N   UNL     1       3.412  -3.259   1.447  0.00  0.00    -0.209 NA
ATOM      8  C   UNL     1       4.553  -3.559   0.879  0.00  0.00    +0.230 A 
ATOM      9  O   UNL     1       4.720  -2.825  -0.238  0.00  0.00    -0.435 OA
ENDROOT
BRANCH   8  10
ATOM     10  C   UNL     1       5.518  -4.554   1.390  0.00  0.00    +0.058 A 
ATOM     11  C   UNL     1       5.245  -5.255   2.566  0.00  0.00    +0.056 A 
ATOM     12  C   UNL     1       6.148  -6.188   3.036  0.00  0.00    +0.159 A 
ATOM     13  C   UNL     1       7.330  -6.422   2.346  0.00  0.00    +0.160 A 
ATOM     14  C   UNL     1       7.607  -5.726   1.182  0.00  0.00    +0.062 A 
ATOM     15  C   UNL     1       6.709  -4.794   0.700  0.00  0.00    +0.056 A 
ATOM     16 CL   UNL     1       7.059  -3.923  -0.760  0.00  0.00    -0.083 Cl
ATOM     17  F   UNL     1       8.213  -7.331   2.813  0.00  0.00    -0.202 F 
ATOM     18  F   UNL     1       5.883  -6.870   4.171  0.00  0.00    -0.202 F 
ENDBRANCH   8  10
BRANCH   1  19
ATOM     19  N   UNL     1       0.002  -0.004   0.002  0.00  0.00    -0.297 N 
ATOM     20  H   UNL     1      -0.905  -0.546   0.306  0.00  0.00    +0.154 HD
BRANCH  19  21
ATOM     21  C   UNL     1      -0.057   1.318  -0.254  0.00  0.00    +0.141 C 
ATOM     22  S   UNL     1       1.378   2.190  -0.588  0.00  0.00    -0.018 S 
BRANCH  21  25
ATOM     23  C   UNL     1      -1.305   3.274  -0.508  0.00  0.00    +0.218 C 
ATOM     24  O   UNL     1      -0.288   3.893  -0.740  0.00  0.00    -0.275 OA
ATOM     25  N   UNL     1      -1.246   1.952  -0.252  0.00  0.00    -0.268 N 
ATOM     26  H   UNL     1      -2.168   1.391  -0.042  0.00  0.00    +0.156 HD
BRANCH  23  27
ATOM     27  C   UNL     1      -2.634   3.984  -0.506  0.00  0.00    +0.096 C 
BRANCH  27  28
ATOM     28  C   UNL     1      -2.422   5.465  -0.822  0.00  0.00    +0.009 C 
BRANCH  28  29
ATOM     29  C   UNL     1      -3.772   6.186  -0.820  0.00  0.00    +0.000 C 
BRANCH  29  31
ATOM     30  C   UNL     1      -4.910   8.388  -1.135  0.00  0.00    +0.004 C 
ATOM     31  C   UNL     1      -3.560   7.668  -1.137  0.00  0.00    -0.003 C 
ENDBRANCH  29  31
ENDBRANCH  28  29
ENDBRANCH  27  28
ENDBRANCH  23  27
ENDBRANCH  21  25
ENDBRANCH  19  21
ENDBRANCH   1  19
TORSDOF 8
