REMARK  Name = ZINC05356886
REMARK  5 active torsions:
REMARK  status: ('A' for Active; 'I' for Inactive)
REMARK    1  A    between atoms: C_1  and  C_2
REMARK    2  A    between atoms: C_10  and  O_33
REMARK    3  A    between atoms: N_22  and  N_23
REMARK    4  A    between atoms: N_23  and  C_24
REMARK    5  A    between atoms: C_28  and  N_30
REMARK                            x       y       z     vdW  Elec       q    Type
REMARK                         _______ _______ _______ _____ _____    ______ ____
ROOT
ATOM      1  C   UNL     1      -0.019   1.526   0.010  0.00  0.00    +0.018 C 
ATOM      2  C   UNL     1       0.002  -0.004   0.002  0.00  0.00    +0.011 C 
ATOM      3  C   UNL     1       0.630  -0.473  -1.290  0.00  0.00    +0.013 C 
ATOM      4  C   UNL     1       0.849  -1.988  -1.295  0.00  0.00    +0.009 C 
ATOM      5  C   UNL     1       1.745  -2.339  -0.106  0.00  0.00    +0.023 C 
ATOM      6  C   UNL     1       2.092  -3.801  -0.111  0.00  0.00    -0.041 A 
ATOM      7  C   UNL     1       2.374  -4.403  -1.329  0.00  0.00    +0.008 A 
ATOM      8  C   UNL     1       2.710  -5.739  -1.392  0.00  0.00    +0.046 A 
ATOM      9  C   UNL     1       2.766  -6.489  -0.226  0.00  0.00    +0.117 A 
ATOM     10  C   UNL     1       2.479  -5.889   0.989  0.00  0.00    +0.049 A 
ATOM     11  C   UNL     1       2.137  -4.545   1.049  0.00  0.00    -0.040 A 
ATOM     12  C   UNL     1       1.814  -3.967   2.402  0.00  0.00    +0.036 C 
ATOM     13  C   UNL     1       1.847  -2.439   2.369  0.00  0.00    +0.009 C 
ATOM     14  C   UNL     1       1.002  -1.988   1.179  0.00  0.00    +0.001 C 
ATOM     15  C   UNL     1       0.751  -0.493   1.257  0.00  0.00    +0.005 C 
ATOM     16  C   UNL     1      -0.328  -0.277   2.359  0.00  0.00    +0.010 C 
ATOM     17  C   UNL     1      -1.645  -0.675   1.657  0.00  0.00    +0.053 C 
ATOM     18  C   UNL     1      -1.413  -0.506   0.166  0.00  0.00    +0.043 C 
ATOM     19  N   UNL     1      -2.253  -0.743  -0.770  0.00  0.00    -0.191 NA
ENDROOT
BRANCH  19  20
ATOM     20  N   UNL     1      -3.537  -1.209  -0.458  0.00  0.00    -0.238 N 
ATOM     21  H   UNL     1      -3.789  -1.351   0.468  0.00  0.00    +0.174 HD
BRANCH  20  22
ATOM     22  C   UNL     1      -4.453  -1.468  -1.478  0.00  0.00    +0.050 A 
ATOM     23  C   UNL     1      -4.092  -1.270  -2.806  0.00  0.00    +0.025 A 
ATOM     24  C   UNL     1      -5.000  -1.527  -3.813  0.00  0.00    +0.004 A 
ATOM     25  C   UNL     1      -6.269  -1.981  -3.502  0.00  0.00    +0.033 A 
ATOM     26  C   UNL     1      -6.633  -2.179  -2.183  0.00  0.00    +0.128 A 
ATOM     27  C   UNL     1      -5.727  -1.929  -1.170  0.00  0.00    +0.057 A 
BRANCH  26  28
ATOM     28  N   UNL     1      -7.992  -2.665  -1.855  0.00  0.00    +0.056 N 
ATOM     29  O   UNL     1      -8.784  -2.889  -2.741  0.00  0.00    -0.126 OA
ATOM     30  O   UNL     1      -8.310  -2.838  -0.702  0.00  0.00    -0.126 OA
ENDBRANCH  26  28
ENDBRANCH  20  22
ENDBRANCH  19  20
BRANCH   9  31
ATOM     31  O   UNL     1       3.101  -7.805  -0.276  0.00  0.00    -0.507 OA
ATOM     32  H   UNL     1       4.050  -7.973  -0.195  0.00  0.00    +0.292 HD
ENDBRANCH   9  31
TORSDOF 4
