REMARK  Name = ZINC20883402
REMARK  6 active torsions:
REMARK  status: ('A' for Active; 'I' for Inactive)
REMARK    1  A    between atoms: C_1  and  C_2
REMARK    2  A    between atoms: C_2  and  O_3
REMARK    3  A    between atoms: O_3  and  C_4
REMARK    4  A    between atoms: C_7  and  C_10
REMARK    5  A    between atoms: C_15  and  C_25
REMARK    6  A    between atoms: C_28  and  C_31
REMARK                            x       y       z     vdW  Elec       q    Type
REMARK                         _______ _______ _______ _____ _____    ______ ____
ROOT
ATOM      1  C   UNL     1       0.485  -6.069  -1.926  0.00  0.00    +0.032 C 
ATOM      2  C   UNL     1       1.350  -6.534  -0.756  0.00  0.00    +0.059 C 
ATOM      3  C   UNL     1       1.665  -8.014  -0.900  0.00  0.00    +0.017 C 
ATOM      4  C   UNL     1       0.785  -8.845  -1.483  0.00  0.00    +0.036 C 
ATOM      5  C   UNL     1       0.970 -10.329  -1.689  0.00  0.00    +0.136 C 
ATOM      6  N   UNL     1       2.090 -10.900  -0.972  0.00  0.00    -0.331 N 
ATOM      7  C   UNL     1       3.400 -10.527  -1.271  0.00  0.00    +0.049 A 
ATOM      8  C   UNL     1       4.309 -11.432  -1.795  0.00  0.00    +0.025 A 
ATOM      9  C   UNL     1       5.585 -11.004  -2.119  0.00  0.00    +0.002 A 
ATOM     10  C   UNL     1       5.950  -9.684  -1.926  0.00  0.00    +0.002 A 
ATOM     11  C   UNL     1       5.049  -8.781  -1.387  0.00  0.00    +0.025 A 
ATOM     12  C   UNL     1       3.781  -9.214  -1.042  0.00  0.00    +0.052 A 
ATOM     13  N   UNL     1       2.866  -8.391  -0.393  0.00  0.00    -0.316 N 
ATOM     14  C   UNL     1      -0.444  -8.348  -1.978  0.00  0.00    +0.163 C 
ATOM     15  O   UNL     1      -1.234  -9.126  -2.476  0.00  0.00    -0.292 OA
ATOM     16  C   UNL     1      -0.806  -6.894  -1.911  0.00  0.00    +0.088 C 
ATOM     17  H   UNL     1       1.915 -11.641  -0.178  0.00  0.00    +0.147 HD
ATOM     18  H   UNL     1       3.178  -8.042   0.602  0.00  0.00    +0.152 HD
ENDROOT
BRANCH   1  22
ATOM     19  C   UNL     1      -0.442  -1.921  -1.481  0.00  0.00    +0.121 A 
ATOM     20  C   UNL     1      -0.814  -2.825  -0.497  0.00  0.00    +0.046 A 
ATOM     21  C   UNL     1      -0.518  -4.167  -0.646  0.00  0.00    +0.007 A 
ATOM     22  C   UNL     1       0.159  -4.606  -1.769  0.00  0.00    -0.043 A 
ATOM     23  C   UNL     1       0.535  -3.705  -2.748  0.00  0.00    +0.007 A 
ATOM     24  C   UNL     1       0.237  -2.364  -2.607  0.00  0.00    +0.046 A 
BRANCH  19  25
ATOM     25  O   UNL     1      -0.736  -0.602  -1.339  0.00  0.00    -0.492 OA
BRANCH  25  27
ATOM     26  C   UNL     1      -1.678   1.294  -0.172  0.00  0.00    +0.048 C 
ATOM     27  C   UNL     1      -1.437  -0.217  -0.154  0.00  0.00    +0.225 C 
ENDBRANCH  25  27
ENDBRANCH  19  25
ENDBRANCH   1  22
BRANCH   5  28
ATOM     28  C   UNL     1       1.168 -10.586  -3.161  0.00  0.00    -0.023 A 
ATOM     29  C   UNL     1       2.270 -10.058  -3.810  0.00  0.00    +0.006 A 
ATOM     30  C   UNL     1       2.458 -10.294  -5.157  0.00  0.00    +0.009 A 
ATOM     31  C   UNL     1       1.531 -11.056  -5.865  0.00  0.00    -0.018 A 
ATOM     32  C   UNL     1       0.421 -11.581  -5.207  0.00  0.00    +0.009 A 
ATOM     33  C   UNL     1       0.244 -11.343  -3.859  0.00  0.00    +0.006 A 
BRANCH  31  34
ATOM     34  C   UNL     1       1.726 -11.308  -7.314  0.00  0.00    -0.018 A 
ATOM     35  C   UNL     1       0.801 -12.074  -8.021  0.00  0.00    +0.008 A 
ATOM     36  C   UNL     1       0.985 -12.302  -9.370  0.00  0.00    +0.001 A 
ATOM     37  C   UNL     1       2.089 -11.778 -10.018  0.00  0.00    +0.000 A 
ATOM     38  C   UNL     1       3.013 -11.021  -9.320  0.00  0.00    +0.001 A 
ATOM     39  C   UNL     1       2.837 -10.784  -7.972  0.00  0.00    +0.008 A 
ENDBRANCH  31  34
ENDBRANCH   5  28
TORSDOF 5
