REMARK  Name = ZINC45777571
REMARK  14 active torsions:
REMARK  status: ('A' for Active; 'I' for Inactive)
REMARK    1  A    between atoms: C_1  and  C_2
REMARK    2  A    between atoms: N_5  and  C_8
REMARK    3  A    between atoms: C_8  and  C_9
REMARK    4  A    between atoms: C_14  and  C_15
REMARK    5  A    between atoms: C_15  and  N_16
REMARK    6  A    between atoms: N_19  and  C_20
REMARK    7  A    between atoms: C_20  and  C_21
REMARK    8  A    between atoms: C_21  and  C_23
REMARK    9  A    between atoms: C_21  and  O_29
REMARK   10  A    between atoms: C_23  and  O_24
REMARK   11  A    between atoms: O_24  and  C_25
REMARK   12  A    between atoms: C_25  and  C_26
REMARK   13  A    between atoms: C_26  and  C_27
REMARK   14  A    between atoms: C_26  and  C_28
REMARK                            x       y       z     vdW  Elec       q    Type
REMARK                         _______ _______ _______ _____ _____    ______ ____
ROOT
ATOM      1  C   UNL     1      -2.307  -3.806   3.848  0.00  0.00    +0.141 C 
ENDROOT
BRANCH   1   7
ATOM      2  C   UNL     1      -0.143  -4.380   2.730  0.00  0.00    -0.059 A 
ATOM      3  C   UNL     1       1.161  -4.838   2.771  0.00  0.00    +0.002 A 
ATOM      4  C   UNL     1       1.718  -5.231   3.973  0.00  0.00    +0.000 A 
ATOM      5  C   UNL     1       0.971  -5.166   5.135  0.00  0.00    +0.000 A 
ATOM      6  C   UNL     1      -0.332  -4.708   5.094  0.00  0.00    +0.005 A 
ATOM      7  C   UNL     1      -0.888  -4.311   3.892  0.00  0.00    -0.029 A 
BRANCH   2   8
ATOM      8  C   UNL     1      -0.750  -3.952   1.419  0.00  0.00    -0.043 C 
BRANCH   8  13
ATOM      9  C   UNL     1      -0.019   1.526   0.010  0.00  0.00    +0.007 C 
ATOM     10  C   UNL     1       0.002  -0.004   0.002  0.00  0.00    -0.018 C 
ATOM     11  C   UNL     1      -1.434  -0.536   0.023  0.00  0.00    -0.016 C 
ATOM     12  C   UNL     1      -1.405  -2.064   0.095  0.00  0.00    -0.078 C 
ATOM     13  N   UNL     1      -0.707  -2.487   1.315  0.00  0.00    +0.382 N 
ATOM     14  C   UNL     1       0.691  -2.042   1.269  0.00  0.00    -0.078 C 
ATOM     15  C   UNL     1       0.743  -0.513   1.242  0.00  0.00    -0.016 C 
ATOM     16  H   UNL     1      -1.162  -2.082   2.119  0.00  0.00    -0.081 HD
ENDBRANCH   8  13
ENDBRANCH   2   8
ENDBRANCH   1   7
BRANCH   1  17
ATOM     17  N   UNL     1      -3.193  -4.878   3.388  0.00  0.00    -0.295 N 
ATOM     18  C   UNL     1      -4.517  -4.655   3.270  0.00  0.00    +0.300 C 
ATOM     19  O   UNL     1      -4.976  -3.563   3.545  0.00  0.00    -0.253 OA
ATOM     20  N   UNL     1      -5.332  -5.642   2.847  0.00  0.00    -0.297 N 
ATOM     21  H   UNL     1      -2.827  -5.749   3.168  0.00  0.00    +0.151 HD
ATOM     22  H   UNL     1      -4.965  -6.513   2.627  0.00  0.00    +0.150 HD
BRANCH  20  23
ATOM     23  C   UNL     1      -6.771  -5.399   2.719  0.00  0.00    +0.139 C 
BRANCH  23  24
ATOM     24  C   UNL     1      -7.461  -6.672   2.224  0.00  0.00    +0.157 C 
BRANCH  24  25
ATOM     25  O   UNL     1      -6.924  -7.040   0.952  0.00  0.00    -0.388 OA
ATOM     26  H   UNL     1      -7.040  -6.368   0.266  0.00  0.00    +0.210 HD
ENDBRANCH  24  25
BRANCH  24  27
ATOM     27  C   UNL     1      -8.963  -6.418   2.090  0.00  0.00    +0.192 C 
BRANCH  27  28
ATOM     28  O   UNL     1      -9.623  -7.637   1.741  0.00  0.00    -0.377 OA
BRANCH  28  29
ATOM     29  C   UNL     1     -11.038  -7.509   1.590  0.00  0.00    +0.163 C 
BRANCH  29  30
ATOM     30  C   UNL     1     -11.636  -8.868   1.218  0.00  0.00    +0.009 C 
ATOM     31  C   UNL     1     -11.439  -9.846   2.377  0.00  0.00    +0.009 C 
ATOM     32  C   UNL     1     -13.131  -8.707   0.935  0.00  0.00    +0.009 C 
ENDBRANCH  29  30
ENDBRANCH  28  29
ENDBRANCH  27  28
ENDBRANCH  24  27
ENDBRANCH  23  24
ENDBRANCH  20  23
ENDBRANCH   1  17
TORSDOF 11
