REMARK  Name = ZINC29122465
REMARK  14 active torsions:
REMARK  status: ('A' for Active; 'I' for Inactive)
REMARK    1  A    between atoms: C_1  and  C_2
REMARK    2  A    between atoms: C_2  and  C_3
REMARK    3  A    between atoms: C_2  and  C_4
REMARK    4  A    between atoms: C_4  and  S_5
REMARK    5  A    between atoms: S_5  and  C_6
REMARK    6  A    between atoms: C_9  and  S_15
REMARK    7  A    between atoms: C_11  and  N_12
REMARK    8  A    between atoms: S_15  and  N_18
REMARK    9  A    between atoms: N_18  and  C_19
REMARK   10  A    between atoms: C_19  and  C_20
REMARK   11  A    between atoms: C_20  and  O_22
REMARK   12  A    between atoms: O_22  and  C_23
REMARK   13  A    between atoms: C_23  and  C_25
REMARK   14  A    between atoms: C_23  and  C_31
REMARK                            x       y       z     vdW  Elec       q    Type
REMARK                         _______ _______ _______ _____ _____    ______ ____
ROOT
ATOM      1  N   UNL     1      -4.185  -0.484   3.016  0.00  0.00    -0.179 NA
ATOM      2  H   UNL     1      -3.379  -0.290   3.739  0.00  0.00    +0.149 HD
ENDROOT
BRANCH   1   3
ATOM      3  S   UNL     1      -5.583  -1.205   3.536  0.00  0.00    +0.059 S 
ATOM      4  O   UNL     1      -5.513  -1.250   4.955  0.00  0.00    -0.153 OA
ATOM      5  O   UNL     1      -6.649  -0.568   2.846  0.00  0.00    -0.153 OA
BRANCH   3   9
ATOM      6  C   UNL     1      -5.491  -5.499   2.098  0.00  0.00    +0.038 A 
ATOM      7  C   UNL     1      -6.054  -4.509   1.301  0.00  0.00    +0.019 A 
ATOM      8  C   UNL     1      -6.085  -3.202   1.745  0.00  0.00    +0.030 A 
ATOM      9  C   UNL     1      -5.547  -2.875   2.977  0.00  0.00    +0.107 A 
ATOM     10  C   UNL     1      -4.986  -3.857   3.772  0.00  0.00    +0.062 A 
ATOM     11  C   UNL     1      -4.956  -5.168   3.337  0.00  0.00    +0.141 A 
BRANCH  11  12
ATOM     12  N   UNL     1      -4.355  -6.218   4.189  0.00  0.00    +0.058 N 
ATOM     13  O   UNL     1      -3.886  -5.927   5.275  0.00  0.00    -0.126 OA
ATOM     14  O   UNL     1      -4.329  -7.373   3.805  0.00  0.00    -0.126 OA
ENDBRANCH  11  12
BRANCH   6  15
ATOM     15  S   UNL     1      -5.456  -7.169   1.539  0.00  0.00    -0.123 S 
BRANCH  15  16
ATOM     16  C   UNL     1      -6.250  -7.103  -0.090  0.00  0.00    +0.077 C 
BRANCH  16  18
ATOM     17  C   UNL     1      -7.184  -9.408   0.154  0.00  0.00    +0.008 C 
ATOM     18  C   UNL     1      -6.287  -8.507  -0.697  0.00  0.00    -0.007 C 
ATOM     19  C   UNL     1      -6.843  -8.434  -2.121  0.00  0.00    +0.008 C 
ENDBRANCH  16  18
ENDBRANCH  15  16
ENDBRANCH   6  15
ENDBRANCH   3   9
ENDBRANCH   1   3
BRANCH   1  20
ATOM     20  C   UNL     1      -3.941  -0.310   1.582  0.00  0.00    +0.226 C 
BRANCH  20  21
ATOM     21  C   UNL     1      -2.817   0.674   1.380  0.00  0.00    +0.324 C 
ATOM     22  O   UNL     1      -2.276   1.178   2.336  0.00  0.00    -0.249 OA
BRANCH  21  23
ATOM     23  O   UNL     1      -2.417   0.990   0.138  0.00  0.00    -0.446 OA
BRANCH  23  24
ATOM     24  C   UNL     1      -1.330   1.944   0.019  0.00  0.00    +0.292 C 
BRANCH  24  25
ATOM     25  C   UNL     1      -1.481   2.721  -1.264  0.00  0.00    +0.002 A 
ATOM     26  C   UNL     1      -1.982   2.099  -2.393  0.00  0.00    +0.008 A 
ATOM     27  C   UNL     1      -2.125   2.813  -3.568  0.00  0.00    +0.000 A 
ATOM     28  C   UNL     1      -1.758   4.145  -3.617  0.00  0.00    +0.000 A 
ATOM     29  C   UNL     1      -1.252   4.764  -2.490  0.00  0.00    +0.000 A 
ATOM     30  C   UNL     1      -1.113   4.052  -1.313  0.00  0.00    +0.008 A 
ENDBRANCH  24  25
BRANCH  24  31
ATOM     31  C   UNL     1      -0.014   1.209   0.009  0.00  0.00    +0.256 C 
ATOM     32  O   UNL     1       0.002  -0.004   0.002  0.00  0.00    -0.272 OA
ATOM     33  N   UNL     1       1.143   1.898   0.001  0.00  0.00    -0.326 N 
ATOM     34  H   UNL     1       2.103   1.361  -0.006  0.00  0.00    +0.145 HD
ATOM     35  H   UNL     1       1.129   2.998   0.003  0.00  0.00    +0.145 HD
ENDBRANCH  24  31
ENDBRANCH  23  24
ENDBRANCH  21  23
ENDBRANCH  20  21
ENDBRANCH   1  20
TORSDOF 12
