REMARK  Name = ZINC33253682
REMARK  16 active torsions:
REMARK  status: ('A' for Active; 'I' for Inactive)
REMARK    1  A    between atoms: C_1  and  C_2
REMARK    2  A    between atoms: C_4  and  C_35
REMARK    3  A    between atoms: C_5  and  S_9
REMARK    4  A    between atoms: C_6  and  C_8
REMARK    5  A    between atoms: S_9  and  N_12
REMARK    6  A    between atoms: N_12  and  C_13
REMARK    7  A    between atoms: C_16  and  N_22
REMARK    8  A    between atoms: C_17  and  C_19
REMARK    9  A    between atoms: N_22  and  C_23
REMARK   10  A    between atoms: N_22  and  C_24
REMARK   11  A    between atoms: C_24  and  C_25
REMARK   12  A    between atoms: C_25  and  C_26
REMARK   13  A    between atoms: C_26  and  C_27
REMARK   14  A    between atoms: C_28  and  C_34
REMARK   15  A    between atoms: N_30  and  C_33
REMARK   16  A    between atoms: C_31  and  C_32
REMARK                            x       y       z     vdW  Elec       q    Type
REMARK                         _______ _______ _______ _____ _____    ______ ____
ROOT
ATOM      1  C   UNL     1       1.913   1.432  -0.102  0.00  0.00    +0.049 A 
ATOM      2  C   UNL     1       0.797   2.259  -0.186  0.00  0.00    +0.026 A 
ATOM      3  C   UNL     1      -0.468   1.716  -0.268  0.00  0.00    +0.026 A 
ATOM      4  C   UNL     1      -0.637   0.337  -0.266  0.00  0.00    +0.044 A 
ATOM      5  C   UNL     1       0.484  -0.503  -0.180  0.00  0.00    +0.086 A 
ATOM      6  C   UNL     1       1.763   0.057  -0.098  0.00  0.00    +0.041 A 
ENDROOT
BRANCH   5   7
ATOM      7  C   UNL     1       0.315  -1.966  -0.177  0.00  0.00    +0.388 C 
ATOM      8  O   UNL     1      -0.798  -2.449  -0.248  0.00  0.00    -0.241 OA
ATOM      9  O   UNL     1       1.394  -2.769  -0.095  0.00  0.00    -0.241 OA
ENDBRANCH   5   7
BRANCH   1  10
ATOM     10  N   UNL     1       3.193   1.994  -0.019  0.00  0.00    -0.216 N 
ATOM     11  H   UNL     1       3.912   1.619   0.724  0.00  0.00    +0.174 HD
BRANCH  10  12
ATOM     12  S   UNL     1       3.625   3.224  -1.041  0.00  0.00    +0.073 S 
ATOM     13  O   UNL     1       4.970   3.559  -0.728  0.00  0.00    -0.150 OA
ATOM     14  O   UNL     1       3.222   2.828  -2.345  0.00  0.00    -0.150 OA
BRANCH  12  19
ATOM     15  C   UNL     1       0.267   8.019   0.420  0.00  0.00    +0.044 C 
ATOM     16  C   UNL     1       1.105   6.821   0.055  0.00  0.00    -0.050 A 
ATOM     17  C   UNL     1       0.903   6.178  -1.151  0.00  0.00    +0.008 A 
ATOM     18  C   UNL     1       1.673   5.079  -1.486  0.00  0.00    -0.023 A 
ATOM     19  C   UNL     1       2.644   4.624  -0.614  0.00  0.00    +0.114 A 
ATOM     20  C   UNL     1       2.843   5.264   0.595  0.00  0.00    -0.023 A 
ATOM     21  C   UNL     1       2.076   6.365   0.927  0.00  0.00    +0.008 A 
ATOM     22  C   UNL     1       3.898   4.765   1.548  0.00  0.00    +0.046 C 
ATOM     23  C   UNL     1       1.452   4.377  -2.802  0.00  0.00    +0.046 C 
ENDBRANCH  12  19
ENDBRANCH  10  12
ENDBRANCH   1  10
BRANCH   4  24
ATOM     24  N   UNL     1      -1.914  -0.210  -0.347  0.00  0.00    -0.332 N 
ATOM     25  C   UNL     1      -2.549   0.124  -1.629  0.00  0.00    +0.129 C 
BRANCH  24  26
ATOM     26  C   UNL     1      -2.746   0.225   0.782  0.00  0.00    +0.105 C 
BRANCH  26  27
ATOM     27  C   UNL     1      -4.046  -0.582   0.798  0.00  0.00    +0.024 C 
BRANCH  27  28
ATOM     28  C   UNL     1      -4.913  -0.128   1.974  0.00  0.00    +0.040 C 
BRANCH  28  29
ATOM     29  C   UNL     1      -6.193  -0.923   1.990  0.00  0.00    -0.004 A 
ATOM     30  C   UNL     1      -7.385  -0.577   1.343  0.00  0.00    +0.063 A 
ATOM     31  N   UNL     1      -8.267  -1.512   1.586  0.00  0.00    -0.176 NA
ATOM     32  N   UNL     1      -7.668  -2.478   2.404  0.00  0.00    -0.271 N 
ATOM     33  C   UNL     1      -6.396  -2.094   2.638  0.00  0.00    +0.039 A 
ATOM     34  C   UNL     1      -5.382  -2.835   3.470  0.00  0.00    +0.065 C 
ATOM     35  C   UNL     1      -8.309  -3.692   2.916  0.00  0.00    +0.172 C 
ATOM     36  C   UNL     1      -7.611   0.656   0.508  0.00  0.00    +0.068 C 
ENDBRANCH  28  29
ENDBRANCH  27  28
ENDBRANCH  26  27
ENDBRANCH  24  26
ENDBRANCH   4  24
TORSDOF 9
