REMARK  Name = ZINC00679856
REMARK  12 active torsions:
REMARK  status: ('A' for Active; 'I' for Inactive)
REMARK    1  A    between atoms: C_1  and  C_2
REMARK    2  A    between atoms: C_2  and  O_3
REMARK    3  A    between atoms: O_3  and  C_4
REMARK    4  A    between atoms: C_6  and  C_16
REMARK    5  A    between atoms: C_9  and  O_10
REMARK    6  A    between atoms: O_10  and  C_11
REMARK    7  A    between atoms: C_11  and  C_12
REMARK    8  A    between atoms: C_11  and  C_13
REMARK    9  A    between atoms: C_18  and  C_25
REMARK   10  A    between atoms: C_19  and  C_24
REMARK   11  A    between atoms: C_25  and  O_27
REMARK   12  A    between atoms: O_27  and  C_28
REMARK                            x       y       z     vdW  Elec       q    Type
REMARK                         _______ _______ _______ _____ _____    ______ ____
ROOT
ATOM      1  C   UNL     1      -1.992  -1.389   0.530  0.00  0.00    +0.163 A 
ATOM      2  C   UNL     1      -2.922  -0.388   0.303  0.00  0.00    +0.056 A 
ATOM      3  C   UNL     1      -4.273  -0.681   0.323  0.00  0.00    -0.004 A 
ATOM      4  C   UNL     1      -4.699  -1.974   0.569  0.00  0.00    +0.041 A 
ATOM      5  C   UNL     1      -3.776  -2.979   0.796  0.00  0.00    +0.077 A 
ATOM      6  C   UNL     1      -2.420  -2.691   0.772  0.00  0.00    +0.177 A 
ATOM      7 BR   UNL     1      -4.362  -4.745   1.133  0.00  0.00    -0.045 Br
ATOM      8 BR   UNL     1      -6.549  -2.369   0.595  0.00  0.00    -0.049 Br
ENDROOT
BRANCH   3   9
ATOM      9  C   UNL     1      -5.283   0.410   0.076  0.00  0.00    +0.145 C 
ATOM     10  C   UNL     1      -5.592   0.433  -1.407  0.00  0.00    +0.078 C 
ATOM     11  C   UNL     1      -5.370   1.584  -2.078  0.00  0.00    +0.021 C 
ATOM     12  N   UNL     1      -4.884   2.689  -1.440  0.00  0.00    -0.273 N 
ATOM     13  C   UNL     1      -4.593   2.724  -0.133  0.00  0.00    +0.304 C 
ATOM     14  O   UNL     1      -4.163   3.755   0.346  0.00  0.00    -0.252 OA
ATOM     15  N   UNL     1      -4.761   1.653   0.667  0.00  0.00    -0.288 N 
ATOM     16  C   UNL     1      -5.665   1.650  -3.554  0.00  0.00    +0.061 C 
ATOM     17  H   UNL     1      -4.741   3.493  -1.962  0.00  0.00    +0.156 HD
ATOM     18  H   UNL     1      -4.544   1.701   1.611  0.00  0.00    +0.151 HD
BRANCH  10  19
ATOM     19  C   UNL     1      -6.097  -0.712  -2.067  0.00  0.00    +0.338 C 
ATOM     20  O   UNL     1      -5.341  -1.607  -2.397  0.00  0.00    -0.245 OA
BRANCH  19  21
ATOM     21  O   UNL     1      -7.417  -0.812  -2.330  0.00  0.00    -0.465 OA
ATOM     22  C   UNL     1      -7.865  -2.019  -2.950  0.00  0.00    +0.280 C 
ENDBRANCH  19  21
ENDBRANCH  10  19
ENDBRANCH   3   9
BRANCH   1  23
ATOM     23  O   UNL     1      -0.663  -1.102   0.512  0.00  0.00    -0.489 OA
BRANCH  23  25
ATOM     24  C   UNL     1       1.228   0.384   0.271  0.00  0.00    +0.048 C 
ATOM     25  C   UNL     1      -0.296   0.255   0.252  0.00  0.00    +0.226 C 
ENDBRANCH  23  25
ENDBRANCH   1  23
BRANCH   6  26
ATOM     26  O   UNL     1      -1.510  -3.678   0.989  0.00  0.00    -0.485 OA
BRANCH  26  27
ATOM     27  C   UNL     1      -1.110  -3.906   2.342  0.00  0.00    +0.168 C 
ATOM     28  C   UNL     1      -0.743  -5.380   2.525  0.00  0.00    +0.051 C 
ATOM     29  C   UNL     1       0.103  -3.034   2.670  0.00  0.00    +0.051 C 
ENDBRANCH  26  27
ENDBRANCH   6  26
TORSDOF 7
