REMARK  Name = ZINC08446710
REMARK  5 active torsions:
REMARK  status: ('A' for Active; 'I' for Inactive)
REMARK    1  A    between atoms: C_4  and  C_7
REMARK    2  A    between atoms: C_8  and  C_17
REMARK    3  A    between atoms: N_18  and  N_19
REMARK    4  A    between atoms: C_20  and  C_22
REMARK    5  A    between atoms: C_22  and  C_23
REMARK                            x       y       z     vdW  Elec       q    Type
REMARK                         _______ _______ _______ _____ _____    ______ ____
ROOT
ATOM      1  C   UNL     1      -5.460   6.073  -4.960  0.00  0.00    +0.056 A 
ATOM      2  C   UNL     1      -4.420   5.253  -4.557  0.00  0.00    +0.028 A 
ATOM      3  C   UNL     1      -3.781   4.758  -5.788  0.00  0.00    +0.009 A 
ATOM      4  C   UNL     1      -2.706   3.905  -6.038  0.00  0.00    +0.010 A 
ATOM      5  C   UNL     1      -2.346   3.623  -7.337  0.00  0.00    +0.001 A 
ATOM      6  C   UNL     1      -3.051   4.180  -8.395  0.00  0.00    +0.002 A 
ATOM      7  C   UNL     1      -4.118   5.020  -8.164  0.00  0.00    +0.026 A 
ATOM      8  C   UNL     1      -4.498   5.318  -6.858  0.00  0.00    +0.048 A 
ATOM      9  N   UNL     1      -5.500   6.106  -6.331  0.00  0.00    -0.354 N 
ATOM     10  H   UNL     1      -6.141   6.613  -6.855  0.00  0.00    +0.166 HD
ENDROOT
BRANCH   1  14
ATOM     11  C   UNL     1      -8.100   8.154  -2.368  0.00  0.00    +0.000 A 
ATOM     12  C   UNL     1      -7.553   8.804  -3.461  0.00  0.00    +0.001 A 
ATOM     13  C   UNL     1      -6.695   8.134  -4.307  0.00  0.00    +0.010 A 
ATOM     14  C   UNL     1      -6.378   6.796  -4.060  0.00  0.00    -0.001 A 
ATOM     15  C   UNL     1      -6.939   6.145  -2.958  0.00  0.00    +0.010 A 
ATOM     16  C   UNL     1      -7.791   6.829  -2.117  0.00  0.00    +0.001 A 
ENDBRANCH   1  14
BRANCH   2  17
ATOM     17  C   UNL     1      -4.028   4.943  -3.177  0.00  0.00    +0.141 C 
ATOM     18  N   UNL     1      -3.023   4.150  -2.948  0.00  0.00    -0.188 NA
BRANCH  18  19
ATOM     19  N   UNL     1      -2.649   3.854  -1.631  0.00  0.00    -0.207 N 
ATOM     20  C   UNL     1      -1.607   3.032  -1.394  0.00  0.00    +0.237 C 
ATOM     21  O   UNL     1      -0.993   2.549  -2.322  0.00  0.00    -0.274 OA
ATOM     22  H   UNL     1      -3.140   4.240  -0.889  0.00  0.00    +0.177 HD
BRANCH  20  23
ATOM     23  C   UNL     1      -1.206   2.714   0.023  0.00  0.00    +0.139 C 
BRANCH  23  24
ATOM     24  C   UNL     1      -0.022   1.781   0.012  0.00  0.00    -0.001 A 
ATOM     25  C   UNL     1       1.300   2.079   0.001  0.00  0.00    +0.011 A 
ATOM     26  C   UNL     1       2.220   1.048  -0.013  0.00  0.00    +0.008 A 
ATOM     27  C   UNL     1       1.773  -0.232  -0.016  0.00  0.00    +0.045 A 
ATOM     28  S   UNL     1       0.002  -0.004   0.002  0.00  0.00    -0.101 S 
ENDBRANCH  23  24
ENDBRANCH  20  23
ENDBRANCH  18  19
ENDBRANCH   2  17
TORSDOF 5
