REMARK  Name = ZINC09175288
REMARK  8 active torsions:
REMARK  status: ('A' for Active; 'I' for Inactive)
REMARK    1  A    between atoms: C_1  and  C_2
REMARK    2  A    between atoms: C_2  and  C_27
REMARK    3  A    between atoms: C_8  and  N_14
REMARK    4  A    between atoms: C_15  and  C_17
REMARK    5  A    between atoms: C_17  and  C_18
REMARK    6  A    between atoms: C_18  and  C_19
REMARK    7  A    between atoms: C_22  and  O_25
REMARK    8  A    between atoms: O_25  and  C_26
REMARK                            x       y       z     vdW  Elec       q    Type
REMARK                         _______ _______ _______ _____ _____    ______ ____
ROOT
ATOM      1  C   UNL     1       0.962  -2.369   0.706  0.00  0.00    +0.035 C 
ATOM      2  C   UNL     1       1.104  -0.881   0.379  0.00  0.00    +0.063 C 
ATOM      3  C   UNL     1       0.030  -0.484  -0.625  0.00  0.00    +0.254 C 
ATOM      4  O   UNL     1      -0.105   0.928  -0.717  0.00  0.00    -0.489 OA
ATOM      5  C   UNL     1       1.038   1.657  -0.785  0.00  0.00    +0.133 A 
ATOM      6  C   UNL     1       1.441   2.240  -1.975  0.00  0.00    +0.048 A 
ATOM      7  C   UNL     1       2.610   2.972  -2.024  0.00  0.00    +0.027 A 
ATOM      8  C   UNL     1       3.392   3.130  -0.884  0.00  0.00    +0.034 A 
ATOM      9  C   UNL     1       3.000   2.555   0.314  0.00  0.00    +0.040 A 
ATOM     10  C   UNL     1       1.820   1.817   0.370  0.00  0.00    +0.080 A 
ATOM     11  C   UNL     1       1.369   1.194   1.629  0.00  0.00    +0.248 C 
ATOM     12  O   UNL     1       1.351   1.833   2.663  0.00  0.00    -0.270 OA
ATOM     13  N   UNL     1       0.974  -0.102   1.612  0.00  0.00    -0.303 N 
ATOM     14  C   UNL     1       2.483  -0.629  -0.232  0.00  0.00    +0.035 C 
ATOM     15  H   UNL     1       0.609  -0.512   2.412  0.00  0.00    +0.150 HD
ENDROOT
BRANCH   8  16
ATOM     16  N   UNL     1       4.578   3.873  -0.947  0.00  0.00    -0.285 N 
ATOM     17  C   UNL     1       4.960   4.624   0.105  0.00  0.00    +0.218 C 
ATOM     18  O   UNL     1       4.324   4.589   1.137  0.00  0.00    -0.275 OA
ATOM     19  H   UNL     1       5.125   3.847  -1.748  0.00  0.00    +0.155 HD
BRANCH  17  20
ATOM     20  C   UNL     1       6.176   5.507  -0.002  0.00  0.00    +0.101 C 
BRANCH  20  21
ATOM     21  C   UNL     1       6.387   6.246   1.321  0.00  0.00    +0.044 C 
BRANCH  21  22
ATOM     22  C   UNL     1       7.604   7.130   1.214  0.00  0.00    -0.047 A 
ATOM     23  C   UNL     1       8.847   6.637   1.563  0.00  0.00    +0.007 A 
ATOM     24  C   UNL     1       9.965   7.443   1.461  0.00  0.00    +0.046 A 
ATOM     25  C   UNL     1       9.836   8.751   1.018  0.00  0.00    +0.120 A 
ATOM     26  C   UNL     1       8.586   9.245   0.674  0.00  0.00    +0.046 A 
ATOM     27  C   UNL     1       7.473   8.434   0.773  0.00  0.00    +0.007 A 
BRANCH  25  28
ATOM     28  O   UNL     1      10.933   9.548   0.922  0.00  0.00    -0.495 OA
ATOM     29  C   UNL     1      12.188   8.972   1.293  0.00  0.00    +0.277 C 
ENDBRANCH  25  28
ENDBRANCH  21  22
ENDBRANCH  20  21
ENDBRANCH  17  20
ENDBRANCH   8  16
TORSDOF 5
