REMARK  Name = ZINC57681381
REMARK  3 active torsions:
REMARK  status: ('A' for Active; 'I' for Inactive)
REMARK    1  A    between atoms: C_10  and  C_11
REMARK    2  A    between atoms: C_17  and  S_24
REMARK    3  A    between atoms: S_24  and  N_27
REMARK                            x       y       z     vdW  Elec       q    Type
REMARK                         _______ _______ _______ _____ _____    ______ ____
ROOT
ATOM      1  C   UNL     1       4.960   0.161  -0.046  0.00  0.00    +0.191 C 
ATOM      2  N   UNL     1       4.776   1.428   0.657  0.00  0.00    -0.322 N 
ATOM      3  C   UNL     1       4.589   1.520   2.033  0.00  0.00    +0.057 A 
ATOM      4  C   UNL     1       3.980   2.661   2.554  0.00  0.00    +0.047 A 
ATOM      5  C   UNL     1       3.795   2.789   3.915  0.00  0.00    +0.069 A 
ATOM      6  C   UNL     1       4.213   1.787   4.774  0.00  0.00    +0.125 A 
ATOM      7  C   UNL     1       4.812   0.650   4.263  0.00  0.00    +0.060 A 
ATOM      8  C   UNL     1       4.991   0.515   2.902  0.00  0.00    +0.128 A 
ATOM      9  S   UNL     1       5.721  -0.958   2.253  0.00  0.00    +0.062 S 
ATOM     10  O   UNL     1       6.988  -1.104   2.879  0.00  0.00    -0.153 OA
ATOM     11  O   UNL     1       4.723  -1.968   2.292  0.00  0.00    -0.153 OA
ATOM     12  N   UNL     1       6.010  -0.618   0.642  0.00  0.00    -0.166 NA
ATOM     13 CL   UNL     1       3.034   4.213   4.554  0.00  0.00    -0.081 Cl
ATOM     14  H   UNL     1       4.786   2.248   0.138  0.00  0.00    +0.148 HD
ATOM     15  H   UNL     1       6.816  -0.910   0.188  0.00  0.00    +0.150 HD
ENDROOT
BRANCH   1  25
ATOM     16  C   UNL     1       2.886  -3.517  -2.940  0.00  0.00    +0.001 A 
ATOM     17  C   UNL     1       4.087  -2.809  -2.965  0.00  0.00    +0.001 A 
ATOM     18  C   UNL     1       4.361  -1.860  -2.029  0.00  0.00    +0.009 A 
ATOM     19  C   UNL     1       3.421  -1.587  -1.020  0.00  0.00    -0.012 A 
ATOM     20  C   UNL     1       2.200  -2.307  -0.995  0.00  0.00    -0.018 A 
ATOM     21  C   UNL     1       1.953  -3.279  -1.979  0.00  0.00    +0.008 A 
ATOM     22  C   UNL     1       1.260  -2.033   0.013  0.00  0.00    +0.008 A 
ATOM     23  C   UNL     1       1.534  -1.084   0.950  0.00  0.00    +0.001 A 
ATOM     24  C   UNL     1       2.734  -0.376   0.924  0.00  0.00    +0.007 A 
ATOM     25  C   UNL     1       3.668  -0.615  -0.037  0.00  0.00    -0.004 A 
ENDBRANCH   1  25
BRANCH   6  26
ATOM     26  S   UNL     1       3.983   1.960   6.512  0.00  0.00    +0.057 S 
ATOM     27  O   UNL     1       2.631   2.352   6.706  0.00  0.00    -0.153 OA
ATOM     28  O   UNL     1       4.533   0.796   7.112  0.00  0.00    -0.153 OA
BRANCH  26  29
ATOM     29  N   UNL     1       4.920   3.234   7.005  0.00  0.00    -0.203 NA
ATOM     30  H   UNL     1       5.456   3.720   6.359  0.00  0.00    +0.144 HD
ATOM     31  H   UNL     1       4.933   3.493   7.940  0.00  0.00    +0.144 HD
ENDBRANCH  26  29
ENDBRANCH   6  26
TORSDOF 3
