REMARK  Name = ZINC36094693
REMARK  10 active torsions:
REMARK  status: ('A' for Active; 'I' for Inactive)
REMARK    1  A    between atoms: C_1  and  C_2
REMARK    2  A    between atoms: C_2  and  C_3
REMARK    3  A    between atoms: C_3  and  N_4
REMARK    4  A    between atoms: N_4  and  C_5
REMARK    5  A    between atoms: C_5  and  C_6
REMARK    6  A    between atoms: C_16  and  C_18
REMARK    7  A    between atoms: C_18  and  O_19
REMARK    8  A    between atoms: O_19  and  C_20
REMARK    9  A    between atoms: C_23  and  C_27
REMARK   10  A    between atoms: C_25  and  C_26
REMARK                            x       y       z     vdW  Elec       q    Type
REMARK                         _______ _______ _______ _____ _____    ______ ____
ROOT
ATOM      1  C   UNL     1      -2.771  -4.018   0.007  0.00  0.00    +0.199 C 
ATOM      2  O   UNL     1      -1.713  -4.610  -0.006  0.00  0.00    -0.278 OA
ATOM      3  N   UNL     1      -3.929  -4.707   0.014  0.00  0.00    -0.292 N 
ATOM      4  C   UNL     1      -5.218  -4.000   0.024  0.00  0.00    +0.113 C 
ATOM      5  C   UNL     1      -5.949  -4.311  -1.291  0.00  0.00    +0.061 C 
ATOM      6  C   UNL     1      -5.805  -5.769  -1.586  0.00  0.00    -0.004 A 
ATOM      7  C   UNL     1      -4.919  -6.648  -1.044  0.00  0.00    -0.014 A 
ATOM      8  C   UNL     1      -4.985  -7.964  -1.499  0.00  0.00    +0.013 A 
ATOM      9  C   UNL     1      -5.902  -8.312  -2.430  0.00  0.00    +0.046 A 
ATOM     10  S   UNL     1      -6.740  -6.761  -2.720  0.00  0.00    -0.101 S 
ATOM     11  C   UNL     1      -3.921  -6.177   0.006  0.00  0.00    +0.144 C 
ENDROOT
BRANCH   1  12
ATOM     12  C   UNL     1      -2.792  -2.511   0.015  0.00  0.00    +0.015 C 
BRANCH  12  13
ATOM     13  N   UNL     1      -1.413  -2.002   0.005  0.00  0.00    +0.385 N 
ATOM     14  H   UNL     1      -0.941  -2.328  -0.825  0.00  0.00    -0.085 HD
ATOM     15  H   UNL     1      -0.925  -2.337   0.822  0.00  0.00    -0.085 HD
BRANCH  13  16
ATOM     16  C   UNL     1      -1.433  -0.534   0.013  0.00  0.00    -0.082 C 
BRANCH  16  18
ATOM     17  C   UNL     1      -0.019   1.526   0.010  0.00  0.00    +0.002 C 
ATOM     18  C   UNL     1       0.002  -0.004   0.002  0.00  0.00    -0.022 C 
ENDBRANCH  16  18
ENDBRANCH  13  16
ENDBRANCH  12  13
ENDBRANCH   1  12
BRANCH  11  19
ATOM     19  C   UNL     1      -4.335  -6.705   1.381  0.00  0.00    +0.256 C 
BRANCH  19  20
ATOM     20  O   UNL     1      -5.691  -6.339   1.644  0.00  0.00    -0.490 OA
BRANCH  20  21
ATOM     21  C   UNL     1      -6.218  -6.734   2.833  0.00  0.00    +0.124 A 
ATOM     22  C   UNL     1      -5.443  -7.453   3.731  0.00  0.00    +0.046 A 
ATOM     23  C   UNL     1      -5.980  -7.853   4.939  0.00  0.00    +0.007 A 
ATOM     24  C   UNL     1      -7.289  -7.536   5.254  0.00  0.00    -0.050 A 
ATOM     25  C   UNL     1      -8.063  -6.820   4.360  0.00  0.00    +0.010 A 
ATOM     26  C   UNL     1      -7.529  -6.413   3.153  0.00  0.00    -0.009 A 
ATOM     27  C   UNL     1      -8.371  -5.627   2.182  0.00  0.00    +0.047 C 
ATOM     28  C   UNL     1      -7.873  -7.974   6.572  0.00  0.00    +0.044 C 
ENDBRANCH  20  21
ENDBRANCH  19  20
ENDBRANCH  11  19
TORSDOF 7
