REMARK  Name = ZINC15016628
REMARK  11 active torsions:
REMARK  status: ('A' for Active; 'I' for Inactive)
REMARK    1  A    between atoms: C_1  and  C_2
REMARK    2  A    between atoms: C_3  and  C_12
REMARK    3  A    between atoms: C_12  and  C_13
REMARK    4  A    between atoms: C_12  and  C_25
REMARK    5  A    between atoms: C_16  and  O_23
REMARK    6  A    between atoms: C_17  and  O_21
REMARK    7  A    between atoms: C_18  and  O_19
REMARK    8  A    between atoms: O_19  and  C_20
REMARK    9  A    between atoms: O_21  and  C_22
REMARK   10  A    between atoms: O_23  and  C_24
REMARK   11  A    between atoms: C_26  and  C_35
REMARK                            x       y       z     vdW  Elec       q    Type
REMARK                         _______ _______ _______ _____ _____    ______ ____
ROOT
ATOM      1  C   UNL     1       1.392   2.840   2.576  0.00  0.00    +0.087 C 
ENDROOT
BRANCH   1   4
ATOM      2  C   UNL     1       2.730   0.063   2.940  0.00  0.00    +0.063 C 
ATOM      3  C   UNL     1       3.157   1.116   1.950  0.00  0.00    +0.018 A 
ATOM      4  C   UNL     1       2.572   2.315   1.800  0.00  0.00    -0.007 A 
ATOM      5  C   UNL     1       3.294   3.013   0.733  0.00  0.00    +0.004 A 
ATOM      6  C   UNL     1       3.169   4.270   0.138  0.00  0.00    +0.010 A 
ATOM      7  C   UNL     1       4.029   4.638  -0.857  0.00  0.00    +0.001 A 
ATOM      8  C   UNL     1       5.031   3.773  -1.279  0.00  0.00    +0.002 A 
ATOM      9  C   UNL     1       5.176   2.531  -0.702  0.00  0.00    +0.026 A 
ATOM     10  C   UNL     1       4.311   2.136   0.314  0.00  0.00    +0.047 A 
ATOM     11  N   UNL     1       4.198   0.991   1.071  0.00  0.00    -0.358 N 
ATOM     12  H   UNL     1       4.770   0.212   0.992  0.00  0.00    +0.166 HD
ENDBRANCH   1   4
BRANCH   1  13
ATOM     13  C   UNL     1       1.765   2.968   4.031  0.00  0.00    -0.007 A 
ATOM     14  C   UNL     1       1.053   2.524   5.079  0.00  0.00    +0.018 A 
ATOM     15  N   UNL     1       1.706   2.819   6.245  0.00  0.00    -0.358 N 
ATOM     16  H   UNL     1       1.387   2.598   7.134  0.00  0.00    +0.166 HD
ATOM     17  C   UNL     1       2.884   3.477   5.968  0.00  0.00    +0.047 A 
ATOM     18  C   UNL     1       2.975   3.594   4.569  0.00  0.00    +0.004 A 
ATOM     19  C   UNL     1       4.076   4.231   3.993  0.00  0.00    +0.010 A 
ATOM     20  C   UNL     1       5.066   4.729   4.793  0.00  0.00    +0.001 A 
ATOM     21  C   UNL     1       4.983   4.612   6.173  0.00  0.00    +0.002 A 
ATOM     22  C   UNL     1       3.904   3.991   6.762  0.00  0.00    +0.026 A 
ATOM     23  C   UNL     1      -0.269   1.807   4.986  0.00  0.00    +0.063 C 
ENDBRANCH   1  13
BRANCH   1  24
ATOM     24  C   UNL     1       0.998   4.192   2.038  0.00  0.00    +0.010 A 
ATOM     25  C   UNL     1       1.735   5.311   2.377  0.00  0.00    +0.012 A 
ATOM     26  C   UNL     1       1.375   6.554   1.891  0.00  0.00    +0.050 A 
ATOM     27  C   UNL     1       0.275   6.681   1.056  0.00  0.00    +0.165 A 
ATOM     28  C   UNL     1      -0.465   5.558   0.708  0.00  0.00    +0.204 A 
ATOM     29  C   UNL     1      -0.099   4.310   1.199  0.00  0.00    +0.169 A 
BRANCH  29  30
ATOM     30  O   UNL     1      -0.820   3.207   0.862  0.00  0.00    -0.491 OA
ATOM     31  C   UNL     1      -0.415   2.502  -0.313  0.00  0.00    +0.277 C 
ENDBRANCH  29  30
BRANCH  28  32
ATOM     32  O   UNL     1      -1.546   5.679  -0.110  0.00  0.00    -0.488 OA
ATOM     33  C   UNL     1      -2.809   5.916   0.513  0.00  0.00    +0.277 C 
ENDBRANCH  28  32
BRANCH  27  34
ATOM     34  O   UNL     1      -0.079   7.904   0.578  0.00  0.00    -0.491 OA
ATOM     35  C   UNL     1       0.728   9.015   0.976  0.00  0.00    +0.277 C 
ENDBRANCH  27  34
ENDBRANCH   1  24
TORSDOF 6
