REMARK  Name = ZINC35513755
REMARK  7 active torsions:
REMARK  status: ('A' for Active; 'I' for Inactive)
REMARK    1  A    between atoms: C_1  and  C_2
REMARK    2  A    between atoms: C_3  and  C_35
REMARK    3  A    between atoms: C_8  and  C_24
REMARK    4  A    between atoms: C_27  and  O_30
REMARK    5  A    between atoms: O_30  and  C_31
REMARK    6  A    between atoms: C_31  and  C_32
REMARK    7  A    between atoms: C_35  and  C_37
REMARK                            x       y       z     vdW  Elec       q    Type
REMARK                         _______ _______ _______ _____ _____    ______ ____
ROOT
ATOM      1  C   UNL     1      -0.018   1.503   0.010  0.00  0.00    +0.067 C 
ATOM      2  C   UNL     1       0.002  -0.004   0.002  0.00  0.00    +0.058 A 
ATOM      3  C   UNL     1       0.006  -0.734  -1.186  0.00  0.00    +0.078 A 
ATOM      4  S   UNL     1       0.032  -2.401  -0.546  0.00  0.00    -0.049 S 
ATOM      5  C   UNL     1       0.035  -2.022   1.093  0.00  0.00    +0.169 A 
ATOM      6  N   UNL     1       0.022  -0.700   1.108  0.00  0.00    -0.229 NA
ATOM      7  N   UNL     1       0.051  -2.887   2.170  0.00  0.00    -0.232 N 
ATOM      8  C   UNL     1       0.047  -2.501   3.590  0.00  0.00    +0.151 C 
ATOM      9  C   UNL     1       0.073  -3.780   4.360  0.00  0.00    +0.072 A 
ATOM     10  C   UNL     1       0.090  -4.040   5.803  0.00  0.00    +0.199 A 
ATOM     11  O   UNL     1      -0.091  -3.172   6.639  0.00  0.00    -0.287 OA
ATOM     12  C   UNL     1       0.349  -5.460   6.148  0.00  0.00    +0.067 A 
ATOM     13  C   UNL     1       0.594  -5.832   7.470  0.00  0.00    +0.053 A 
ATOM     14  C   UNL     1       0.837  -7.155   7.772  0.00  0.00    +0.124 A 
ATOM     15  C   UNL     1       0.839  -8.110   6.762  0.00  0.00    +0.042 A 
ATOM     16  C   UNL     1       0.598  -7.754   5.455  0.00  0.00    +0.050 A 
ATOM     17  C   UNL     1       0.345  -6.422   5.125  0.00  0.00    +0.140 A 
ATOM     18  O   UNL     1       0.101  -6.102   3.833  0.00  0.00    -0.450 OA
ATOM     19  C   UNL     1       0.085  -4.808   3.459  0.00  0.00    +0.199 A 
ATOM     20  C   UNL     1       0.069  -4.234   2.103  0.00  0.00    +0.289 C 
ATOM     21  O   UNL     1       0.073  -4.880   1.074  0.00  0.00    -0.266 OA
ATOM     22  F   UNL     1       1.075  -7.523   9.050  0.00  0.00    -0.205 F 
ENDROOT
BRANCH   8  23
ATOM     23  C   UNL     1      -1.202  -1.722   3.913  0.00  0.00    -0.022 A 
ATOM     24  C   UNL     1      -2.409  -2.089   3.349  0.00  0.00    +0.009 A 
ATOM     25  C   UNL     1      -3.556  -1.377   3.643  0.00  0.00    +0.046 A 
ATOM     26  C   UNL     1      -3.495  -0.293   4.507  0.00  0.00    +0.121 A 
ATOM     27  C   UNL     1      -2.282   0.073   5.073  0.00  0.00    +0.046 A 
ATOM     28  C   UNL     1      -1.140  -0.646   4.779  0.00  0.00    +0.009 A 
BRANCH  26  29
ATOM     29  O   UNL     1      -4.621   0.409   4.798  0.00  0.00    -0.483 OA
BRANCH  29  30
ATOM     30  C   UNL     1      -4.484   1.513   5.695  0.00  0.00    +0.324 C 
BRANCH  30  31
ATOM     31  C   UNL     1      -5.827   2.166   5.897  0.00  0.00    +0.248 C 
ATOM     32  O   UNL     1      -6.805   1.730   5.329  0.00  0.00    -0.272 OA
ATOM     33  N   UNL     1      -5.940   3.236   6.710  0.00  0.00    -0.327 N 
ATOM     34  H   UNL     1      -5.158   3.585   7.164  0.00  0.00    +0.145 HD
ATOM     35  H   UNL     1      -6.805   3.656   6.840  0.00  0.00    +0.145 HD
ENDBRANCH  30  31
ENDBRANCH  29  30
ENDBRANCH  26  29
ENDBRANCH   8  23
BRANCH   3  36
ATOM     36  C   UNL     1      -0.007  -0.281  -2.520  0.00  0.00    +0.168 C 
ATOM     37  O   UNL     1      -0.025   0.910  -2.758  0.00  0.00    -0.292 OA
ATOM     38  C   UNL     1       0.001  -1.275  -3.653  0.00  0.00    +0.092 C 
ENDBRANCH   3  36
TORSDOF 5
