REMARK  Name = ZINC12745039
REMARK  9 active torsions:
REMARK  status: ('A' for Active; 'I' for Inactive)
REMARK    1  A    between atoms: C_1  and  N_2
REMARK    2  A    between atoms: N_2  and  C_3
REMARK    3  A    between atoms: C_3  and  C_4
REMARK    4  A    between atoms: C_8  and  O_10
REMARK    5  A    between atoms: O_10  and  C_11
REMARK    6  A    between atoms: C_12  and  C_14
REMARK    7  A    between atoms: C_14  and  C_15
REMARK    8  A    between atoms: C_22  and  C_23
REMARK    9  A    between atoms: C_22  and  N_61
REMARK                            x       y       z     vdW  Elec       q    Type
REMARK                         _______ _______ _______ _____ _____    ______ ____
ROOT
ATOM      1  C   UNL     1       4.298   5.095  -1.440  0.00  0.00    +0.028 C 
ATOM      2  C   UNL     1       4.890   4.919  -2.809  0.00  0.00    +0.200 C 
ATOM      3  O   UNL     1       5.653   5.765  -3.225  0.00  0.00    -0.278 OA
ATOM      4  N   UNL     1       4.612   3.868  -3.588  0.00  0.00    -0.318 N 
ATOM      5  C   UNL     1       3.680   2.814  -3.196  0.00  0.00    +0.085 C 
ATOM      6  C   UNL     1       3.457   2.848  -1.683  0.00  0.00    -0.058 C 
ATOM      7  H   UNL     1       5.049   3.803  -4.451  0.00  0.00    +0.149 HD
ATOM      8  N   UNL     1       3.110   4.232  -1.302  0.00  0.00    +0.391 N 
ATOM      9  H   UNL     1       2.371   4.576  -1.927  0.00  0.00    -0.080 HD
ENDROOT
BRANCH   1  10
ATOM     10  C   UNL     1       3.877   6.554  -1.252  0.00  0.00    +0.090 C 
BRANCH  10  13
ATOM     11  C   UNL     1       2.643   9.105  -1.234  0.00  0.00    +0.132 C 
ATOM     12  N   UNL     1       2.249   8.127  -2.251  0.00  0.00    -0.300 N 
ATOM     13  C   UNL     1       2.826   6.909  -2.273  0.00  0.00    +0.215 C 
ATOM     14  O   UNL     1       2.500   6.098  -3.114  0.00  0.00    -0.276 OA
BRANCH  12  15
ATOM     15  C   UNL     1       1.227   8.471  -3.242  0.00  0.00    +0.142 C 
BRANCH  15  16
ATOM     16  C   UNL     1      -0.133   8.095  -2.714  0.00  0.00    -0.027 A 
ATOM     17  C   UNL     1      -0.867   9.009  -1.981  0.00  0.00    +0.005 A 
ATOM     18  C   UNL     1      -2.115   8.667  -1.495  0.00  0.00    +0.004 A 
ATOM     19  C   UNL     1      -2.632   7.410  -1.741  0.00  0.00    +0.045 A 
ATOM     20  C   UNL     1      -1.899   6.491  -2.477  0.00  0.00    +0.120 A 
ATOM     21  C   UNL     1      -0.648   6.838  -2.967  0.00  0.00    +0.050 A 
BRANCH  20  22
ATOM     22  O   UNL     1      -2.406   5.254  -2.721  0.00  0.00    -0.495 OA
ATOM     23  C   UNL     1      -3.702   4.968  -2.191  0.00  0.00    +0.277 C 
ENDBRANCH  20  22
ENDBRANCH  15  16
ENDBRANCH  12  15
ENDBRANCH  10  13
ENDBRANCH   1  10
BRANCH   8  24
ATOM     24  C   UNL     1       2.617   4.267   0.093  0.00  0.00    -0.041 C 
BRANCH  24  25
ATOM     25  C   UNL     1       1.345   3.463   0.185  0.00  0.00    -0.056 A 
ATOM     26  C   UNL     1       0.138   4.071   0.020  0.00  0.00    +0.002 A 
ATOM     27  C   UNL     1      -1.048   3.344   0.101  0.00  0.00    +0.001 A 
ATOM     28  C   UNL     1      -1.034   2.004   0.343  0.00  0.00    +0.008 A 
ATOM     29  C   UNL     1       0.193   1.343   0.523  0.00  0.00    -0.018 A 
ATOM     30  C   UNL     1       1.400   2.083   0.441  0.00  0.00    -0.017 A 
ATOM     31  C   UNL     1       2.627   1.420   0.615  0.00  0.00    +0.009 A 
ATOM     32  C   UNL     1       2.641   0.082   0.862  0.00  0.00    +0.001 A 
ATOM     33  C   UNL     1       1.454  -0.645   0.943  0.00  0.00    +0.001 A 
ATOM     34  C   UNL     1       0.247  -0.038   0.779  0.00  0.00    +0.008 A 
ENDBRANCH  24  25
ENDBRANCH   8  24
TORSDOF 7
