REMARK  Name = ZINC57422601
REMARK  11 active torsions:
REMARK  status: ('A' for Active; 'I' for Inactive)
REMARK    1  A    between atoms: C_1  and  C_2
REMARK    2  A    between atoms: C_5  and  C_9
REMARK    3  A    between atoms: C_6  and  C_8
REMARK    4  A    between atoms: C_9  and  N_10
REMARK    5  A    between atoms: N_13  and  C_14
REMARK    6  A    between atoms: C_14  and  C_16
REMARK    7  A    between atoms: C_14  and  C_18
REMARK    8  A    between atoms: C_16  and  O_17
REMARK    9  A    between atoms: C_18  and  C_20
REMARK   10  A    between atoms: C_18  and  O_29
REMARK   11  A    between atoms: C_23  and  N_26
REMARK                            x       y       z     vdW  Elec       q    Type
REMARK                         _______ _______ _______ _____ _____    ______ ____
ROOT
ATOM      1  C   UNK A   1      -3.007  -8.021   0.525  0.00  0.00    +0.133 C 
ENDROOT
BRANCH   1   5
ATOM      2  N   UNK A   0      -1.293  -4.782   0.223  0.00  0.00    -0.295 N 
ATOM      3  C   UNK A   0      -1.518  -6.111   0.260  0.00  0.00    +0.300 C 
ATOM      4  O   UNK A   0      -0.599  -6.888   0.090  0.00  0.00    -0.253 OA
ATOM      5  N   UNK A   1      -2.762  -6.577   0.485  0.00  0.00    -0.292 N 
ATOM      6  H   UNK A   0      -2.026  -4.162   0.359  0.00  0.00    +0.151 HD
ATOM      7  H   UNK A   1      -3.496  -5.957   0.620  0.00  0.00    +0.151 HD
BRANCH   2   8
ATOM      8  C   UNK A   0       0.059  -4.275  -0.021  0.00  0.00    +0.141 C 
BRANCH   8  13
ATOM      9  C   UNK A   0      -0.018   1.503   0.010  0.00  0.00    +0.044 C 
ATOM     10  C   UNK A   0       0.002  -0.004   0.002  0.00  0.00    -0.050 A 
ATOM     11  C   UNK A   0       0.006  -0.689  -1.199  0.00  0.00    +0.004 A 
ATOM     12  C   UNK A   0       0.025  -2.071  -1.207  0.00  0.00    +0.006 A 
ATOM     13  C   UNK A   0       0.040  -2.768  -0.013  0.00  0.00    -0.027 A 
ATOM     14  C   UNK A   0       0.037  -2.084   1.188  0.00  0.00    -0.046 A 
ATOM     15  C   UNK A   0       0.023  -0.702   1.195  0.00  0.00    +0.007 A 
ATOM     16  C   UNK A   0       0.054  -2.845   2.489  0.00  0.00    +0.044 C 
ENDBRANCH   8  13
ENDBRANCH   2   8
ENDBRANCH   1   5
BRANCH   1  17
ATOM     17  C   UNK A   1      -3.228  -8.541  -0.897  0.00  0.00    +0.181 C 
BRANCH  17  18
ATOM     18  O   UNK A   1      -4.423  -7.969  -1.433  0.00  0.00    -0.393 OA
ATOM     19  H   UNK A   1      -4.626  -8.255  -2.334  0.00  0.00    +0.209 HD
ENDBRANCH  17  18
ENDBRANCH   1  17
BRANCH   1  20
ATOM     20  C   UNK A   1      -4.251  -8.305   1.370  0.00  0.00    +0.167 C 
BRANCH  20  21
ATOM     21  C   UNK A   1      -4.083  -7.685   2.734  0.00  0.00    -0.017 A 
ATOM     22  C   UNK A   1      -4.416  -6.359   2.937  0.00  0.00    +0.008 A 
ATOM     23  C   UNK A   1      -4.262  -5.791   4.188  0.00  0.00    +0.033 A 
ATOM     24  C   UNK A   1      -3.776  -6.550   5.236  0.00  0.00    +0.126 A 
ATOM     25  C   UNK A   1      -3.443  -7.876   5.033  0.00  0.00    +0.033 A 
ATOM     26  C   UNK A   1      -3.601  -8.445   3.783  0.00  0.00    +0.008 A 
BRANCH  24  27
ATOM     27  N   UNK A   1      -3.610  -5.942   6.575  0.00  0.00    +0.056 N 
ATOM     28  O   UNK A   1      -3.900  -4.781   6.752  0.00  0.00    -0.126 OA
ATOM     29  O   UNK A   1      -3.184  -6.605   7.492  0.00  0.00    -0.126 OA
ENDBRANCH  24  27
ENDBRANCH  20  21
BRANCH  20  30
ATOM     30  O   UNK A   1      -5.399  -7.744   0.731  0.00  0.00    -0.385 OA
ATOM     31  H   UNK A   1      -5.351  -6.786   0.605  0.00  0.00    +0.210 HD
ENDBRANCH  20  30
ENDBRANCH   1  20
TORSDOF 9
