REMARK  Name = ZINC12980923
REMARK  10 active torsions:
REMARK  status: ('A' for Active; 'I' for Inactive)
REMARK    1  A    between atoms: C_1  and  C_2
REMARK    2  A    between atoms: C_5  and  N_8
REMARK    3  A    between atoms: C_9  and  C_31
REMARK    4  A    between atoms: N_13  and  C_16
REMARK    5  A    between atoms: C_16  and  C_17
REMARK    6  A    between atoms: N_19  and  C_20
REMARK    7  A    between atoms: C_20  and  C_22
REMARK    8  A    between atoms: C_20  and  C_23
REMARK    9  A    between atoms: C_25  and  C_30
REMARK   10  A    between atoms: C_28  and  C_29
REMARK                            x       y       z     vdW  Elec       q    Type
REMARK                         _______ _______ _______ _____ _____    ______ ____
ROOT
ATOM      1  N   UNL     1      -1.365  -0.542   0.117  0.00  0.00    -0.243 N 
ATOM      2  C   UNL     1       0.002  -0.004   0.002  0.00  0.00    +0.166 C 
ATOM      3  C   UNL     1       0.699  -0.535   1.239  0.00  0.00    +0.244 C 
ATOM      4  O   UNL     1       1.851  -0.346   1.568  0.00  0.00    -0.273 OA
ATOM      5  N   UNL     1      -0.228  -1.259   1.897  0.00  0.00    -0.215 N 
ATOM      6  C   UNL     1      -1.401  -1.260   1.254  0.00  0.00    +0.316 C 
ATOM      7  O   UNL     1      -2.389  -1.845   1.653  0.00  0.00    -0.252 OA
ATOM      8  C   UNL     1      -0.019   1.526   0.010  0.00  0.00    +0.038 C 
ENDROOT
BRANCH   1  13
ATOM      9  C   UNL     1      -5.642   0.263  -3.522  0.00  0.00    +0.044 C 
ATOM     10  C   UNL     1      -4.506   0.049  -2.555  0.00  0.00    -0.050 A 
ATOM     11  C   UNL     1      -4.699  -0.721  -1.423  0.00  0.00    +0.005 A 
ATOM     12  C   UNL     1      -3.659  -0.918  -0.535  0.00  0.00    +0.024 A 
ATOM     13  C   UNL     1      -2.420  -0.343  -0.780  0.00  0.00    +0.039 A 
ATOM     14  C   UNL     1      -2.230   0.434  -1.915  0.00  0.00    +0.024 A 
ATOM     15  C   UNL     1      -3.272   0.623  -2.803  0.00  0.00    +0.005 A 
ENDBRANCH   1  13
BRANCH   5  16
ATOM     16  C   UNL     1       0.020  -1.960   3.159  0.00  0.00    +0.213 C 
BRANCH  16  17
ATOM     17  C   UNL     1      -0.290  -1.041   4.313  0.00  0.00    +0.231 C 
ATOM     18  O   UNL     1      -0.679   0.088   4.101  0.00  0.00    -0.274 OA
ATOM     19  N   UNL     1      -0.135  -1.474   5.580  0.00  0.00    -0.307 N 
ATOM     20  H   UNL     1       0.176  -2.377   5.749  0.00  0.00    +0.149 HD
BRANCH  19  21
ATOM     21  C   UNL     1      -0.436  -0.581   6.701  0.00  0.00    +0.100 C 
ATOM     22  C   UNL     1       0.787   0.288   7.004  0.00  0.00    +0.033 C 
BRANCH  21  23
ATOM     23  C   UNL     1      -0.783  -1.401   7.917  0.00  0.00    -0.024 A 
ATOM     24  C   UNL     1      -0.306  -2.693   8.039  0.00  0.00    +0.009 A 
ATOM     25  C   UNL     1      -0.624  -3.445   9.154  0.00  0.00    -0.050 A 
ATOM     26  C   UNL     1      -1.419  -2.905  10.148  0.00  0.00    +0.003 A 
ATOM     27  C   UNL     1      -1.896  -1.613  10.027  0.00  0.00    +0.004 A 
ATOM     28  C   UNL     1      -1.573  -0.859   8.914  0.00  0.00    -0.046 A 
ATOM     29  C   UNL     1      -2.087   0.551   8.784  0.00  0.00    +0.044 C 
ATOM     30  C   UNL     1      -0.105  -4.853   9.287  0.00  0.00    +0.044 C 
ENDBRANCH  21  23
ENDBRANCH  19  21
ENDBRANCH  16  17
ENDBRANCH   5  16
TORSDOF 5
