REMARK  Name = ZINC02026123
REMARK  9 active torsions:
REMARK  status: ('A' for Active; 'I' for Inactive)
REMARK    1  A    between atoms: C_1  and  C_2
REMARK    2  A    between atoms: C_2  and  C_3
REMARK    3  A    between atoms: C_2  and  C_4
REMARK    4  A    between atoms: C_2  and  C_6
REMARK    5  A    between atoms: C_10  and  O_27
REMARK    6  A    between atoms: C_19  and  O_25
REMARK    7  A    between atoms: C_20  and  O_23
REMARK    8  A    between atoms: O_23  and  C_24
REMARK    9  A    between atoms: O_25  and  C_26
REMARK                            x       y       z     vdW  Elec       q    Type
REMARK                         _______ _______ _______ _____ _____    ______ ____
ROOT
ATOM      1  C   UNL     1      -2.573   3.821   0.042  0.00  0.00    +0.176 C 
ATOM      2  C   UNL     1      -1.223   3.152   0.029  0.00  0.00    +0.044 A 
ATOM      3  C   UNL     1      -0.045   3.856   0.022  0.00  0.00    +0.015 A 
ATOM      4  C   UNL     1       1.162   3.177   0.008  0.00  0.00    +0.046 A 
ATOM      5  C   UNL     1       1.178   1.789   0.000  0.00  0.00    +0.120 A 
ATOM      6  C   UNL     1      -0.013   1.076   0.008  0.00  0.00    +0.092 A 
ATOM      7  C   UNL     1      -1.217   1.754   0.017  0.00  0.00    +0.138 A 
ATOM      8  O   UNL     1      -2.409   1.089   0.033  0.00  0.00    -0.463 OA
ATOM      9  C   UNL     1      -3.370   1.596   0.874  0.00  0.00    +0.204 C 
ATOM     10  C   UNL     1      -3.452   2.924   0.915  0.00  0.00    +0.047 C 
ATOM     11  C   UNL     1      -4.190   3.852   1.756  0.00  0.00    +0.031 A 
ATOM     12  C   UNL     1      -5.267   3.656   2.622  0.00  0.00    +0.016 A 
ATOM     13  C   UNL     1      -5.746   4.764   3.303  0.00  0.00    +0.050 A 
ATOM     14  C   UNL     1      -5.176   6.015   3.141  0.00  0.00    +0.165 A 
ATOM     15  C   UNL     1      -4.092   6.227   2.288  0.00  0.00    +0.204 A 
ATOM     16  C   UNL     1      -3.596   5.125   1.592  0.00  0.00    +0.175 A 
ATOM     17  O   UNL     1      -2.568   5.076   0.718  0.00  0.00    -0.471 OA
ENDROOT
BRANCH   1  19
ATOM     18  C   UNL     1      -2.180   4.763  -2.239  0.00  0.00    +0.020 C 
ATOM     19  C   UNL     1      -3.140   3.944  -1.374  0.00  0.00    +0.031 C 
ATOM     20  C   UNL     1      -3.307   2.549  -1.979  0.00  0.00    +0.020 C 
BRANCH  19  21
ATOM     21  C   UNL     1      -4.479   4.632  -1.321  0.00  0.00    -0.024 C 
ATOM     22  C   UNL     1      -4.663   5.758  -1.963  0.00  0.00    +0.004 C 
ENDBRANCH  19  21
ENDBRANCH   1  19
BRANCH  15  23
ATOM     23  O   UNL     1      -3.539   7.462   2.142  0.00  0.00    -0.488 OA
ATOM     24  C   UNL     1      -2.474   7.806   3.030  0.00  0.00    +0.277 C 
ENDBRANCH  15  23
BRANCH  14  25
ATOM     25  O   UNL     1      -5.687   7.069   3.832  0.00  0.00    -0.491 OA
ATOM     26  C   UNL     1      -6.797   6.803   4.692  0.00  0.00    +0.277 C 
ENDBRANCH  14  25
BRANCH   5  27
ATOM     27  O   UNL     1       2.364   1.126  -0.014  0.00  0.00    -0.507 OA
ATOM     28  H   UNL     1       2.699   0.938  -0.901  0.00  0.00    +0.292 HD
ENDBRANCH   5  27
TORSDOF 5
