REMARK  Name = ZINC20232709
REMARK  10 active torsions:
REMARK  status: ('A' for Active; 'I' for Inactive)
REMARK    1  A    between atoms: C_1  and  C_2
REMARK    2  A    between atoms: C_2  and  C_3
REMARK    3  A    between atoms: C_2  and  C_4
REMARK    4  A    between atoms: C_4  and  C_5
REMARK    5  A    between atoms: C_5  and  C_7
REMARK    6  A    between atoms: C_5  and  N_17
REMARK    7  A    between atoms: N_9  and  C_10
REMARK    8  A    between atoms: N_17  and  S_18
REMARK    9  A    between atoms: S_18  and  C_21
REMARK   10  A    between atoms: C_30  and  C_32
REMARK                            x       y       z     vdW  Elec       q    Type
REMARK                         _______ _______ _______ _____ _____    ______ ____
ROOT
ATOM      1  N   UNL     1      -0.854   1.384  -0.449  0.00  0.00    -0.178 NA
ATOM      2  H   UNL     1       0.007   1.610  -1.095  0.00  0.00    +0.149 HD
ENDROOT
BRANCH   1   3
ATOM      3  S   UNL     1      -1.396  -0.178  -0.341  0.00  0.00    +0.059 S 
ATOM      4  O   UNL     1      -0.449  -0.985  -1.027  0.00  0.00    -0.153 OA
ATOM      5  O   UNL     1      -1.738  -0.396   1.021  0.00  0.00    -0.153 OA
BRANCH   3   6
ATOM      6  C   UNL     1      -2.897  -0.273  -1.259  0.00  0.00    +0.106 A 
ATOM      7  C   UNL     1      -2.868  -0.593  -2.604  0.00  0.00    +0.030 A 
ATOM      8  C   UNL     1      -4.041  -0.669  -3.324  0.00  0.00    +0.026 A 
ATOM      9  C   UNL     1      -5.266  -0.422  -2.703  0.00  0.00    +0.040 A 
ATOM     10  C   UNL     1      -5.285  -0.102  -1.355  0.00  0.00    -0.023 A 
ATOM     11  C   UNL     1      -4.107  -0.033  -0.635  0.00  0.00    +0.034 A 
ATOM     12  C   UNL     1      -6.720   0.116  -0.931  0.00  0.00    +0.056 C 
ATOM     13  C   UNL     1      -7.541  -0.120  -2.209  0.00  0.00    +0.118 C 
ATOM     14  N   UNL     1      -6.555  -0.445  -3.244  0.00  0.00    -0.271 N 
ATOM     15  C   UNL     1      -6.848  -0.724  -4.530  0.00  0.00    +0.217 C 
ATOM     16  O   UNL     1      -5.958  -0.981  -5.312  0.00  0.00    -0.276 OA
ATOM     17  C   UNL     1      -8.282  -0.717  -4.994  0.00  0.00    +0.109 C 
ENDBRANCH   3   6
ENDBRANCH   1   3
BRANCH   1  18
ATOM     18  C   UNL     1      -1.643   2.474   0.131  0.00  0.00    +0.163 C 
BRANCH  18  19
ATOM     19  C   UNL     1      -1.539   3.692  -0.750  0.00  0.00    +0.236 C 
ATOM     20  O   UNL     1      -0.688   3.746  -1.613  0.00  0.00    -0.274 OA
ATOM     21  N   UNL     1      -2.393   4.721  -0.580  0.00  0.00    -0.284 N 
ATOM     22  H   UNL     1      -3.114   4.706   0.250  0.00  0.00    +0.155 HD
BRANCH  21  23
ATOM     23  C   UNL     1      -2.362   5.809  -1.460  0.00  0.00    +0.033 A 
ATOM     24  C   UNL     1      -3.540   6.457  -1.807  0.00  0.00    +0.024 A 
ATOM     25  C   UNL     1      -3.505   7.534  -2.671  0.00  0.00    +0.017 A 
ATOM     26  C   UNL     1      -2.300   7.960  -3.200  0.00  0.00    +0.018 A 
ATOM     27  C   UNL     1      -1.125   7.312  -2.861  0.00  0.00    +0.017 A 
ATOM     28  C   UNL     1      -1.153   6.239  -1.993  0.00  0.00    +0.024 A 
ATOM     29 BR   UNL     1      -2.257   9.431  -4.388  0.00  0.00    -0.050 Br
ENDBRANCH  21  23
ENDBRANCH  18  19
BRANCH  18  30
ATOM     30  C   UNL     1      -1.106   2.806   1.525  0.00  0.00    +0.032 C 
BRANCH  30  32
ATOM     31  C   UNL     1      -3.390   3.210   2.453  0.00  0.00    +0.007 C 
ATOM     32  C   UNL     1      -2.019   3.837   2.191  0.00  0.00    -0.015 C 
ATOM     33  C   UNL     1      -1.401   4.285   3.517  0.00  0.00    +0.007 C 
ENDBRANCH  30  32
ENDBRANCH  18  30
ENDBRANCH   1  18
TORSDOF 7
