REMARK  Name = ZINC09503369
REMARK  5 active torsions:
REMARK  status: ('A' for Active; 'I' for Inactive)
REMARK    1  A    between atoms: C_1  and  C_2
REMARK    2  A    between atoms: C_5  and  C_7
REMARK    3  A    between atoms: N_9  and  C_10
REMARK    4  A    between atoms: C_10  and  C_11
REMARK    5  A    between atoms: N_13  and  C_14
REMARK                            x       y       z     vdW  Elec       q    Type
REMARK                         _______ _______ _______ _____ _____    ______ ____
ROOT
ATOM      1  C   UNL     1      -5.103   1.358   1.069  0.00  0.00    +0.231 C 
ATOM      2  O   UNL     1      -4.707   2.056   1.979  0.00  0.00    -0.274 OA
ATOM      3  N   UNL     1      -4.279   1.049   0.049  0.00  0.00    -0.308 N 
ATOM      4  H   UNL     1      -4.595   0.491  -0.679  0.00  0.00    +0.149 HD
ENDROOT
BRANCH   3   5
ATOM      5  C   UNL     1      -2.904   1.556   0.038  0.00  0.00    +0.035 C 
ATOM      6  C   UNL     1      -2.188   1.063  -1.221  0.00  0.00    +0.029 C 
ATOM      7  C   UNL     1      -0.753   1.593  -1.232  0.00  0.00    -0.008 C 
ATOM      8  C   UNL     1      -0.013   1.086   0.008  0.00  0.00    +0.007 C 
ATOM      9  C   UNL     1      -0.729   1.579   1.267  0.00  0.00    -0.008 C 
ATOM     10  C   UNL     1      -2.164   1.050   1.278  0.00  0.00    +0.029 C 
ATOM     11  C   UNL     1      -0.750   3.109   1.275  0.00  0.00    +0.007 C 
ATOM     12  C   UNL     1      -1.490   3.616   0.036  0.00  0.00    -0.008 C 
ATOM     13  C   UNL     1      -0.773   3.123  -1.223  0.00  0.00    +0.007 C 
ATOM     14  C   UNL     1      -2.925   3.086   0.047  0.00  0.00    +0.029 C 
ENDBRANCH   3   5
BRANCH   1  15
ATOM     15  C   UNL     1      -6.517   0.837   1.080  0.00  0.00    +0.200 C 
BRANCH  15  18
ATOM     16  C   UNL     1      -8.486   0.965   2.509  0.00  0.00    +0.251 C 
ATOM     17  O   UNL     1      -9.076   0.262   1.709  0.00  0.00    -0.270 OA
ATOM     18  N   UNL     1      -7.203   1.309   2.285  0.00  0.00    -0.302 N 
ATOM     19  H   UNL     1      -6.733   1.870   2.922  0.00  0.00    +0.150 HD
BRANCH  16  24
ATOM     20  C   UNL     1     -10.185   3.241   7.324  0.00  0.00    +0.051 C 
ATOM     21  C   UNL     1      -9.978   2.526   6.013  0.00  0.00    -0.013 A 
ATOM     22  C   UNL     1     -10.866   1.772   5.314  0.00  0.00    +0.011 A 
ATOM     23  C   UNL     1     -10.474   1.202   4.129  0.00  0.00    +0.021 A 
ATOM     24  C   UNL     1      -9.172   1.438   3.715  0.00  0.00    +0.074 A 
ATOM     25  S   UNL     1      -8.547   2.460   5.036  0.00  0.00    -0.089 S 
ENDBRANCH  16  24
ENDBRANCH  15  18
ENDBRANCH   1  15
TORSDOF 4
