REMARK  Name = ZINC40322794
REMARK  16 active torsions:
REMARK  status: ('A' for Active; 'I' for Inactive)
REMARK    1  A    between atoms: C_1  and  C_2
REMARK    2  A    between atoms: C_2  and  C_3
REMARK    3  A    between atoms: C_3  and  O_4
REMARK    4  A    between atoms: O_4  and  C_5
REMARK    5  A    between atoms: C_8  and  C_11
REMARK    6  A    between atoms: C_11  and  C_13
REMARK    7  A    between atoms: C_11  and  N_32
REMARK    8  A    between atoms: C_13  and  N_14
REMARK    9  A    between atoms: C_15  and  C_17
REMARK   10  A    between atoms: C_20  and  S_22
REMARK   11  A    between atoms: S_22  and  C_25
REMARK   12  A    between atoms: C_28  and  C_31
REMARK   13  A    between atoms: N_32  and  C_33
REMARK   14  A    between atoms: N_32  and  C_35
REMARK   15  A    between atoms: C_33  and  C_34
REMARK   16  A    between atoms: C_35  and  C_36
REMARK                            x       y       z     vdW  Elec       q    Type
REMARK                         _______ _______ _______ _____ _____    ______ ____
ROOT
ATOM      1  N   UNL     1      -8.052  -5.993  -1.303  0.00  0.00    -0.310 N 
ATOM      2  C   UNL     1      -8.368  -5.740  -2.589  0.00  0.00    +0.279 C 
ATOM      3  O   UNL     1      -8.033  -4.689  -3.103  0.00  0.00    -0.267 OA
ATOM      4  H   UNL     1      -8.253  -6.858  -0.915  0.00  0.00    +0.149 HD
ENDROOT
BRANCH   2   5
ATOM      5  C   UNL     1      -9.115  -6.733  -3.369  0.00  0.00    +0.192 A 
ATOM      6  C   UNL     1      -9.412  -6.650  -4.699  0.00  0.00    +0.056 A 
ATOM      7  C   UNL     1     -10.133  -7.810  -5.024  0.00  0.00    +0.070 A 
ATOM      8  C   UNL     1     -10.242  -8.541  -3.893  0.00  0.00    +0.246 A 
ATOM      9  O   UNL     1      -9.623  -7.891  -2.898  0.00  0.00    -0.433 OA
BRANCH   8  10
ATOM     10  S   UNL     1     -11.059 -10.095  -3.750  0.00  0.00    +0.058 S 
ATOM     11  O   UNL     1     -11.429 -10.236  -2.385  0.00  0.00    -0.161 OA
ATOM     12  O   UNL     1     -12.009 -10.153  -4.806  0.00  0.00    -0.161 OA
BRANCH  10  13
ATOM     13  C   UNL     1      -9.863 -11.345  -4.080  0.00  0.00    +0.097 A 
ATOM     14  C   UNL     1      -9.668 -11.792  -5.374  0.00  0.00    +0.028 A 
ATOM     15  C   UNL     1      -8.729 -12.773  -5.633  0.00  0.00    +0.005 A 
ATOM     16  C   UNL     1      -7.984 -13.307  -4.598  0.00  0.00    -0.050 A 
ATOM     17  C   UNL     1      -8.178 -12.860  -3.304  0.00  0.00    +0.005 A 
ATOM     18  C   UNL     1      -9.114 -11.876  -3.046  0.00  0.00    +0.028 A 
ATOM     19  C   UNL     1      -6.961 -14.377  -4.880  0.00  0.00    +0.044 C 
ENDBRANCH  10  13
ENDBRANCH   8  10
ENDBRANCH   2   5
BRANCH   1  20
ATOM     20  C   UNL     1      -7.403  -4.959  -0.492  0.00  0.00    +0.094 C 
BRANCH  20  21
ATOM     21  C   UNL     1      -7.264  -5.454   0.949  0.00  0.00    -0.020 C 
BRANCH  21  25
ATOM     22  C   UNL     1      -5.463  -2.402   3.337  0.00  0.00    +0.121 A 
ATOM     23  C   UNL     1      -6.548  -3.115   3.824  0.00  0.00    +0.046 A 
ATOM     24  C   UNL     1      -7.129  -4.101   3.050  0.00  0.00    +0.005 A 
ATOM     25  C   UNL     1      -6.629  -4.378   1.791  0.00  0.00    -0.059 A 
ATOM     26  C   UNL     1      -5.547  -3.668   1.303  0.00  0.00    +0.005 A 
ATOM     27  C   UNL     1      -4.967  -2.677   2.071  0.00  0.00    +0.046 A 
BRANCH  22  28
ATOM     28  O   UNL     1      -4.890  -1.431   4.096  0.00  0.00    -0.492 OA
BRANCH  28  29
ATOM     29  C   UNL     1      -5.453  -1.202   5.389  0.00  0.00    +0.229 C 
BRANCH  29  31
ATOM     30  C   UNL     1      -5.285   0.164   7.474  0.00  0.00    +0.007 C 
ATOM     31  C   UNL     1      -4.682  -0.082   6.090  0.00  0.00    +0.038 C 
ENDBRANCH  29  31
ENDBRANCH  28  29
ENDBRANCH  22  28
ENDBRANCH  21  25
BRANCH  21  32
ATOM     32  N   UNL     1      -6.422  -6.657   0.975  0.00  0.00    +0.385 N 
ATOM     33  H   UNL     1      -6.907  -7.418   0.524  0.00  0.00    -0.081 HD
BRANCH  32  34
ATOM     34  C   UNL     1      -5.164  -6.389   0.264  0.00  0.00    -0.081 C 
ATOM     35  C   UNL     1      -5.349  -6.680  -1.227  0.00  0.00    -0.017 C 
ENDBRANCH  32  34
BRANCH  32  36
ATOM     36  C   UNL     1      -6.129  -7.020   2.368  0.00  0.00    -0.081 C 
ATOM     37  C   UNL     1      -7.425  -7.428   3.071  0.00  0.00    -0.017 C 
ENDBRANCH  32  36
ENDBRANCH  21  32
ENDBRANCH  20  21
ENDBRANCH   1  20
TORSDOF 12
