REMARK  Name = ZINC32535790
REMARK  17 active torsions:
REMARK  status: ('A' for Active; 'I' for Inactive)
REMARK    1  A    between atoms: C_1  and  C_2
REMARK    2  A    between atoms: C_2  and  C_3
REMARK    3  A    between atoms: C_3  and  C_5
REMARK    4  A    between atoms: C_3  and  N_21
REMARK    5  A    between atoms: C_10  and  C_20
REMARK    6  A    between atoms: C_11  and  C_13
REMARK    7  A    between atoms: C_13  and  O_15
REMARK    8  A    between atoms: O_15  and  C_16
REMARK    9  A    between atoms: C_16  and  C_17
REMARK   10  A    between atoms: C_17  and  C_18
REMARK   11  A    between atoms: C_17  and  C_19
REMARK   12  A    between atoms: C_25  and  S_26
REMARK   13  A    between atoms: S_26  and  C_27
REMARK   14  A    between atoms: C_27  and  C_28
REMARK   15  A    between atoms: C_28  and  O_30
REMARK   16  A    between atoms: O_30  and  C_31
REMARK   17  A    between atoms: C_31  and  C_32
REMARK                            x       y       z     vdW  Elec       q    Type
REMARK                         _______ _______ _______ _____ _____    ______ ____
ROOT
ATOM      1  C   UNL     1      -2.166   1.069   1.401  0.00  0.00    +0.178 C 
ENDROOT
BRANCH   1   2
ATOM      2  C   UNL     1      -2.150  -0.418   1.641  0.00  0.00    +0.242 C 
ATOM      3  O   UNL     1      -2.713  -0.883   2.608  0.00  0.00    -0.273 OA
ATOM      4  N   UNL     1      -1.509  -1.232   0.779  0.00  0.00    -0.263 N 
ATOM      5  C   UNL     1      -1.406  -2.585   1.051  0.00  0.00    +0.165 A 
ATOM      6  N   UNL     1      -0.826  -3.533   0.331  0.00  0.00    -0.229 NA
ATOM      7  C   UNL     1      -0.807  -4.779   0.728  0.00  0.00    +0.062 A 
ATOM      8  C   UNL     1      -1.428  -5.084   1.931  0.00  0.00    +0.120 A 
ATOM      9  S   UNL     1      -2.011  -3.467   2.419  0.00  0.00    -0.045 S 
ATOM     10  C   UNL     1      -0.138  -5.848  -0.097  0.00  0.00    +0.067 C 
ATOM     11  H   UNL     1      -1.068  -0.822  -0.141  0.00  0.00    +0.157 HD
BRANCH   8  12
ATOM     12  C   UNL     1      -1.567  -6.371   2.610  0.00  0.00    +0.348 C 
ATOM     13  O   UNL     1      -1.096  -7.376   2.111  0.00  0.00    -0.244 OA
BRANCH  12  14
ATOM     14  O   UNL     1      -2.219  -6.445   3.789  0.00  0.00    -0.460 OA
BRANCH  14  15
ATOM     15  C   UNL     1      -2.317  -7.735   4.396  0.00  0.00    +0.235 C 
BRANCH  15  16
ATOM     16  C   UNL     1      -3.084  -7.620   5.716  0.00  0.00    +0.020 C 
ATOM     17  C   UNL     1      -3.297  -9.016   6.304  0.00  0.00    +0.010 C 
ATOM     18  C   UNL     1      -2.279  -6.769   6.700  0.00  0.00    +0.010 C 
ENDBRANCH  15  16
ENDBRANCH  14  15
ENDBRANCH  12  14
ENDBRANCH   8  12
ENDBRANCH   1   2
BRANCH   1  19
ATOM     19  N   UNL     1      -2.838   1.736   2.519  0.00  0.00    -0.279 N 
ATOM     20  C   UNL     1      -2.456   1.690   3.830  0.00  0.00    +0.216 A 
ATOM     21  N   UNL     1      -3.301   2.411   4.524  0.00  0.00    -0.113 NA
ATOM     22  N   UNL     1      -4.258   2.928   3.641  0.00  0.00    -0.121 NA
ATOM     23  C   UNL     1      -3.962   2.510   2.434  0.00  0.00    +0.194 A 
ATOM     24  N   UNL     1      -1.361   1.002   4.336  0.00  0.00    -0.328 N 
ATOM     25  H   UNL     1      -1.143   1.032   5.414  0.00  0.00    +0.145 HD
ATOM     26  H   UNL     1      -0.712   0.426   3.659  0.00  0.00    +0.145 HD
BRANCH  23  27
ATOM     27  S   UNL     1      -4.857   2.880   0.962  0.00  0.00    -0.075 S 
BRANCH  27  28
ATOM     28  C   UNL     1      -6.219   3.934   1.530  0.00  0.00    +0.197 C 
BRANCH  28  29
ATOM     29  C   UNL     1      -7.074   4.328   0.352  0.00  0.00    +0.317 C 
ATOM     30  O   UNL     1      -6.793   3.937  -0.756  0.00  0.00    -0.250 OA
BRANCH  29  31
ATOM     31  O   UNL     1      -8.147   5.113   0.535  0.00  0.00    -0.464 OA
BRANCH  31  32
ATOM     32  C   UNL     1      -8.924   5.452  -0.644  0.00  0.00    +0.229 C 
ATOM     33  C   UNL     1     -10.099   6.346  -0.241  0.00  0.00    +0.048 C 
ENDBRANCH  31  32
ENDBRANCH  29  31
ENDBRANCH  28  29
ENDBRANCH  27  28
ENDBRANCH  23  27
ENDBRANCH   1  19
BRANCH   1  35
ATOM     34  C   UNL     1      -0.746   3.066   0.910  0.00  0.00    +0.006 C 
ATOM     35  C   UNL     1      -0.729   1.584   1.290  0.00  0.00    +0.031 C 
ENDBRANCH   1  35
TORSDOF 12
