REMARK  Name = ZINC39710303
REMARK  9 active torsions:
REMARK  status: ('A' for Active; 'I' for Inactive)
REMARK    1  A    between atoms: C_1  and  C_2
REMARK    2  A    between atoms: C_9  and  C_14
REMARK    3  A    between atoms: C_14  and  C_16
REMARK    4  A    between atoms: C_14  and  N_27
REMARK    5  A    between atoms: N_21  and  C_22
REMARK    6  A    between atoms: N_27  and  C_28
REMARK    7  A    between atoms: N_27  and  C_35
REMARK    8  A    between atoms: C_28  and  C_29
REMARK    9  A    between atoms: C_35  and  C_36
REMARK                            x       y       z     vdW  Elec       q    Type
REMARK                         _______ _______ _______ _____ _____    ______ ____
ROOT
ATOM      1  C   UNL     1      -0.622  -6.064   2.046  0.00  0.00    -0.009 C 
ENDROOT
BRANCH   1  10
ATOM      2  C   UNL     1      -2.854 -10.889  -2.723  0.00  0.00    +0.044 C 
ATOM      3  C   UNL     1      -3.019 -10.041  -1.488  0.00  0.00    -0.050 A 
ATOM      4  C   UNL     1      -3.932 -10.432  -0.508  0.00  0.00    +0.005 A 
ATOM      5  C   UNL     1      -4.135  -9.719   0.630  0.00  0.00    +0.024 A 
ATOM      6  C   UNL     1      -3.414  -8.534   0.869  0.00  0.00    +0.040 A 
ATOM      7  N   UNL     1      -3.621  -7.843   1.990  0.00  0.00    -0.285 N 
ATOM      8  C   UNL     1      -2.980  -6.723   2.277  0.00  0.00    +0.223 C 
ATOM      9  O   UNL     1      -3.211  -6.136   3.317  0.00  0.00    -0.275 OA
ATOM     10  C   UNL     1      -1.957  -6.175   1.307  0.00  0.00    +0.088 C 
ATOM     11  C   UNL     1      -1.718  -6.957   0.030  0.00  0.00    -0.006 C 
ATOM     12  C   UNL     1      -2.443  -8.098  -0.149  0.00  0.00    -0.007 A 
ATOM     13  C   UNL     1      -2.271  -8.916  -1.350  0.00  0.00    +0.012 A 
ATOM     14  H   UNL     1      -4.273  -8.178   2.626  0.00  0.00    +0.155 HD
ENDBRANCH   1  10
BRANCH   1  15
ATOM     15  C   UNL     1       0.402  -5.367   1.146  0.00  0.00    +0.205 C 
ATOM     16  N   UNL     1       1.767  -5.645   1.613  0.00  0.00    -0.152 NA
ATOM     17  N   UNL     1       2.307  -4.581   1.921  0.00  0.00    -0.070 NA
ATOM     18  N   UNL     1       1.476  -3.477   1.734  0.00  0.00    -0.179 N 
ATOM     19  N   UNL     1       0.264  -3.900   1.248  0.00  0.00    -0.185 NA
ATOM     20  H   UNL     1       1.717  -2.555   1.918  0.00  0.00    +0.191 HD
BRANCH  19  21
ATOM     21  C   UNL     1      -0.827  -3.535   2.162  0.00  0.00    +0.080 C 
ATOM     22  C   UNL     1      -1.405  -2.159   1.772  0.00  0.00    +0.021 C 
ATOM     23  C   UNL     1      -1.735  -1.488   3.129  0.00  0.00    +0.002 C 
ATOM     24  C   UNL     1      -0.558  -1.939   4.028  0.00  0.00    +0.002 C 
ATOM     25  C   UNL     1      -0.288  -3.395   3.597  0.00  0.00    +0.021 C 
ENDBRANCH  19  21
ENDBRANCH   1  15
BRANCH   1  26
ATOM     26  N   UNL     1      -0.139  -7.407   2.389  0.00  0.00    +0.390 N 
ATOM     27  H   UNL     1      -0.921  -7.991   2.646  0.00  0.00    -0.080 HD
BRANCH  26  28
ATOM     28  C   UNL     1       0.547  -7.992   1.229  0.00  0.00    -0.042 C 
BRANCH  28  29
ATOM     29  C   UNL     1       0.968  -9.403   1.552  0.00  0.00    -0.064 A 
ATOM     30  C   UNL     1       2.205  -9.642   2.120  0.00  0.00    +0.002 A 
ATOM     31  C   UNL     1       2.591 -10.936   2.417  0.00  0.00    +0.000 A 
ATOM     32  C   UNL     1       1.739 -11.991   2.146  0.00  0.00    +0.000 A 
ATOM     33  C   UNL     1       0.501 -11.751   1.580  0.00  0.00    +0.000 A 
ATOM     34  C   UNL     1       0.113 -10.457   1.287  0.00  0.00    +0.002 A 
ENDBRANCH  28  29
ENDBRANCH  26  28
BRANCH  26  35
ATOM     35  C   UNL     1       0.798  -7.318   3.517  0.00  0.00    -0.040 C 
BRANCH  35  36
ATOM     36  C   UNL     1       0.057  -6.869   4.750  0.00  0.00    -0.046 A 
ATOM     37  C   UNL     1       0.453  -5.727   5.431  0.00  0.00    +0.005 A 
ATOM     38  C   UNL     1      -0.258  -5.352   6.560  0.00  0.00    +0.020 A 
ATOM     39  C   UNL     1      -1.331  -6.123   6.968  0.00  0.00    +0.111 A 
ATOM     40  N   UNL     1      -1.679  -7.203   6.296  0.00  0.00    -0.263 NA
ATOM     41  C   UNL     1      -1.030  -7.586   5.214  0.00  0.00    +0.112 A 
ENDBRANCH  35  36
ENDBRANCH  26  35
ENDBRANCH   1  26
TORSDOF 8
