REMARK  Name = ZINC08834334
REMARK  10 active torsions:
REMARK  status: ('A' for Active; 'I' for Inactive)
REMARK    1  A    between atoms: C_1  and  C_2
REMARK    2  A    between atoms: C_2  and  C_3
REMARK    3  A    between atoms: C_6  and  C_31
REMARK    4  A    between atoms: C_7  and  S_9
REMARK    5  A    between atoms: S_9  and  N_12
REMARK    6  A    between atoms: N_12  and  C_13
REMARK    7  A    between atoms: C_15  and  S_24
REMARK    8  A    between atoms: C_16  and  O_23
REMARK    9  A    between atoms: S_24  and  C_25
REMARK   10  A    between atoms: C_31  and  C_32
REMARK                            x       y       z     vdW  Elec       q    Type
REMARK                         _______ _______ _______ _____ _____    ______ ____
ROOT
ATOM      1  C   UNL     1       1.625  -0.679   0.562  0.00  0.00    +0.057 A 
ATOM      2  C   UNL     1       0.929   0.508   0.524  0.00  0.00    +0.044 A 
ATOM      3  C   UNL     1      -0.350   0.604   1.079  0.00  0.00    +0.059 A 
ATOM      4  C   UNL     1      -0.945  -0.491   1.678  0.00  0.00    +0.138 A 
ATOM      5  C   UNL     1      -0.255  -1.716   1.730  0.00  0.00    +0.026 A 
ATOM      6  C   UNL     1       1.042  -1.813   1.167  0.00  0.00    +0.008 A 
ATOM      7  C   UNL     1       1.726  -3.038   1.221  0.00  0.00    +0.010 A 
ATOM      8  C   UNL     1       1.137  -4.114   1.812  0.00  0.00    +0.001 A 
ATOM      9  C   UNL     1      -0.138  -4.020   2.365  0.00  0.00    +0.001 A 
ATOM     10  C   UNL     1      -0.832  -2.849   2.332  0.00  0.00    +0.012 A 
ENDROOT
BRANCH   1  11
ATOM     11  N   UNL     1       2.902  -0.761   0.004  0.00  0.00    -0.216 N 
ATOM     12  H   UNL     1       3.187  -1.576  -0.439  0.00  0.00    +0.174 HD
BRANCH  11  13
ATOM     13  S   UNL     1       3.931   0.533   0.097  0.00  0.00    +0.073 S 
ATOM     14  O   UNL     1       5.179   0.099  -0.425  0.00  0.00    -0.150 OA
ATOM     15  O   UNL     1       3.230   1.649  -0.435  0.00  0.00    -0.150 OA
BRANCH  13  20
ATOM     16  C   UNL     1       3.962   2.331   3.690  0.00  0.00    -0.046 A 
ATOM     17  C   UNL     1       4.598   1.399   4.490  0.00  0.00    +0.004 A 
ATOM     18  C   UNL     1       5.029   0.203   3.948  0.00  0.00    +0.006 A 
ATOM     19  C   UNL     1       4.821  -0.063   2.608  0.00  0.00    -0.021 A 
ATOM     20  C   UNL     1       4.191   0.871   1.807  0.00  0.00    +0.112 A 
ATOM     21  C   UNL     1       3.759   2.067   2.349  0.00  0.00    +0.032 A 
BRANCH  16  23
ATOM     22  C   UNL     1       2.058   3.475   4.793  0.00  0.00    +0.009 C 
ATOM     23  C   UNL     1       3.491   3.635   4.281  0.00  0.00    +0.032 C 
ENDBRANCH  16  23
BRANCH  19  24
ATOM     24  C   UNL     1       5.286  -1.370   2.018  0.00  0.00    +0.034 C 
ATOM     25  C   UNL     1       6.754  -1.249   1.605  0.00  0.00    +0.009 C 
ENDBRANCH  19  24
ENDBRANCH  13  20
ENDBRANCH  11  13
ENDBRANCH   1  11
BRANCH   4  26
ATOM     26  O   UNL     1      -2.193  -0.386   2.209  0.00  0.00    -0.505 OA
ATOM     27  H   UNL     1      -2.204  -0.125   3.140  0.00  0.00    +0.292 HD
ENDBRANCH   4  26
BRANCH   3  28
ATOM     28  S   UNL     1      -1.216   2.138   1.014  0.00  0.00    -0.048 S 
BRANCH  28  29
ATOM     29  C   UNL     1      -2.368   1.784  -0.272  0.00  0.00    +0.171 A 
ATOM     30  N   UNL     1      -3.249   2.668  -0.817  0.00  0.00    -0.339 N 
ATOM     31  H   UNL     1      -3.361   3.629  -0.564  0.00  0.00    +0.167 HD
ATOM     32  C   UNL     1      -3.956   1.988  -1.782  0.00  0.00    +0.104 A 
ATOM     33  C   UNL     1      -3.489   0.727  -1.794  0.00  0.00    +0.131 A 
ATOM     34  N   UNL     1      -2.519   0.626  -0.871  0.00  0.00    -0.230 NA
ENDBRANCH  28  29
ENDBRANCH   3  28
TORSDOF 8
