REMARK  Name = ZINC39698171
REMARK  7 active torsions:
REMARK  status: ('A' for Active; 'I' for Inactive)
REMARK    1  A    between atoms: C_1  and  C_2
REMARK    2  A    between atoms: C_7  and  C_12
REMARK    3  A    between atoms: C_12  and  C_35
REMARK    4  A    between atoms: C_13  and  C_14
REMARK    5  A    between atoms: C_16  and  N_32
REMARK    6  A    between atoms: C_17  and  N_26
REMARK    7  A    between atoms: C_19  and  N_20
REMARK                            x       y       z     vdW  Elec       q    Type
REMARK                         _______ _______ _______ _____ _____    ______ ____
ROOT
ATOM      1  C   UNL     1      -2.237  -6.965   3.065  0.00  0.00    -0.001 A 
ATOM      2  C   UNL     1      -3.495  -6.431   2.759  0.00  0.00    +0.044 A 
ATOM      3  C   UNL     1      -4.628  -7.055   3.196  0.00  0.00    +0.148 A 
ATOM      4  C   UNL     1      -4.544  -8.226   3.947  0.00  0.00    +0.062 A 
ATOM      5  C   UNL     1      -3.305  -8.771   4.260  0.00  0.00    +0.049 A 
ATOM      6  C   UNL     1      -2.147  -8.151   3.819  0.00  0.00    +0.039 A 
ENDROOT
BRANCH   6   7
ATOM      7  N   UNL     1      -0.904  -8.693   4.124  0.00  0.00    -0.325 N 
ATOM      8  C   UNL     1      -0.194  -8.315   5.356  0.00  0.00    +0.133 C 
ATOM      9  C   UNL     1       0.234  -9.596   6.080  0.00  0.00    +0.178 C 
ATOM     10  O   UNL     1       0.947 -10.436   5.170  0.00  0.00    -0.377 OA
ATOM     11  C   UNL     1       0.172 -10.878   4.053  0.00  0.00    +0.178 C 
ATOM     12  C   UNL     1      -0.261  -9.667   3.227  0.00  0.00    +0.133 C 
ENDBRANCH   6   7
BRANCH   4  13
ATOM     13  N   UNL     1      -5.707  -8.853   4.387  0.00  0.00    -0.324 N 
ATOM     14  C   UNL     1      -6.369  -9.881   3.568  0.00  0.00    +0.133 C 
ATOM     15  C   UNL     1      -6.621 -11.111   4.448  0.00  0.00    +0.178 C 
ATOM     16  O   UNL     1      -7.305 -10.708   5.636  0.00  0.00    -0.377 OA
ATOM     17  C   UNL     1      -6.564  -9.804   6.460  0.00  0.00    +0.178 C 
ATOM     18  C   UNL     1      -6.307  -8.511   5.686  0.00  0.00    +0.133 C 
ENDBRANCH   4  13
BRANCH   3  19
ATOM     19  N   UNL     1      -5.955  -6.485   2.869  0.00  0.00    +0.058 N 
ATOM     20  O   UNL     1      -6.032  -5.469   2.218  0.00  0.00    -0.126 OA
ATOM     21  O   UNL     1      -6.960  -7.034   3.254  0.00  0.00    -0.126 OA
ENDBRANCH   3  19
BRANCH   1  23
ATOM     22  C   UNL     1      -1.018  -5.647   1.410  0.00  0.00    +0.072 C 
ATOM     23  C   UNL     1      -1.019  -6.296   2.597  0.00  0.00    +0.028 C 
BRANCH  22  30
ATOM     24  C   UNL     1       0.088  -0.704  -3.405  0.00  0.00    +0.044 C 
ATOM     25  C   UNL     1       0.269  -1.958  -2.588  0.00  0.00    -0.048 A 
ATOM     26  C   UNL     1       0.828  -3.091  -3.206  0.00  0.00    +0.005 A 
ATOM     27  C   UNL     1       1.025  -4.253  -2.552  0.00  0.00    +0.027 A 
ATOM     28  C   UNL     1       0.647  -4.360  -1.136  0.00  0.00    +0.060 A 
ATOM     29  N   UNL     1       0.719  -5.331  -0.272  0.00  0.00    -0.359 N 
ATOM     30  C   UNL     1       0.180  -4.831   0.999  0.00  0.00    +0.216 C 
ATOM     31  N   UNL     1      -0.215  -3.437   0.761  0.00  0.00    -0.359 N 
ATOM     32  C   UNL     1       0.056  -3.161  -0.482  0.00  0.00    +0.061 A 
ATOM     33  C   UNL     1      -0.106  -1.947  -1.294  0.00  0.00    +0.030 A 
ATOM     34  H   UNL     1       1.064  -6.223  -0.438  0.00  0.00    +0.162 HD
ATOM     35  H   UNL     1      -0.606  -2.833   1.411  0.00  0.00    +0.162 HD
ENDBRANCH  22  30
BRANCH  22  36
ATOM     36  C   UNL     1      -2.156  -5.734   0.545  0.00  0.00    +0.099 C 
ATOM     37  N   UNL     1      -3.058  -5.804  -0.141  0.00  0.00    -0.191 NA
ENDBRANCH  22  36
ENDBRANCH   1  23
TORSDOF 6
