REMARK  Name = ZINC43762524
REMARK  12 active torsions:
REMARK  status: ('A' for Active; 'I' for Inactive)
REMARK    1  A    between atoms: C_1  and  C_2
REMARK    2  A    between atoms: C_10  and  O_41
REMARK    3  A    between atoms: C_13  and  C_40
REMARK    4  A    between atoms: C_14  and  C_26
REMARK    5  A    between atoms: C_17  and  S_19
REMARK    6  A    between atoms: S_19  and  C_20
REMARK    7  A    between atoms: C_26  and  C_27
REMARK    8  A    between atoms: C_27  and  C_28
REMARK    9  A    between atoms: C_27  and  C_29
REMARK   10  A    between atoms: C_27  and  C_38
REMARK   11  A    between atoms: C_29  and  O_30
REMARK   12  A    between atoms: O_30  and  C_31
REMARK                            x       y       z     vdW  Elec       q    Type
REMARK                         _______ _______ _______ _____ _____    ______ ____
ROOT
ATOM      1  C   UNL     1       0.173   1.854   0.061  0.00  0.00    +0.008 C 
ATOM      2  C   UNL     1       0.056   0.341  -0.069  0.00  0.00    -0.005 C 
ATOM      3  C   UNL     1      -1.403  -0.121  -0.139  0.00  0.00    +0.004 C 
ATOM      4  C   UNL     1      -2.060  -0.327   1.210  0.00  0.00    +0.004 C 
ATOM      5  C   UNL     1      -1.254  -1.263   2.138  0.00  0.00    +0.002 C 
ATOM      6  C   UNL     1      -1.878  -1.063   3.555  0.00  0.00    +0.007 C 
ATOM      7  C   UNL     1      -1.410   0.352   3.965  0.00  0.00    +0.032 C 
ATOM      8  C   UNL     1      -0.202   0.695   3.058  0.00  0.00    +0.125 C 
ATOM      9  C   UNL     1       0.112  -0.600   2.308  0.00  0.00    +0.043 C 
ATOM     10  C   UNL     1       0.809  -0.431   0.958  0.00  0.00    +0.008 C 
ATOM     11  C   UNL     1       2.189   0.029   1.431  0.00  0.00    +0.128 C 
ATOM     12  O   UNL     1       2.425  -0.746   2.638  0.00  0.00    -0.361 OA
ATOM     13  C   UNL     1       1.191  -1.389   3.056  0.00  0.00    +0.190 C 
ATOM     14  C   UNL     1       1.032  -1.838   0.354  0.00  0.00    +0.015 C 
ENDROOT
BRANCH   8  15
ATOM     15  O   UNL     1       0.901   1.156   3.831  0.00  0.00    -0.391 OA
ATOM     16  H   UNL     1       0.722   1.965   4.329  0.00  0.00    +0.210 HD
ENDBRANCH   8  15
BRANCH  13  17
ATOM     17  S   UNL     1       0.984  -1.276   4.854  0.00  0.00    -0.093 S 
BRANCH  17  18
ATOM     18  C   UNL     1       2.218  -2.358   5.494  0.00  0.00    +0.010 A 
ATOM     19  C   UNL     1       3.062  -3.043   4.628  0.00  0.00    +0.015 A 
ATOM     20  C   UNL     1       4.028  -3.890   5.133  0.00  0.00    +0.001 A 
ATOM     21  C   UNL     1       4.157  -4.058   6.500  0.00  0.00    +0.000 A 
ATOM     22  C   UNL     1       3.320  -3.378   7.365  0.00  0.00    +0.001 A 
ATOM     23  C   UNL     1       2.355  -2.524   6.867  0.00  0.00    +0.015 A 
ENDBRANCH  17  18
ENDBRANCH  13  17
BRANCH  11  24
ATOM     24  C   UNL     1       3.244  -0.314   0.379  0.00  0.00    +0.045 C 
BRANCH  24  25
ATOM     25  C   UNL     1       4.587   0.295   0.786  0.00  0.00    +0.011 C 
ATOM     26  C   UNL     1       5.083  -0.376   2.069  0.00  0.00    +0.018 C 
BRANCH  25  27
ATOM     27  C   UNL     1       5.592   0.077  -0.316  0.00  0.00    -0.026 C 
ATOM     28  C   UNL     1       5.275  -0.651  -1.357  0.00  0.00    +0.004 C 
ENDBRANCH  25  27
BRANCH  25  29
ATOM     29  C   UNL     1       4.414   1.796   1.030  0.00  0.00    +0.173 C 
BRANCH  29  30
ATOM     30  O   UNL     1       5.669   2.364   1.410  0.00  0.00    -0.350 OA
BRANCH  30  31
ATOM     31  C   UNL     1       5.617   3.770   1.662  0.00  0.00    +0.250 C 
ATOM     32  C   UNL     1       6.978   4.246   2.178  0.00  0.00    +0.061 C 
ATOM     33  C   UNL     1       6.933   5.763   2.389  0.00  0.00    +0.007 C 
ATOM     34  C   UNL     1       6.542   6.439   1.071  0.00  0.00    +0.028 C 
ATOM     35  C   UNL     1       5.199   5.878   0.597  0.00  0.00    +0.163 C 
ATOM     36  O   UNL     1       5.301   4.460   0.451  0.00  0.00    -0.351 OA
ENDBRANCH  30  31
ENDBRANCH  29  30
ENDBRANCH  25  29
ENDBRANCH  24  25
ENDBRANCH  11  24
TORSDOF 9
