REMARK  Name = ZINC34692112
REMARK  6 active torsions:
REMARK  status: ('A' for Active; 'I' for Inactive)
REMARK    1  A    between atoms: C_2  and  C_3
REMARK    2  A    between atoms: C_3  and  N_4
REMARK    3  A    between atoms: C_11  and  C_14
REMARK    4  A    between atoms: C_14  and  N_15
REMARK    5  A    between atoms: C_22  and  C_24
REMARK    6  A    between atoms: C_27  and  C_30
REMARK                            x       y       z     vdW  Elec       q    Type
REMARK                         _______ _______ _______ _____ _____    ______ ____
ROOT
ATOM      1  N   UNL     1      -5.820  -5.108  -5.892  0.00  0.00    +0.382 N 
ATOM      2  C   UNL     1      -7.000  -5.948  -6.088  0.00  0.00    -0.077 C 
ATOM      3  C   UNL     1      -7.939  -5.272  -7.061  0.00  0.00    +0.000 C 
ATOM      4  C   UNL     1      -7.653  -5.780  -8.486  0.00  0.00    +0.106 C 
ATOM      5  N   UNL     1      -6.202  -5.931  -8.715  0.00  0.00    -0.299 N 
ATOM      6  C   UNL     1      -5.237  -4.958  -8.245  0.00  0.00    +0.089 C 
ATOM      7  C   UNL     1      -4.774  -5.326  -6.816  0.00  0.00    -0.059 C 
ATOM      8  C   UNL     1      -5.759  -7.013  -9.385  0.00  0.00    +0.247 C 
ATOM      9  O   UNL     1      -4.565  -7.215  -9.492  0.00  0.00    -0.270 OA
ATOM     10  H   UNL     1      -6.106  -4.143  -5.956  0.00  0.00    -0.082 HD
ENDROOT
BRANCH   8  11
ATOM     11  C   UNL     1      -6.725  -7.955  -9.989  0.00  0.00    +0.037 A 
ATOM     12  C   UNL     1      -7.901  -7.477 -10.569  0.00  0.00    +0.013 A 
ATOM     13  C   UNL     1      -8.799  -8.361 -11.131  0.00  0.00    +0.013 A 
ATOM     14  C   UNL     1      -8.534  -9.719 -11.122  0.00  0.00    +0.055 A 
ATOM     15  C   UNL     1      -7.370 -10.200 -10.549  0.00  0.00    +0.013 A 
ATOM     16  C   UNL     1      -6.462  -9.326  -9.989  0.00  0.00    +0.013 A 
BRANCH  14  17
ATOM     17  C   UNL     1      -9.519 -10.679 -11.739  0.00  0.00    +0.417 C 
ATOM     18  F   UNL     1      -9.207 -10.864 -13.090  0.00  0.00    -0.166 F 
ATOM     19  F   UNL     1      -9.453 -11.907 -11.072  0.00  0.00    -0.166 F 
ATOM     20  F   UNL     1     -10.812 -10.157 -11.626  0.00  0.00    -0.166 F 
ENDBRANCH  14  17
ENDBRANCH   8  11
BRANCH   1  21
ATOM     21  C   UNL     1      -5.301  -5.346  -4.539  0.00  0.00    -0.045 C 
BRANCH  21  29
ATOM     22  N   UNL     1      -8.134  -4.783   0.737  0.00  0.00    -0.296 N 
ATOM     23  C   UNL     1      -7.181  -5.285  -0.073  0.00  0.00    +0.303 C 
ATOM     24  O   UNL     1      -6.708  -6.382   0.152  0.00  0.00    -0.253 OA
ATOM     25  N   UNL     1      -6.752  -4.571  -1.132  0.00  0.00    -0.281 N 
ATOM     26  C   UNL     1      -7.224  -3.195  -1.360  0.00  0.00    +0.137 C 
ATOM     27  C   UNL     1      -7.712  -3.085  -2.809  0.00  0.00    +0.179 C 
ATOM     28  O   UNL     1      -6.688  -3.559  -3.687  0.00  0.00    -0.375 OA
ATOM     29  C   UNL     1      -6.355  -4.938  -3.508  0.00  0.00    +0.119 C 
ATOM     30  C   UNL     1      -5.793  -5.141  -2.092  0.00  0.00    +0.139 C 
ATOM     31  H   UNL     1      -8.459  -3.879   0.602  0.00  0.00    +0.151 HD
BRANCH  22  32
ATOM     32  C   UNL     1      -8.679  -5.602   1.823  0.00  0.00    +0.132 C 
BRANCH  32  34
ATOM     33  C   UNL     1     -10.928  -5.299   2.723  0.00  0.00    +0.005 C 
ATOM     34  C   UNL     1      -9.720  -4.813   2.573  0.00  0.00    -0.016 C 
ENDBRANCH  32  34
ENDBRANCH  22  32
ENDBRANCH  21  29
ENDBRANCH   1  21
TORSDOF 6
