REMARK  Name = ZINC09996071
REMARK  11 active torsions:
REMARK  status: ('A' for Active; 'I' for Inactive)
REMARK    1  A    between atoms: C_1  and  C_2
REMARK    2  A    between atoms: C_2  and  C_3
REMARK    3  A    between atoms: C_2  and  C_4
REMARK    4  A    between atoms: C_4  and  C_6
REMARK    5  A    between atoms: C_4  and  N_21
REMARK    6  A    between atoms: N_8  and  C_9
REMARK    7  A    between atoms: C_9  and  C_10
REMARK    8  A    between atoms: C_10  and  C_12
REMARK    9  A    between atoms: C_10  and  N_64
REMARK   10  A    between atoms: N_21  and  S_22
REMARK   11  A    between atoms: S_22  and  C_25
REMARK                            x       y       z     vdW  Elec       q    Type
REMARK                         _______ _______ _______ _____ _____    ______ ____
ROOT
ATOM      1  C   UNL     1      -0.005  -0.102  -0.009  0.00  0.00    +0.165 C 
ENDROOT
BRANCH   1   2
ATOM      2  C   UNL     1      -1.128  -0.379   0.958  0.00  0.00    +0.232 C 
ATOM      3  O   UNL     1      -1.671   0.539   1.535  0.00  0.00    -0.274 OA
ATOM      4  N   UNL     1      -1.528  -1.647   1.180  0.00  0.00    -0.315 N 
ATOM      5  H   UNL     1      -1.050  -2.385   0.771  0.00  0.00    +0.149 HD
BRANCH   4   6
ATOM      6  C   UNL     1      -2.685  -1.909   2.040  0.00  0.00    +0.096 C 
BRANCH   6   7
ATOM      7  C   UNL     1      -2.846  -3.419   2.230  0.00  0.00    +0.016 C 
BRANCH   7  12
ATOM      8  C   UNL     1      -5.266  -3.151   2.260  0.00  0.00    -0.078 C 
ATOM      9  C   UNL     1      -6.444  -3.952   2.869  0.00  0.00    -0.020 C 
ATOM     10  C   UNL     1      -5.840  -5.362   3.063  0.00  0.00    -0.020 C 
ATOM     11  C   UNL     1      -4.316  -5.143   3.108  0.00  0.00    -0.078 C 
ATOM     12  N   UNL     1      -4.107  -3.700   2.981  0.00  0.00    +0.387 N 
ATOM     13  H   UNL     1      -4.045  -3.275   3.913  0.00  0.00    -0.081 HD
ENDBRANCH   7  12
BRANCH   7  14
ATOM     14  C   UNL     1      -1.667  -3.957   2.998  0.00  0.00    +0.093 A 
ATOM     15  C   UNL     1      -0.605  -4.590   2.468  0.00  0.00    +0.043 A 
ATOM     16  C   UNL     1       0.255  -4.917   3.541  0.00  0.00    +0.041 A 
ATOM     17  C   UNL     1      -0.337  -4.473   4.664  0.00  0.00    +0.195 A 
ATOM     18  O   UNL     1      -1.501  -3.892   4.329  0.00  0.00    -0.469 OA
ENDBRANCH   7  14
ENDBRANCH   6   7
ENDBRANCH   4   6
ENDBRANCH   1   2
BRANCH   1  20
ATOM     19  C   UNL     1      -1.131  -1.433  -1.798  0.00  0.00    +0.009 C 
ATOM     20  C   UNL     1      -0.558  -0.061  -1.435  0.00  0.00    +0.010 C 
ATOM     21  C   UNL     1      -1.663   0.993  -1.524  0.00  0.00    +0.009 C 
ENDBRANCH   1  20
BRANCH   1  22
ATOM     22  N   UNL     1       0.609   1.188   0.314  0.00  0.00    -0.178 NA
ATOM     23  H   UNL     1       0.057   1.928   0.612  0.00  0.00    +0.149 HD
BRANCH  22  24
ATOM     24  S   UNL     1       2.247   1.387   0.162  0.00  0.00    +0.059 S 
ATOM     25  O   UNL     1       2.530   2.727   0.542  0.00  0.00    -0.153 OA
ATOM     26  O   UNL     1       2.852   0.270   0.798  0.00  0.00    -0.153 OA
BRANCH  24  27
ATOM     27  C   UNL     1       2.630   1.258  -1.553  0.00  0.00    +0.106 A 
ATOM     28  C   UNL     1       2.894   0.005  -2.105  0.00  0.00    +0.029 A 
ATOM     29  C   UNL     1       3.188  -0.130  -3.427  0.00  0.00    +0.010 A 
ATOM     30  C   UNL     1       3.239   1.010  -4.248  0.00  0.00    -0.018 A 
ATOM     31  C   UNL     1       3.546   0.910  -5.616  0.00  0.00    +0.008 A 
ATOM     32  C   UNL     1       3.585   2.036  -6.381  0.00  0.00    +0.001 A 
ATOM     33  C   UNL     1       3.327   3.288  -5.827  0.00  0.00    +0.001 A 
ATOM     34  C   UNL     1       3.027   3.423  -4.507  0.00  0.00    +0.008 A 
ATOM     35  C   UNL     1       2.976   2.284  -3.686  0.00  0.00    -0.016 A 
ATOM     36  C   UNL     1       2.670   2.383  -2.318  0.00  0.00    +0.037 A 
ENDBRANCH  24  27
ENDBRANCH  22  24
ENDBRANCH   1  22
TORSDOF 9
