REMARK  Name = ZINC12462105
REMARK  9 active torsions:
REMARK  status: ('A' for Active; 'I' for Inactive)
REMARK    1  A    between atoms: C_1  and  C_2
REMARK    2  A    between atoms: C_5  and  N_8
REMARK    3  A    between atoms: C_17  and  C_21
REMARK    4  A    between atoms: C_17  and  N_25
REMARK    5  A    between atoms: C_26  and  C_28
REMARK    6  A    between atoms: C_31  and  C_34
REMARK    7  A    between atoms: C_34  and  C_35
REMARK    8  A    between atoms: C_34  and  C_36
REMARK    9  A    between atoms: C_34  and  C_37
REMARK                            x       y       z     vdW  Elec       q    Type
REMARK                         _______ _______ _______ _____ _____    ______ ____
ROOT
ATOM      1  N   UNL     1      -1.589   4.455   0.038  0.00  0.00    -0.249 N 
ATOM      2  C   UNL     1      -0.788   3.444   0.531  0.00  0.00    +0.125 A 
ATOM      3  C   UNL     1       0.564   3.618   0.506  0.00  0.00    +0.097 A 
ATOM      4  C   UNL     1       1.113   4.799  -0.010  0.00  0.00    +0.262 A 
ATOM      5  O   UNL     1       2.321   4.957  -0.033  0.00  0.00    -0.267 OA
ATOM      6  N   UNL     1       0.290   5.759  -0.481  0.00  0.00    -0.274 N 
ATOM      7  H   UNL     1       0.673   6.606  -0.852  0.00  0.00    +0.173 HD
ATOM      8  C   UNL     1      -1.043   5.581  -0.453  0.00  0.00    +0.335 A 
ATOM      9  O   UNL     1      -1.769   6.456  -0.882  0.00  0.00    -0.246 OA
ATOM     10  C   UNL     1       1.171   2.369   1.099  0.00  0.00    +0.240 C 
ATOM     11  C   UNL     1      -0.034   1.516   1.440  0.00  0.00    +0.256 C 
ATOM     12  O   UNL     1      -0.025   0.412   1.942  0.00  0.00    -0.272 OA
ATOM     13  N   UNL     1      -1.116   2.223   1.069  0.00  0.00    -0.269 N 
ATOM     14  H   UNL     1      -2.028   1.907   1.172  0.00  0.00    +0.156 HD
ENDROOT
BRANCH   1  19
ATOM     15  C   UNL     1      -7.231   3.854   0.089  0.00  0.00    +0.044 C 
ATOM     16  C   UNL     1      -5.733   4.014   0.075  0.00  0.00    -0.050 A 
ATOM     17  C   UNL     1      -5.003   3.588  -1.019  0.00  0.00    +0.005 A 
ATOM     18  C   UNL     1      -3.630   3.732  -1.035  0.00  0.00    +0.026 A 
ATOM     19  C   UNL     1      -2.982   4.307   0.051  0.00  0.00    +0.053 A 
ATOM     20  C   UNL     1      -3.716   4.728   1.151  0.00  0.00    +0.026 A 
ATOM     21  C   UNL     1      -5.090   4.586   1.157  0.00  0.00    +0.005 A 
ENDBRANCH   1  19
BRANCH  10  22
ATOM     22  C   UNL     1       2.059   1.662   0.073  0.00  0.00    +0.424 C 
ATOM     23  F   UNL     1       1.316   1.397  -1.083  0.00  0.00    -0.167 F 
ATOM     24  F   UNL     1       3.145   2.482  -0.248  0.00  0.00    -0.167 F 
ATOM     25  F   UNL     1       2.527   0.458   0.612  0.00  0.00    -0.167 F 
ENDBRANCH  10  22
BRANCH  10  26
ATOM     26  N   UNL     1       1.936   2.687   2.308  0.00  0.00    -0.287 N 
ATOM     27  C   UNL     1       2.485   1.696   3.038  0.00  0.00    +0.245 C 
ATOM     28  O   UNL     1       2.346   0.538   2.694  0.00  0.00    -0.270 OA
ATOM     29  H   UNL     1       2.047   3.611   2.582  0.00  0.00    +0.151 HD
BRANCH  27  30
ATOM     30  C   UNL     1       3.256   2.017   4.258  0.00  0.00    +0.037 A 
ATOM     31  C   UNL     1       3.423   3.345   4.652  0.00  0.00    +0.013 A 
ATOM     32  C   UNL     1       4.140   3.638   5.795  0.00  0.00    +0.005 A 
ATOM     33  C   UNL     1       4.702   2.619   6.542  0.00  0.00    -0.042 A 
ATOM     34  C   UNL     1       4.545   1.300   6.153  0.00  0.00    +0.005 A 
ATOM     35  C   UNL     1       3.826   0.993   5.016  0.00  0.00    +0.013 A 
BRANCH  33  36
ATOM     36  C   UNL     1       5.489   2.946   7.785  0.00  0.00    -0.013 C 
ATOM     37  C   UNL     1       6.921   2.431   7.632  0.00  0.00    +0.015 C 
ATOM     38  C   UNL     1       5.511   4.462   7.990  0.00  0.00    +0.015 C 
ATOM     39  C   UNL     1       4.833   2.277   8.995  0.00  0.00    +0.015 C 
ENDBRANCH  33  36
ENDBRANCH  27  30
ENDBRANCH  10  26
TORSDOF 5
