REMARK  Name = ZINC64391696
REMARK  9 active torsions:
REMARK  status: ('A' for Active; 'I' for Inactive)
REMARK    1  A    between atoms: C_1  and  C_2
REMARK    2  A    between atoms: C_10  and  C_14
REMARK    3  A    between atoms: C_14  and  C_15
REMARK    4  A    between atoms: C_15  and  C_16
REMARK    5  A    between atoms: N_18  and  C_19
REMARK    6  A    between atoms: C_19  and  C_20
REMARK    7  A    between atoms: C_20  and  C_21
REMARK    8  A    between atoms: C_24  and  S_27
REMARK    9  A    between atoms: S_27  and  N_30
REMARK                            x       y       z     vdW  Elec       q    Type
REMARK                         _______ _______ _______ _____ _____    ______ ____
ROOT
ATOM      1  C   UNL     1      -4.755  -4.366   8.097  0.00  0.00    +0.213 C 
ATOM      2  O   UNL     1      -3.913  -4.685   8.909  0.00  0.00    -0.276 OA
ATOM      3  N   UNL     1      -6.039  -4.733   8.278  0.00  0.00    -0.315 N 
ATOM      4  H   UNL     1      -6.713  -4.477   7.628  0.00  0.00    +0.149 HD
ENDROOT
BRANCH   1   5
ATOM      5  C   UNL     1      -4.365  -3.559   6.885  0.00  0.00    +0.103 C 
BRANCH   5   6
ATOM      6  C   UNL     1      -2.862  -3.278   6.921  0.00  0.00    +0.083 C 
BRANCH   6  15
ATOM      7  C   UNL     1      -0.019   1.526   0.010  0.00  0.00    +0.007 C 
ATOM      8  C   UNL     1       0.002  -0.004   0.002  0.00  0.00    -0.012 C 
ATOM      9  C   UNL     1      -1.433  -0.525  -0.005  0.00  0.00    +0.008 C 
ATOM     10  C   UNL     1      -2.203   0.012   1.209  0.00  0.00    +0.033 C 
ATOM     11  C   UNL     1      -1.371  -0.334   2.442  0.00  0.00    -0.042 C 
ATOM     12  C   UNL     1      -1.821  -1.009   3.500  0.00  0.00    +0.071 C 
ATOM     13  C   UNL     1      -0.840  -1.433   4.534  0.00  0.00    +0.111 C 
ATOM     14  N   UNL     1      -1.188  -2.138   5.585  0.00  0.00    -0.227 NA
ATOM     15  C   UNL     1      -2.472  -2.471   5.710  0.00  0.00    +0.124 C 
ATOM     16  N   UNL     1      -3.422  -2.156   4.868  0.00  0.00    -0.161 NA
ATOM     17  C   UNL     1      -3.237  -1.445   3.740  0.00  0.00    +0.271 C 
ATOM     18  O   UNL     1      -4.147  -1.177   2.974  0.00  0.00    -0.268 OA
ATOM     19  S   UNL     1       0.704  -0.777   3.985  0.00  0.00    -0.097 S 
ATOM     20  C   UNL     1       0.100   0.086   2.483  0.00  0.00    +0.080 C 
ATOM     21  C   UNL     1       0.760  -0.504   1.236  0.00  0.00    +0.022 C 
ENDBRANCH   6  15
ENDBRANCH   5   6
ENDBRANCH   1   5
BRANCH   3  22
ATOM     22  C   UNL     1      -6.418  -5.517   9.456  0.00  0.00    +0.109 C 
BRANCH  22  23
ATOM     23  C   UNL     1      -7.921  -5.798   9.419  0.00  0.00    +0.054 C 
BRANCH  23  24
ATOM     24  C   UNL     1      -8.311  -6.605  10.631  0.00  0.00    -0.046 A 
ATOM     25  C   UNL     1      -8.281  -7.986  10.581  0.00  0.00    +0.005 A 
ATOM     26  C   UNL     1      -8.638  -8.726  11.692  0.00  0.00    +0.029 A 
ATOM     27  C   UNL     1      -9.025  -8.085  12.854  0.00  0.00    +0.105 A 
ATOM     28  C   UNL     1      -9.054  -6.704  12.905  0.00  0.00    +0.029 A 
ATOM     29  C   UNL     1      -8.693  -5.964  11.795  0.00  0.00    +0.005 A 
BRANCH  27  30
ATOM     30  S   UNL     1      -9.482  -9.029  14.270  0.00  0.00    +0.056 S 
ATOM     31  O   UNL     1     -10.327  -8.199  15.056  0.00  0.00    -0.153 OA
ATOM     32  O   UNL     1      -9.894 -10.303  13.794  0.00  0.00    -0.153 OA
BRANCH  30  33
ATOM     33  N   UNL     1      -8.106  -9.278  15.157  0.00  0.00    -0.204 NA
ATOM     34  H   UNL     1      -7.259  -8.919  14.849  0.00  0.00    +0.144 HD
ATOM     35  H   UNL     1      -8.147  -9.783  15.984  0.00  0.00    +0.144 HD
ENDBRANCH  30  33
ENDBRANCH  27  30
ENDBRANCH  23  24
ENDBRANCH  22  23
ENDBRANCH   3  22
TORSDOF 8
