REMARK  Name = ZINC63732065
REMARK  13 active torsions:
REMARK  status: ('A' for Active; 'I' for Inactive)
REMARK    1  A    between atoms: C_1  and  C_2
REMARK    2  A    between atoms: C_2  and  C_3
REMARK    3  A    between atoms: C_6  and  C_9
REMARK    4  A    between atoms: C_9  and  C_11
REMARK    5  A    between atoms: C_11  and  O_12
REMARK    6  A    between atoms: O_12  and  C_13
REMARK    7  A    between atoms: C_13  and  C_15
REMARK    8  A    between atoms: C_15  and  C_17
REMARK    9  A    between atoms: C_15  and  N_27
REMARK   10  A    between atoms: C_17  and  C_18
REMARK   11  A    between atoms: C_28  and  C_30
REMARK   12  A    between atoms: C_33  and  C_36
REMARK   13  A    between atoms: C_36  and  C_37
REMARK                            x       y       z     vdW  Elec       q    Type
REMARK                         _______ _______ _______ _____ _____    ______ ____
ROOT
ATOM      1  C   UNL     1       6.447  -3.294  -7.462  0.00  0.00    +0.186 C 
ENDROOT
BRANCH   1   2
ATOM      2  N   UNL     1       7.894  -3.503  -7.366  0.00  0.00    -0.298 N 
ATOM      3  C   UNL     1       8.659  -3.439  -8.473  0.00  0.00    +0.245 C 
ATOM      4  O   UNL     1       8.149  -3.208  -9.552  0.00  0.00    -0.270 OA
ATOM      5  H   UNL     1       8.301  -3.687  -6.505  0.00  0.00    +0.150 HD
BRANCH   3   6
ATOM      6  C   UNL     1      10.120  -3.649  -8.376  0.00  0.00    +0.037 A 
ATOM      7  C   UNL     1      10.708  -3.920  -7.139  0.00  0.00    +0.013 A 
ATOM      8  C   UNL     1      12.071  -4.115  -7.056  0.00  0.00    +0.004 A 
ATOM      9  C   UNL     1      12.854  -4.043  -8.194  0.00  0.00    -0.048 A 
ATOM     10  C   UNL     1      12.278  -3.775  -9.422  0.00  0.00    +0.004 A 
ATOM     11  C   UNL     1      10.915  -3.583  -9.521  0.00  0.00    +0.013 A 
BRANCH   9  12
ATOM     12  C   UNL     1      14.343  -4.258  -8.095  0.00  0.00    +0.032 C 
ATOM     13  C   UNL     1      14.658  -5.744  -8.280  0.00  0.00    +0.009 C 
ENDBRANCH   9  12
ENDBRANCH   3   6
ENDBRANCH   1   2
BRANCH   1  14
ATOM     14  C   UNL     1       5.920  -2.811  -6.136  0.00  0.00    +0.328 C 
ATOM     15  O   UNL     1       6.675  -2.656  -5.206  0.00  0.00    -0.249 OA
BRANCH  14  16
ATOM     16  O   UNL     1       4.611  -2.552  -5.988  0.00  0.00    -0.455 OA
BRANCH  16  17
ATOM     17  C   UNL     1       4.181  -2.096  -4.704  0.00  0.00    +0.311 C 
BRANCH  17  18
ATOM     18  C   UNL     1       2.693  -1.859  -4.727  0.00  0.00    +0.200 C 
ATOM     19  O   UNL     1       2.063  -2.061  -5.744  0.00  0.00    -0.288 OA
BRANCH  18  23
ATOM     20  C   UNL     1       0.707  -0.490  -1.238  0.00  0.00    -0.048 A 
ATOM     21  C   UNL     1      -0.015  -0.718  -2.396  0.00  0.00    +0.004 A 
ATOM     22  C   UNL     1       0.623  -1.163  -3.535  0.00  0.00    +0.012 A 
ATOM     23  C   UNL     1       2.004  -1.384  -3.517  0.00  0.00    +0.021 A 
ATOM     24  C   UNL     1       2.727  -1.151  -2.342  0.00  0.00    +0.012 A 
ATOM     25  C   UNL     1       2.075  -0.701  -1.214  0.00  0.00    +0.004 A 
BRANCH  20  27
ATOM     26  C   UNL     1      -0.019   1.526   0.010  0.00  0.00    +0.009 C 
ATOM     27  C   UNL     1       0.002  -0.004   0.002  0.00  0.00    +0.032 C 
ENDBRANCH  20  27
ENDBRANCH  18  23
ENDBRANCH  17  18
ENDBRANCH  16  17
ENDBRANCH  14  16
ENDBRANCH   1  14
BRANCH   1  28
ATOM     28  C   UNL     1       5.765  -4.613  -7.832  0.00  0.00    +0.067 C 
BRANCH  28  29
ATOM     29  C   UNL     1       6.200  -5.034  -9.212  0.00  0.00    -0.039 C 
ATOM     30  C   UNL     1       7.202  -5.888  -9.524  0.00  0.00    -0.001 A 
ATOM     31  C   UNL     1       8.150  -6.650  -8.703  0.00  0.00    +0.010 A 
ATOM     32  C   UNL     1       9.062  -7.439  -9.316  0.00  0.00    +0.001 A 
ATOM     33  C   UNL     1       9.123  -7.547 -10.712  0.00  0.00    +0.002 A 
ATOM     34  C   UNL     1       8.286  -6.878 -11.533  0.00  0.00    +0.026 A 
ATOM     35  C   UNL     1       7.287  -6.019 -10.996  0.00  0.00    +0.043 A 
ATOM     36  N   UNL     1       6.374  -5.276 -11.572  0.00  0.00    -0.380 N 
ATOM     37  C   UNL     1       5.601  -4.593 -10.528  0.00  0.00    +0.144 C 
ATOM     38  H   UNL     1       6.230  -5.194 -12.527  0.00  0.00    +0.160 HD
ENDBRANCH  28  29
ENDBRANCH   1  28
TORSDOF 11
