REMARK  Name = ZINC39696681
REMARK  6 active torsions:
REMARK  status: ('A' for Active; 'I' for Inactive)
REMARK    1  A    between atoms: C_1  and  N_2
REMARK    2  A    between atoms: C_6  and  C_9
REMARK    3  A    between atoms: C_9  and  N_10
REMARK    4  A    between atoms: C_11  and  C_13
REMARK    5  A    between atoms: C_24  and  C_26
REMARK    6  A    between atoms: C_28  and  C_33
REMARK                            x       y       z     vdW  Elec       q    Type
REMARK                         _______ _______ _______ _____ _____    ______ ____
ROOT
ATOM      1  C   UNL     1       1.600  -5.943   3.700  0.00  0.00    +0.100 C 
ATOM      2  C   UNL     1       0.246  -6.685   3.761  0.00  0.00    +0.121 C 
ATOM      3  N   UNL     1       0.526  -7.911   4.544  0.00  0.00    -0.296 N 
ATOM      4  C   UNL     1       1.449  -7.463   5.614  0.00  0.00    +0.115 C 
ATOM      5  C   UNL     1       2.386  -6.455   4.918  0.00  0.00    -0.004 C 
ATOM      6  C   UNL     1       3.666  -7.151   4.467  0.00  0.00    -0.010 C 
ATOM      7  C   UNL     1       4.458  -7.602   5.697  0.00  0.00    -0.082 C 
ATOM      8  N   UNL     1       4.779  -6.436   6.529  0.00  0.00    +0.379 N 
ATOM      9  C   UNL     1       3.543  -5.827   7.036  0.00  0.00    -0.082 C 
ATOM     10  C   UNL     1       2.712  -5.301   5.862  0.00  0.00    -0.010 C 
ATOM     11  C   UNL     1       0.049  -9.154   4.332  0.00  0.00    +0.247 C 
ATOM     12  O   UNL     1      -0.601  -9.393   3.333  0.00  0.00    -0.270 OA
ATOM     13  H   UNL     1       5.352  -6.727   7.307  0.00  0.00    -0.086 HD
ATOM     14  H   UNL     1       5.284  -5.759   5.977  0.00  0.00    -0.086 HD
ENDROOT
BRANCH  11  15
ATOM     15  C   UNL     1       0.316 -10.226   5.314  0.00  0.00    +0.040 A 
ATOM     16  C   UNL     1       0.229 -11.565   4.931  0.00  0.00    +0.025 A 
ATOM     17  C   UNL     1       0.479 -12.562   5.851  0.00  0.00    +0.058 A 
ATOM     18  C   UNL     1       0.818 -12.238   7.152  0.00  0.00    +0.050 A 
ATOM     19  C   UNL     1       0.907 -10.911   7.541  0.00  0.00    +0.125 A 
ATOM     20  C   UNL     1       0.663  -9.903   6.626  0.00  0.00    +0.051 A 
ATOM     21  F   UNL     1       1.237 -10.601   8.814  0.00  0.00    -0.205 F 
BRANCH  17  22
ATOM     22  C   UNL     1       0.384 -14.008   5.437  0.00  0.00    +0.418 C 
ATOM     23  F   UNL     1       1.630 -14.444   4.974  0.00  0.00    -0.166 F 
ATOM     24  F   UNL     1      -0.002 -14.783   6.536  0.00  0.00    -0.166 F 
ATOM     25  F   UNL     1      -0.565 -14.140   4.417  0.00  0.00    -0.166 F 
ENDBRANCH  17  22
ENDBRANCH  11  15
BRANCH   1  27
ATOM     26  N   UNL     1       2.246  -3.608   3.199  0.00  0.00    -0.313 N 
ATOM     27  C   UNL     1       1.387  -4.454   3.802  0.00  0.00    +0.218 C 
ATOM     28  O   UNL     1       0.444  -4.017   4.426  0.00  0.00    -0.275 OA
ATOM     29  H   UNL     1       3.001  -3.958   2.700  0.00  0.00    +0.149 HD
BRANCH  26  30
ATOM     30  C   UNL     1       2.040  -2.161   3.297  0.00  0.00    +0.137 C 
BRANCH  30  36
ATOM     31  C   UNL     1       3.849   2.227   1.993  0.00  0.00    +0.105 C 
ATOM     32  N   UNL     1       4.043   0.771   1.963  0.00  0.00    -0.301 NA
ATOM     33  C   UNL     1       5.332   0.399   2.565  0.00  0.00    +0.112 C 
ATOM     34  C   UNL     1       5.520  -1.117   2.459  0.00  0.00    +0.175 C 
ATOM     35  O   UNL     1       4.418  -1.774   3.092  0.00  0.00    -0.372 OA
ATOM     36  C   UNL     1       3.147  -1.435   2.531  0.00  0.00    +0.149 C 
ATOM     37  C   UNL     1       2.935   0.078   2.637  0.00  0.00    +0.117 C 
ENDBRANCH  30  36
ENDBRANCH  26  30
ENDBRANCH   1  27
TORSDOF 5
