REMARK  Name = ZINC35736617
REMARK  6 active torsions:
REMARK  status: ('A' for Active; 'I' for Inactive)
REMARK    1  A    between atoms: C_1  and  C_2
REMARK    2  A    between atoms: C_2  and  C_4
REMARK    3  A    between atoms: C_2  and  N_9
REMARK    4  A    between atoms: N_9  and  S_10
REMARK    5  A    between atoms: S_10  and  C_13
REMARK    6  A    between atoms: C_16  and  N_20
REMARK                            x       y       z     vdW  Elec       q    Type
REMARK                         _______ _______ _______ _____ _____    ______ ____
ROOT
ATOM      1  S   UNL     1       2.322  -0.861   1.097  0.00  0.00    +0.062 S 
ATOM      2  O   UNL     1       2.719  -1.271   2.398  0.00  0.00    -0.153 OA
ATOM      3  O   UNL     1       2.483  -1.690  -0.045  0.00  0.00    -0.153 OA
ENDROOT
BRANCH   1   4
ATOM      4  C   UNL     1       3.183   0.638   0.757  0.00  0.00    +0.142 A 
ATOM      5  C   UNL     1       3.403   1.026  -0.553  0.00  0.00    +0.070 A 
ATOM      6  C   UNL     1       4.078   2.201  -0.823  0.00  0.00    +0.044 A 
ATOM      7  C   UNL     1       4.537   2.993   0.222  0.00  0.00    +0.027 A 
ATOM      8  C   UNL     1       4.315   2.601   1.536  0.00  0.00    +0.044 A 
ATOM      9  C   UNL     1       3.635   1.427   1.800  0.00  0.00    +0.070 A 
ATOM     10 CL   UNL     1       3.351   0.940   3.442  0.00  0.00    -0.081 Cl
ATOM     11 CL   UNL     1       2.829   0.036  -1.859  0.00  0.00    -0.081 Cl
BRANCH   7  12
ATOM     12  N   UNL     1       5.221   4.181  -0.048  0.00  0.00    -0.358 N 
ATOM     13  H   UNL     1       5.375   4.454  -0.966  0.00  0.00    +0.142 HD
ATOM     14  H   UNL     1       5.540   4.733   0.682  0.00  0.00    +0.142 HD
ENDBRANCH   7  12
ENDBRANCH   1   4
BRANCH   1  15
ATOM     15  N   UNL     1       0.711  -0.489   1.189  0.00  0.00    -0.182 NA
ATOM     16  H   UNL     1       0.236  -0.593   2.029  0.00  0.00    +0.149 HD
BRANCH  15  18
ATOM     17  C   UNL     1      -0.019   1.526   0.010  0.00  0.00    +0.031 C 
ATOM     18  C   UNL     1       0.002  -0.004   0.002  0.00  0.00    +0.110 C 
BRANCH  18  19
ATOM     19  C   UNL     1      -1.412  -0.526   0.013  0.00  0.00    +0.008 A 
ATOM     20  C   UNL     1      -2.157  -0.992  -1.019  0.00  0.00    +0.013 A 
ATOM     21  C   UNL     1      -3.447  -1.425  -0.772  0.00  0.00    +0.008 A 
ATOM     22  C   UNL     1      -3.927  -1.370   0.494  0.00  0.00    +0.045 A 
ATOM     23  S   UNL     1      -2.537  -0.697   1.389  0.00  0.00    -0.100 S 
ENDBRANCH  18  19
ENDBRANCH  15  18
ENDBRANCH   1  15
TORSDOF 5
