REMARK  Name = ZINC04942608
REMARK  10 active torsions:
REMARK  status: ('A' for Active; 'I' for Inactive)
REMARK    1  A    between atoms: C_1  and  C_2
REMARK    2  A    between atoms: C_2  and  C_3
REMARK    3  A    between atoms: C_2  and  C_4
REMARK    4  A    between atoms: C_14  and  C_30
REMARK    5  A    between atoms: C_18  and  C_19
REMARK    6  A    between atoms: C_18  and  C_20
REMARK    7  A    between atoms: C_20  and  N_65
REMARK    8  A    between atoms: C_21  and  C_22
REMARK    9  A    between atoms: C_21  and  N_65
REMARK   10  A    between atoms: C_25  and  C_28
REMARK                            x       y       z     vdW  Elec       q    Type
REMARK                         _______ _______ _______ _____ _____    ______ ____
ROOT
ATOM      1  C   UNL     1       4.049  -0.049   2.853  0.00  0.00    -0.045 A 
ATOM      2  C   UNL     1       4.541   1.117   2.297  0.00  0.00    +0.004 A 
ATOM      3  C   UNL     1       3.821   1.764   1.315  0.00  0.00    +0.005 A 
ATOM      4  C   UNL     1       2.606   1.252   0.880  0.00  0.00    -0.038 A 
ATOM      5  C   UNL     1       2.109   0.096   1.438  0.00  0.00    -0.043 A 
ATOM      6  C   UNL     1       2.840  -0.555   2.425  0.00  0.00    +0.007 A 
ATOM      7  C   UNL     1       0.793  -0.510   1.029  0.00  0.00    +0.036 C 
ATOM      8  C   UNL     1       0.318   0.070  -0.303  0.00  0.00    +0.009 C 
ATOM      9  C   UNL     1       0.408   1.595  -0.220  0.00  0.00    +0.004 C 
ATOM     10  C   UNL     1       1.880   1.997  -0.215  0.00  0.00    -0.004 C 
ATOM     11  C   UNL     1       2.526   1.635  -1.555  0.00  0.00    +0.011 C 
ATOM     12  C   UNL     1       1.782   2.329  -2.696  0.00  0.00    +0.001 C 
ATOM     13  C   UNL     1       0.326   1.857  -2.708  0.00  0.00    +0.005 C 
ATOM     14  C   UNL     1      -0.334   2.242  -1.383  0.00  0.00    -0.044 C 
ATOM     15  C   UNL     1      -0.301   3.763  -1.222  0.00  0.00    +0.009 C 
ATOM     16  C   UNL     1       1.998   3.504   0.026  0.00  0.00    +0.016 C 
ENDROOT
BRANCH   1  18
ATOM     17  C   UNL     1       6.199  -1.169   3.370  0.00  0.00    +0.012 C 
ATOM     18  C   UNL     1       4.832  -0.765   3.923  0.00  0.00    +0.013 C 
ATOM     19  C   UNL     1       5.021   0.164   5.124  0.00  0.00    +0.012 C 
ENDBRANCH   1  18
BRANCH  14  20
ATOM     20  C   UNL     1      -1.788   1.766  -1.383  0.00  0.00    -0.075 C 
BRANCH  20  21
ATOM     21  N   UNL     1      -2.475   2.313  -2.569  0.00  0.00    +0.382 N 
ATOM     22  H   UNL     1      -1.944   2.064  -3.412  0.00  0.00    -0.085 HD
ATOM     23  H   UNL     1      -2.529   3.335  -2.488  0.00  0.00    -0.085 HD
BRANCH  21  24
ATOM     24  C   UNL     1      -3.839   1.760  -2.671  0.00  0.00    -0.047 C 
BRANCH  24  25
ATOM     25  C   UNL     1      -4.515   2.335  -3.889  0.00  0.00    -0.064 A 
ATOM     26  C   UNL     1      -5.247   3.504  -3.783  0.00  0.00    +0.002 A 
ATOM     27  C   UNL     1      -5.864   4.039  -4.895  0.00  0.00    +0.015 A 
ATOM     28  C   UNL     1      -5.758   3.391  -6.127  0.00  0.00    +0.063 A 
ATOM     29  C   UNL     1      -5.022   2.208  -6.226  0.00  0.00    +0.015 A 
ATOM     30  C   UNL     1      -4.405   1.688  -5.107  0.00  0.00    +0.002 A 
BRANCH  28  31
ATOM     31  C   UNL     1      -6.420   3.954  -7.321  0.00  0.00    +0.387 C 
ATOM     32  O   UNL     1      -6.326   3.389  -8.392  0.00  0.00    -0.241 OA
ATOM     33  O   UNL     1      -7.130   5.096  -7.222  0.00  0.00    -0.241 OA
ENDBRANCH  28  31
ENDBRANCH  24  25
ENDBRANCH  21  24
ENDBRANCH  20  21
ENDBRANCH  14  20
TORSDOF 6
