REMARK  Name = ZINC22735108
REMARK  10 active torsions:
REMARK  status: ('A' for Active; 'I' for Inactive)
REMARK    1  A    between atoms: C_1  and  N_2
REMARK    2  A    between atoms: N_5  and  C_8
REMARK    3  A    between atoms: C_8  and  C_10
REMARK    4  A    between atoms: C_8  and  C_25
REMARK    5  A    between atoms: C_10  and  N_11
REMARK    6  A    between atoms: C_12  and  C_14
REMARK    7  A    between atoms: N_16  and  C_17
REMARK    8  A    between atoms: C_22  and  S_23
REMARK    9  A    between atoms: S_23  and  C_24
REMARK   10  A    between atoms: N_34  and  C_35
REMARK                            x       y       z     vdW  Elec       q    Type
REMARK                         _______ _______ _______ _____ _____    ______ ____
ROOT
ATOM      1  C   UNL     1       2.921  -1.440   4.822  0.00  0.00    +0.104 C 
ENDROOT
BRANCH   1   2
ATOM      2  C   UNL     1       2.267  -0.537   3.808  0.00  0.00    -0.028 A 
ATOM      3  C   UNL     1       1.098  -0.931   3.182  0.00  0.00    +0.007 A 
ATOM      4  C   UNL     1       0.503  -0.105   2.253  0.00  0.00    +0.024 A 
ATOM      5  C   UNL     1       1.072   1.131   1.939  0.00  0.00    +0.033 A 
ATOM      6  C   UNL     1       2.238   1.522   2.572  0.00  0.00    -0.026 A 
ATOM      7  C   UNL     1       2.833   0.684   3.503  0.00  0.00    +0.010 A 
ATOM      8  C   UNL     1       2.893   2.851   2.291  0.00  0.00    +0.038 C 
ATOM      9  C   UNL     1       2.326   3.441   0.997  0.00  0.00    +0.024 C 
ATOM     10  C   UNL     1       0.797   3.331   1.059  0.00  0.00    +0.105 C 
ATOM     11  N   UNL     1       0.425   1.917   0.986  0.00  0.00    -0.333 N 
ATOM     12  C   UNL     1      -1.032   1.751   1.068  0.00  0.00    +0.129 C 
ENDBRANCH   1   2
BRANCH   1  17
ATOM     13  C   UNL     1       4.148  -5.754   1.388  0.00  0.00    -0.096 C 
ATOM     14  N   UNL     1       3.611  -4.566   2.065  0.00  0.00    +0.379 N 
ATOM     15  C   UNL     1       3.048  -4.916   3.376  0.00  0.00    -0.064 C 
ATOM     16  C   UNL     1       2.429  -3.669   4.013  0.00  0.00    +0.066 C 
ATOM     17  N   UNL     1       3.458  -2.628   4.145  0.00  0.00    -0.297 NA
ATOM     18  C   UNL     1       4.021  -2.278   2.834  0.00  0.00    +0.066 C 
ATOM     19  C   UNL     1       4.640  -3.525   2.198  0.00  0.00    -0.064 C 
ATOM     20  H   UNL     1       2.798  -4.162   1.443  0.00  0.00    -0.082 HD
ENDBRANCH   1  17
BRANCH   1  21
ATOM     21  C   UNL     1       1.887  -1.870   5.864  0.00  0.00    +0.128 C 
BRANCH  21  22
ATOM     22  N   UNL     1       2.533  -2.711   6.875  0.00  0.00    -0.306 N 
ATOM     23  C   UNL     1       1.795  -3.287   7.844  0.00  0.00    +0.299 C 
ATOM     24  O   UNL     1       0.595  -3.109   7.880  0.00  0.00    -0.265 OA
ATOM     25  H   UNL     1       3.621  -2.873   6.842  0.00  0.00    +0.149 HD
BRANCH  23  26
ATOM     26  C   UNL     1       2.454  -4.144   8.874  0.00  0.00    +0.303 C 
ATOM     27  O   UNL     1       3.654  -4.322   8.839  0.00  0.00    -0.265 OA
ATOM     28  N   UNL     1       1.715  -4.721   9.844  0.00  0.00    -0.277 N 
ATOM     29  H   UNL     1       0.619  -4.634   9.825  0.00  0.00    +0.155 HD
BRANCH  28  30
ATOM     30  C   UNL     1       2.343  -5.429  10.873  0.00  0.00    +0.047 A 
ATOM     31  C   UNL     1       3.685  -5.209  11.151  0.00  0.00    +0.024 A 
ATOM     32  C   UNL     1       4.301  -5.906  12.173  0.00  0.00    +0.002 A 
ATOM     33  C   UNL     1       3.589  -6.832  12.914  0.00  0.00    +0.001 A 
ATOM     34  C   UNL     1       2.254  -7.062  12.641  0.00  0.00    +0.016 A 
ATOM     35  C   UNL     1       1.624  -6.363  11.621  0.00  0.00    +0.029 A 
BRANCH  35  36
ATOM     36  S   UNL     1      -0.078  -6.654  11.270  0.00  0.00    -0.127 S 
ATOM     37  C   UNL     1      -0.565  -7.919  12.475  0.00  0.00    +0.090 C 
ENDBRANCH  35  36
ENDBRANCH  28  30
ENDBRANCH  23  26
ENDBRANCH  21  22
ENDBRANCH   1  21
TORSDOF 7
