REMARK  Name = ZINC03601637
REMARK  3 active torsions:
REMARK  status: ('A' for Active; 'I' for Inactive)
REMARK    1  A    between atoms: C_12  and  C_14
REMARK    2  A    between atoms: C_14  and  O_15
REMARK    3  A    between atoms: O_15  and  C_16
REMARK                            x       y       z     vdW  Elec       q    Type
REMARK                         _______ _______ _______ _____ _____    ______ ____
ROOT
ATOM      1  C   UNL     1      -0.017   1.378   0.010  0.00  0.00    +0.002 A 
ATOM      2  C   UNL     1       1.167   2.094   0.002  0.00  0.00    +0.002 A 
ATOM      3  C   UNL     1       2.381   1.430  -0.011  0.00  0.00    +0.025 A 
ATOM      4  C   UNL     1       2.406   0.047  -0.018  0.00  0.00    +0.058 A 
ATOM      5  C   UNL     1       1.213  -0.677  -0.014  0.00  0.00    +0.055 A 
ATOM      6  C   UNL     1       0.002  -0.004   0.002  0.00  0.00    +0.025 A 
ATOM      7  N   UNL     1       1.254  -2.076  -0.032  0.00  0.00    -0.283 N 
ATOM      8  C   UNL     1       2.399  -2.734   0.232  0.00  0.00    +0.235 C 
ATOM      9  O   UNL     1       2.422  -3.945   0.168  0.00  0.00    -0.274 OA
ATOM     10  C   UNL     1       3.652  -1.984   0.605  0.00  0.00    +0.209 C 
ATOM     11  N   UNL     1       3.622  -0.656  -0.025  0.00  0.00    -0.258 N 
ATOM     12  C   UNL     1       4.725  -0.130  -0.593  0.00  0.00    +0.258 C 
ATOM     13  O   UNL     1       4.678   0.967  -1.108  0.00  0.00    -0.271 OA
ATOM     14  H   UNL     1       0.450  -2.577  -0.237  0.00  0.00    +0.155 HD
ENDROOT
BRANCH  12  15
ATOM     15  C   UNL     1       6.018  -0.905  -0.587  0.00  0.00    +0.325 C 
BRANCH  15  16
ATOM     16  O   UNL     1       7.033  -0.144  -1.244  0.00  0.00    -0.483 OA
BRANCH  16  17
ATOM     17  C   UNL     1       8.269  -0.704  -1.325  0.00  0.00    +0.123 A 
ATOM     18  C   UNL     1       8.497  -1.963  -0.790  0.00  0.00    +0.047 A 
ATOM     19  C   UNL     1       9.753  -2.532  -0.874  0.00  0.00    +0.025 A 
ATOM     20  C   UNL     1      10.784  -1.846  -1.492  0.00  0.00    +0.059 A 
ATOM     21  C   UNL     1      10.559  -0.589  -2.027  0.00  0.00    +0.063 A 
ATOM     22  C   UNL     1       9.301  -0.019  -1.949  0.00  0.00    +0.067 A 
ATOM     23 CL   UNL     1      11.854   0.270  -2.801  0.00  0.00    -0.082 Cl
ATOM     24 CL   UNL     1      12.362  -2.562  -1.595  0.00  0.00    -0.082 Cl
ENDBRANCH  16  17
ENDBRANCH  15  16
ENDBRANCH  12  15
TORSDOF 3
