REMARK  Name = ZINC36296901
REMARK  5 active torsions:
REMARK  status: ('A' for Active; 'I' for Inactive)
REMARK    1  A    between atoms: C_3  and  C_6
REMARK    2  A    between atoms: C_7  and  C_23
REMARK    3  A    between atoms: C_9  and  C_14
REMARK    4  A    between atoms: C_23  and  C_24
REMARK    5  A    between atoms: C_24  and  N_25
REMARK                            x       y       z     vdW  Elec       q    Type
REMARK                         _______ _______ _______ _____ _____    ______ ____
ROOT
ATOM      1  C   UNL     1       3.575   0.619  -0.029  0.00  0.00    +0.128 A 
ATOM      2  C   UNL     1       4.357  -0.306   0.584  0.00  0.00    +0.053 A 
ATOM      3  N   UNL     1       5.682   0.025   0.322  0.00  0.00    -0.290 N 
ATOM      4  C   UNL     1       6.942  -0.463   0.622  0.00  0.00    +0.063 A 
ATOM      5  C   UNL     1       8.041   0.165   0.163  0.00  0.00    +0.075 A 
ATOM      6  S   UNL     1       7.334   1.526  -0.752  0.00  0.00    -0.057 S 
ATOM      7  C   UNL     1       5.621   1.154  -0.451  0.00  0.00    +0.179 A 
ATOM      8  N   UNL     1       4.383   1.497  -0.660  0.00  0.00    -0.218 NA
ENDROOT
BRANCH   4   9
ATOM      9  C   UNL     1       7.082  -1.679   1.452  0.00  0.00    +0.003 A 
ATOM     10  C   UNL     1       6.622  -2.908   0.976  0.00  0.00    +0.014 A 
ATOM     11  C   UNL     1       6.753  -4.041   1.752  0.00  0.00    +0.050 A 
ATOM     12  C   UNL     1       7.342  -3.965   3.005  0.00  0.00    +0.166 A 
ATOM     13  C   UNL     1       7.804  -2.741   3.486  0.00  0.00    +0.167 A 
ATOM     14  C   UNL     1       7.680  -1.602   2.710  0.00  0.00    +0.059 A 
ATOM     15  O   UNL     1       8.335  -2.933   4.729  0.00  0.00    -0.453 OA
ATOM     16  C   UNL     1       7.826  -4.205   5.172  0.00  0.00    +0.466 C 
ATOM     17  O   UNL     1       7.585  -4.923   3.947  0.00  0.00    -0.453 OA
ENDBRANCH   4   9
BRANCH   1  20
ATOM     18  C   UNL     1      -0.016   1.343   0.009  0.00  0.00    +0.042 A 
ATOM     19  C   UNL     1       1.326   1.774  -0.001  0.00  0.00    +0.051 A 
ATOM     20  C   UNL     1       2.097   0.654  -0.015  0.00  0.00    +0.155 A 
ATOM     21  O   UNL     1       1.281  -0.417  -0.012  0.00  0.00    -0.461 OA
ATOM     22  C   UNL     1       0.002  -0.004   0.002  0.00  0.00    +0.196 A 
ENDBRANCH   1  20
BRANCH   2  23
ATOM     23  C   UNL     1       3.876  -1.478   1.400  0.00  0.00    +0.036 C 
BRANCH  23  24
ATOM     24  C   UNL     1       3.745  -1.059   2.866  0.00  0.00    -0.080 C 
BRANCH  24  25
ATOM     25  N   UNL     1       3.277  -2.201   3.662  0.00  0.00    +0.378 N 
ATOM     26  H   UNL     1       3.191  -1.925   4.628  0.00  0.00    -0.090 HD
ATOM     27  H   UNL     1       2.379  -2.506   3.317  0.00  0.00    -0.090 HD
ATOM     28  H   UNL     1       3.940  -2.958   3.586  0.00  0.00    -0.090 HD
ENDBRANCH  24  25
ENDBRANCH  23  24
ENDBRANCH   2  23
TORSDOF 5
