REMARK  Name = ZINC20211516
REMARK  4 active torsions:
REMARK  status: ('A' for Active; 'I' for Inactive)
REMARK    1  A    between atoms: C_8  and  N_12
REMARK    2  A    between atoms: N_12  and  C_13
REMARK    3  A    between atoms: C_13  and  C_14
REMARK    4  A    between atoms: C_19  and  C_20
REMARK                            x       y       z     vdW  Elec       q    Type
REMARK                         _______ _______ _______ _____ _____    ______ ____
ROOT
ATOM      1  C   UNL     1       5.721   3.714   0.690  0.00  0.00    +0.120 C 
ENDROOT
BRANCH   1   2
ATOM      2  C   UNL     1       7.155   4.108   0.450  0.00  0.00    +0.011 A 
ATOM      3  C   UNL     1       7.889   4.944   1.216  0.00  0.00    +0.110 A 
ATOM      4  N   UNL     1       9.120   5.038   0.669  0.00  0.00    -0.284 N 
ATOM      5  H   UNL     1       9.884   5.675   1.139  0.00  0.00    +0.188 HD
ATOM      6  N   UNL     1       9.151   4.232  -0.476  0.00  0.00    -0.174 NA
ATOM      7  C   UNL     1       7.971   3.664  -0.609  0.00  0.00    +0.097 A 
BRANCH   7   8
ATOM      8  C   UNL     1       7.570   2.726  -1.687  0.00  0.00    +0.002 A 
ATOM      9  C   UNL     1       6.830   1.586  -1.381  0.00  0.00    +0.011 A 
ATOM     10  C   UNL     1       6.456   0.719  -2.387  0.00  0.00    +0.020 A 
ATOM     11  C   UNL     1       6.822   0.976  -3.697  0.00  0.00    +0.041 A 
ATOM     12  C   UNL     1       7.561   2.105  -4.005  0.00  0.00    +0.020 A 
ATOM     13  C   UNL     1       7.936   2.981  -3.007  0.00  0.00    +0.011 A 
ATOM     14 CL   UNL     1       6.353  -0.122  -4.958  0.00  0.00    -0.084 Cl
ENDBRANCH   7   8
ENDBRANCH   1   2
BRANCH   1  15
ATOM     15  N   UNL     1       4.856   4.401  -0.279  0.00  0.00    -0.306 NA
ATOM     16  H   UNL     1       5.131   4.073  -1.292  0.00  0.00    +0.123 HD
BRANCH  15  24
ATOM     17  C   UNL     1      -1.201   5.347  -0.763  0.00  0.00    +0.000 A 
ATOM     18  C   UNL     1      -1.545   4.011  -0.671  0.00  0.00    +0.004 A 
ATOM     19  C   UNL     1      -0.561   3.053  -0.543  0.00  0.00    +0.046 A 
ATOM     20  C   UNL     1       0.780   3.425  -0.518  0.00  0.00    +0.124 A 
ATOM     21  C   UNL     1       1.122   4.762  -0.619  0.00  0.00    -0.004 A 
ATOM     22  C   UNL     1       0.129   5.720  -0.740  0.00  0.00    +0.007 A 
ATOM     23  C   UNL     1       2.562   5.208  -0.603  0.00  0.00    +0.061 C 
ATOM     24  C   UNL     1       3.441   4.093  -0.033  0.00  0.00    +0.096 C 
ATOM     25  C   UNL     1       3.068   2.780  -0.734  0.00  0.00    +0.248 C 
ATOM     26  O   UNL     1       1.720   2.453  -0.392  0.00  0.00    -0.490 OA
ENDBRANCH  15  24
ENDBRANCH   1  15
TORSDOF 4
