REMARK  Name = ZINC50362251
REMARK  8 active torsions:
REMARK  status: ('A' for Active; 'I' for Inactive)
REMARK    1  A    between atoms: C_1  and  C_2
REMARK    2  A    between atoms: C_2  and  C_4
REMARK    3  A    between atoms: C_2  and  N_9
REMARK    4  A    between atoms: N_9  and  C_10
REMARK    5  A    between atoms: N_9  and  C_11
REMARK    6  A    between atoms: C_11  and  C_13
REMARK    7  A    between atoms: C_11  and  C_15
REMARK    8  A    between atoms: C_13  and  N_14
REMARK                            x       y       z     vdW  Elec       q    Type
REMARK                         _______ _______ _______ _____ _____    ______ ____
ROOT
ATOM      1  C   UNL     1      -0.015  -2.489  -0.655  0.00  0.00    -0.018 C 
ENDROOT
BRANCH   1   2
ATOM      2  C   UNL     1      -1.498  -2.749  -0.589  0.00  0.00    +0.092 A 
ATOM      3  C   UNL     1      -2.141  -3.784  -1.158  0.00  0.00    +0.059 A 
ATOM      4  C   UNL     1      -3.512  -3.637  -0.845  0.00  0.00    +0.070 A 
ATOM      5  C   UNL     1      -3.625  -2.518  -0.104  0.00  0.00    +0.184 A 
ATOM      6  O   UNL     1      -2.400  -1.988   0.052  0.00  0.00    -0.454 OA
ATOM      7 BR   UNL     1      -5.232  -1.817   0.604  0.00  0.00    -0.007 Br
ATOM      8 BR   UNL     1      -4.918  -4.789  -1.368  0.00  0.00    -0.046 Br
ENDBRANCH   1   2
BRANCH   1   9
ATOM      9  N   UNL     1       0.235  -1.273  -1.440  0.00  0.00    +0.388 N 
ATOM     10  C   UNL     1      -0.056  -1.535  -2.856  0.00  0.00    -0.094 C 
ATOM     11  H   UNL     1       1.202  -1.001  -1.340  0.00  0.00    -0.080 HD
BRANCH   9  13
ATOM     12  C   UNL     1      -0.542   1.001  -1.910  0.00  0.00    -0.008 C 
ATOM     13  C   UNL     1      -0.631  -0.190  -0.955  0.00  0.00    -0.033 C 
BRANCH  13  14
ATOM     14  C   UNL     1      -0.184   0.233   0.420  0.00  0.00    -0.024 A 
ATOM     15  C   UNL     1      -0.913   0.350   1.557  0.00  0.00    +0.009 A 
ATOM     16  C   UNL     1      -0.284   0.760   2.717  0.00  0.00    +0.008 A 
ATOM     17  C   UNL     1       1.043   1.034   2.684  0.00  0.00    +0.045 A 
ATOM     18  S   UNL     1       1.446   0.705   0.976  0.00  0.00    -0.103 S 
ENDBRANCH  13  14
ENDBRANCH   9  13
ENDBRANCH   1   9
BRANCH   1  19
ATOM     19  C   UNL     1       0.534  -2.304   0.761  0.00  0.00    -0.094 C 
BRANCH  19  20
ATOM     20  N   UNL     1       1.964  -1.973   0.692  0.00  0.00    +0.377 N 
ATOM     21  H   UNL     1       2.090  -1.139   0.139  0.00  0.00    -0.090 HD
ATOM     22  H   UNL     1       2.317  -1.816   1.624  0.00  0.00    -0.090 HD
ATOM     23  H   UNL     1       2.466  -2.738   0.267  0.00  0.00    -0.090 HD
ENDBRANCH  19  20
ENDBRANCH   1  19
TORSDOF 6
