REMARK  Name = ZINC09433304
REMARK  8 active torsions:
REMARK  status: ('A' for Active; 'I' for Inactive)
REMARK    1  A    between atoms: C_1  and  C_2
REMARK    2  A    between atoms: C_2  and  C_3
REMARK    3  A    between atoms: C_2  and  C_4
REMARK    4  A    between atoms: C_4  and  N_5
REMARK    5  A    between atoms: C_6  and  C_33
REMARK    6  A    between atoms: C_8  and  C_18
REMARK    7  A    between atoms: C_25  and  C_26
REMARK    8  A    between atoms: C_25  and  N_68
REMARK                            x       y       z     vdW  Elec       q    Type
REMARK                         _______ _______ _______ _____ _____    ______ ____
ROOT
ATOM      1  N   UNL     1       4.221   2.038   1.571  0.00  0.00    -0.289 N 
ATOM      2  C   UNL     1       3.294   1.486   0.586  0.00  0.00    +0.129 C 
ATOM      3  C   UNL     1       3.833   1.666  -0.831  0.00  0.00    +0.131 C 
ATOM      4  C   UNL     1       4.241   3.099  -1.052  0.00  0.00    -0.021 A 
ATOM      5  C   UNL     1       4.121   3.682  -2.295  0.00  0.00    +0.005 A 
ATOM      6  C   UNL     1       4.539   4.987  -2.490  0.00  0.00    +0.000 A 
ATOM      7  C   UNL     1       5.081   5.713  -1.444  0.00  0.00    +0.001 A 
ATOM      8  C   UNL     1       5.199   5.142  -0.192  0.00  0.00    +0.013 A 
ATOM      9  C   UNL     1       4.764   3.835   0.014  0.00  0.00    +0.041 A 
ATOM     10  C   UNL     1       4.868   3.196   1.343  0.00  0.00    +0.247 C 
ATOM     11  O   UNL     1       5.532   3.712   2.221  0.00  0.00    -0.270 OA
ENDROOT
BRANCH   3  12
ATOM     12  C   UNL     1       5.028   0.769  -1.029  0.00  0.00    +0.223 C 
ATOM     13  O   UNL     1       6.149   1.220  -0.921  0.00  0.00    -0.275 OA
ATOM     14  N   UNL     1       4.852  -0.533  -1.325  0.00  0.00    -0.318 N 
ATOM     15  C   UNL     1       3.506  -1.075  -1.567  0.00  0.00    +0.104 C 
ATOM     16  C   UNL     1       3.524  -1.840  -2.896  0.00  0.00    +0.000 C 
ATOM     17  C   UNL     1       4.671  -2.853  -2.874  0.00  0.00    -0.075 C 
ATOM     18  C   UNL     1       6.000  -1.445  -1.421  0.00  0.00    +0.033 C 
ATOM     19  N   UNL     1       5.951  -2.128  -2.728  0.00  0.00    +0.393 N 
ATOM     20  H   UNL     1       6.022  -1.425  -3.474  0.00  0.00    -0.079 HD
BRANCH  19  21
ATOM     21  C   UNL     1       7.082  -3.071  -2.849  0.00  0.00    -0.039 C 
BRANCH  21  22
ATOM     22  C   UNL     1       7.101  -4.027  -1.684  0.00  0.00    -0.046 A 
ATOM     23  C   UNL     1       7.883  -3.752  -0.578  0.00  0.00    +0.003 A 
ATOM     24  C   UNL     1       7.902  -4.628   0.491  0.00  0.00    +0.000 A 
ATOM     25  C   UNL     1       7.138  -5.780   0.454  0.00  0.00    +0.001 A 
ATOM     26  C   UNL     1       6.356  -6.056  -0.651  0.00  0.00    +0.020 A 
ATOM     27  C   UNL     1       6.333  -5.177  -1.719  0.00  0.00    +0.042 A 
ATOM     28 CL   UNL     1       5.345  -5.519  -3.105  0.00  0.00    -0.083 Cl
ENDBRANCH  21  22
ENDBRANCH  19  21
ENDBRANCH   3  12
BRANCH   2  29
ATOM     29  C   UNL     1       1.968   2.192   0.704  0.00  0.00    +0.011 A 
ATOM     30  C   UNL     1       0.716   1.676   0.625  0.00  0.00    +0.013 A 
ATOM     31  C   UNL     1      -0.367   2.524   0.760  0.00  0.00    +0.008 A 
ATOM     32  C   UNL     1      -0.147   3.843   0.980  0.00  0.00    +0.045 A 
ATOM     33  S   UNL     1       1.637   3.923   0.987  0.00  0.00    -0.100 S 
ENDBRANCH   2  29
BRANCH   1  34
ATOM     34  C   UNL     1       4.450   1.319   2.827  0.00  0.00    +0.111 C 
BRANCH  34  36
ATOM     35  C   UNL     1       6.903   1.125   2.392  0.00  0.00    +0.009 C 
ATOM     36  C   UNL     1       5.614   0.342   2.651  0.00  0.00    +0.000 C 
ATOM     37  C   UNL     1       5.773  -0.496   3.921  0.00  0.00    +0.009 C 
ENDBRANCH  34  36
ENDBRANCH   1  34
TORSDOF 6
