REMARK  Name = ZINC66989370
REMARK  9 active torsions:
REMARK  status: ('A' for Active; 'I' for Inactive)
REMARK    1  A    between atoms: C_1  and  N_2
REMARK    2  A    between atoms: N_2  and  C_3
REMARK    3  A    between atoms: N_2  and  S_4
REMARK    4  A    between atoms: S_4  and  C_7
REMARK    5  A    between atoms: C_10  and  C_12
REMARK    6  A    between atoms: C_12  and  N_13
REMARK    7  A    between atoms: N_13  and  C_14
REMARK    8  A    between atoms: C_14  and  C_15
REMARK    9  A    between atoms: C_18  and  C_20
REMARK                            x       y       z     vdW  Elec       q    Type
REMARK                         _______ _______ _______ _____ _____    ______ ____
ROOT
ATOM      1  N   UNL     1       5.578  -1.315  -4.827  0.00  0.00    +0.385 N 
ATOM      2  H   UNL     1       5.418  -2.310  -4.776  0.00  0.00    -0.085 HD
ATOM      3  H   UNL     1       4.855  -0.886  -5.386  0.00  0.00    -0.085 HD
ENDROOT
BRANCH   1   4
ATOM      4  C   UNL     1       5.553  -0.745  -3.474  0.00  0.00    -0.039 C 
BRANCH   4   8
ATOM      5  C   UNL     1       1.682  -1.059  -1.905  0.00  0.00    +0.143 A 
ATOM      6  C   UNL     1       2.513  -2.091  -1.615  0.00  0.00    +0.036 A 
ATOM      7  C   UNL     1       3.808  -2.063  -2.096  0.00  0.00    +0.011 A 
ATOM      8  C   UNL     1       4.210  -1.006  -2.843  0.00  0.00    -0.025 A 
ATOM      9  S   UNL     1       2.732  -0.005  -2.891  0.00  0.00    -0.075 S 
BRANCH   5  10
ATOM     10  S   UNL     1      -0.000  -0.824  -1.437  0.00  0.00    +0.067 S 
ATOM     11  O   UNL     1      -0.531  -2.115  -1.167  0.00  0.00    -0.152 OA
ATOM     12  O   UNL     1      -0.572   0.049  -2.401  0.00  0.00    -0.152 OA
BRANCH  10  14
ATOM     13  C   UNL     1      -0.018   1.461   0.010  0.00  0.00    +0.131 C 
ATOM     14  N   UNL     1       0.002  -0.004   0.002  0.00  0.00    -0.182 NA
ATOM     15  C   UNL     1       0.024  -0.743   1.267  0.00  0.00    +0.131 C 
ENDBRANCH  10  14
ENDBRANCH   5  10
ENDBRANCH   4   8
ENDBRANCH   1   4
BRANCH   1  16
ATOM     16  C   UNL     1       6.888  -1.061  -5.442  0.00  0.00    -0.037 C 
BRANCH  16  17
ATOM     17  C   UNL     1       6.913  -1.646  -6.831  0.00  0.00    -0.007 A 
ATOM     18  C   UNL     1       6.575  -1.077  -8.018  0.00  0.00    +0.120 A 
ATOM     19  N   UNL     1       6.672  -1.772  -9.127  0.00  0.00    -0.247 NA
ATOM     20  C   UNL     1       7.096  -3.029  -9.117  0.00  0.00    +0.108 A 
ATOM     21  S   UNL     1       7.402  -3.278  -7.374  0.00  0.00    -0.074 S 
BRANCH  20  22
ATOM     22  C   UNL     1       7.272  -3.968 -10.245  0.00  0.00    +0.007 A 
ATOM     23  C   UNL     1       7.731  -5.266 -10.011  0.00  0.00    +0.010 A 
ATOM     24  C   UNL     1       7.893  -6.137 -11.068  0.00  0.00    +0.001 A 
ATOM     25  C   UNL     1       7.604  -5.728 -12.358  0.00  0.00    +0.000 A 
ATOM     26  C   UNL     1       7.149  -4.443 -12.596  0.00  0.00    +0.001 A 
ATOM     27  C   UNL     1       6.977  -3.563 -11.548  0.00  0.00    +0.010 A 
ENDBRANCH  20  22
ENDBRANCH  16  17
ENDBRANCH   1  16
TORSDOF 7
