REMARK  Name = ZINC02054765
REMARK  5 active torsions:
REMARK  status: ('A' for Active; 'I' for Inactive)
REMARK    1  A    between atoms: C_1  and  C_2
REMARK    2  A    between atoms: C_2  and  C_31
REMARK    3  A    between atoms: C_4  and  N_9
REMARK    4  A    between atoms: C_15  and  S_16
REMARK    5  A    between atoms: S_16  and  C_17
REMARK                            x       y       z     vdW  Elec       q    Type
REMARK                         _______ _______ _______ _____ _____    ______ ____
ROOT
ATOM      1  N   UNL     1      -3.106   3.297  -4.153  0.00  0.00    -0.284 N 
ATOM      2  C   UNL     1      -2.377   2.773  -3.143  0.00  0.00    +0.259 A 
ATOM      3  O   UNL     1      -2.546   1.619  -2.787  0.00  0.00    -0.267 OA
ATOM      4  C   UNL     1      -1.424   3.584  -2.513  0.00  0.00    +0.050 A 
ATOM      5  C   UNL     1      -1.252   4.885  -2.960  0.00  0.00    +0.083 A 
ATOM      6  N   UNL     1      -2.029   5.361  -3.938  0.00  0.00    -0.223 NA
ATOM      7  C   UNL     1      -2.928   4.596  -4.524  0.00  0.00    +0.172 A 
ATOM      8  C   UNL     1      -0.226   5.735  -2.316  0.00  0.00    +0.004 A 
ATOM      9  C   UNL     1      -0.254   7.120  -2.459  0.00  0.00    +0.010 A 
ATOM     10  C   UNL     1       0.690   7.893  -1.814  0.00  0.00    +0.001 A 
ATOM     11  C   UNL     1       1.660   7.294  -1.029  0.00  0.00    +0.000 A 
ATOM     12  C   UNL     1       1.697   5.918  -0.892  0.00  0.00    +0.004 A 
ATOM     13  C   UNL     1       0.763   5.133  -1.537  0.00  0.00    -0.037 A 
ATOM     14  C   UNL     1       0.810   3.635  -1.408  0.00  0.00    +0.047 C 
ATOM     15  C   UNL     1      -0.602   3.052  -1.371  0.00  0.00    +0.007 C 
ATOM     16  C   UNL     1      -0.522   1.525  -1.476  0.00  0.00    +0.012 C 
ATOM     17  C   UNL     1       0.307   0.977  -0.314  0.00  0.00    +0.001 C 
ATOM     18  C   UNL     1      -0.359   1.357   1.011  0.00  0.00    +0.000 C 
ATOM     19  C   UNL     1      -0.446   2.880   1.119  0.00  0.00    +0.001 C 
ATOM     20  C   UNL     1      -1.272   3.429  -0.046  0.00  0.00    +0.012 C 
ENDROOT
BRANCH   1  24
ATOM     21  C   UNL     1      -7.152   0.512  -3.578  0.00  0.00    +0.041 C 
ATOM     22  C   UNL     1      -6.126   1.049  -4.578  0.00  0.00    +0.066 C 
ATOM     23  C   UNL     1      -5.148   1.980  -3.856  0.00  0.00    +0.059 C 
ATOM     24  C   UNL     1      -4.089   2.466  -4.851  0.00  0.00    +0.098 C 
ATOM     25  C   UNL     1      -3.389   1.251  -5.467  0.00  0.00    +0.053 C 
ATOM     26  C   UNL     1      -4.435   0.348  -6.127  0.00  0.00    +0.162 C 
ATOM     27  O   UNL     1      -5.406  -0.042  -5.154  0.00  0.00    -0.374 OA
ATOM     28  C   UNL     1      -6.848   1.825  -5.682  0.00  0.00    +0.041 C 
ENDBRANCH   1  24
BRANCH   7  29
ATOM     29  S   UNL     1      -3.921   5.266  -5.815  0.00  0.00    -0.091 S 
ATOM     30  C   UNL     1      -3.268   6.954  -5.870  0.00  0.00    +0.093 C 
ENDBRANCH   7  29
TORSDOF 2
