REMARK  Name = ZINC04237132
REMARK  3 active torsions:
REMARK  status: ('A' for Active; 'I' for Inactive)
REMARK    1  A    between atoms: C_4  and  S_7
REMARK    2  A    between atoms: S_7  and  N_10
REMARK    3  A    between atoms: C_21  and  C_26
REMARK                            x       y       z     vdW  Elec       q    Type
REMARK                         _______ _______ _______ _____ _____    ______ ____
ROOT
ATOM      1  N   UNL     1       2.041   0.123  -1.355  0.00  0.00    -0.176 NA
ATOM      2  C   UNL     1       0.735  -0.534  -1.223  0.00  0.00    +0.114 C 
ATOM      3  C   UNL     1       0.002  -0.004   0.002  0.00  0.00    +0.025 C 
ATOM      4  C   UNL     1      -0.019   1.525   0.010  0.00  0.00    +0.017 C 
ATOM      5  C   UNL     1       1.427   2.028  -0.001  0.00  0.00    +0.052 C 
ATOM      6  C   UNL     1       2.097   1.592  -1.298  0.00  0.00    +0.119 C 
ATOM      7  C   UNL     1       2.199   1.386   1.129  0.00  0.00    +0.026 A 
ATOM      8  C   UNL     1       3.248   2.084   1.643  0.00  0.00    +0.022 A 
ATOM      9  C   UNL     1       4.055   1.531   2.639  0.00  0.00    +0.015 A 
ATOM     10  C   UNL     1       3.784   0.244   3.076  0.00  0.00    +0.047 A 
ATOM     11  C   UNL     1       2.687  -0.446   2.514  0.00  0.00    +0.259 A 
ATOM     12  O   UNL     1       2.471  -1.603   2.834  0.00  0.00    -0.267 OA
ATOM     13  N   UNL     1       1.871   0.168   1.621  0.00  0.00    -0.311 N 
ATOM     14  C   UNL     1       0.623  -0.519   1.287  0.00  0.00    +0.130 C 
ENDROOT
BRANCH  10  15
ATOM     15  C   UNL     1       4.628  -0.396   4.112  0.00  0.00    -0.013 A 
ATOM     16  C   UNL     1       5.386  -1.523   3.800  0.00  0.00    +0.010 A 
ATOM     17  C   UNL     1       6.174  -2.111   4.767  0.00  0.00    +0.020 A 
ATOM     18  C   UNL     1       6.204  -1.591   6.050  0.00  0.00    +0.041 A 
ATOM     19  C   UNL     1       5.449  -0.475   6.367  0.00  0.00    +0.020 A 
ATOM     20  C   UNL     1       4.661   0.125   5.406  0.00  0.00    +0.010 A 
ATOM     21 CL   UNL     1       7.192  -2.341   7.265  0.00  0.00    -0.084 Cl
ENDBRANCH  10  15
BRANCH   1  22
ATOM     22  S   UNL     1       3.420  -0.770  -1.564  0.00  0.00    +0.061 S 
ATOM     23  O   UNL     1       4.498   0.035  -1.106  0.00  0.00    -0.153 OA
ATOM     24  O   UNL     1       3.153  -2.060  -1.032  0.00  0.00    -0.153 OA
BRANCH  22  28
ATOM     25  C   UNL     1       4.007  -1.304  -6.020  0.00  0.00    +0.000 A 
ATOM     26  C   UNL     1       4.563  -0.216  -5.375  0.00  0.00    +0.002 A 
ATOM     27  C   UNL     1       4.384  -0.052  -4.014  0.00  0.00    +0.028 A 
ATOM     28  C   UNL     1       3.648  -0.978  -3.298  0.00  0.00    +0.105 A 
ATOM     29  C   UNL     1       3.096  -2.070  -3.942  0.00  0.00    +0.028 A 
ATOM     30  C   UNL     1       3.272  -2.230  -5.304  0.00  0.00    +0.002 A 
ENDBRANCH  22  28
ENDBRANCH   1  22
TORSDOF 3
