REMARK  Name = ZINC20701083
REMARK  7 active torsions:
REMARK  status: ('A' for Active; 'I' for Inactive)
REMARK    1  A    between atoms: C_1  and  C_2
REMARK    2  A    between atoms: C_2  and  N_3
REMARK    3  A    between atoms: N_3  and  C_4
REMARK    4  A    between atoms: N_3  and  C_6
REMARK    5  A    between atoms: C_4  and  C_5
REMARK    6  A    between atoms: C_19  and  C_22
REMARK    7  A    between atoms: C_27  and  O_28
REMARK                            x       y       z     vdW  Elec       q    Type
REMARK                         _______ _______ _______ _____ _____    ______ ____
ROOT
ATOM      1  C   UNL     1      -2.479   4.952  -1.066  0.00  0.00    +0.030 A 
ATOM      2  C   UNL     1      -3.111   3.796  -0.627  0.00  0.00    +0.025 A 
ATOM      3  C   UNL     1      -2.360   2.671  -0.351  0.00  0.00    +0.025 A 
ATOM      4  C   UNL     1      -0.980   2.696  -0.519  0.00  0.00    +0.031 A 
ATOM      5  C   UNL     1      -0.343   3.845  -0.954  0.00  0.00    -0.018 A 
ATOM      6  C   UNL     1      -1.104   4.974  -1.228  0.00  0.00    +0.029 A 
ATOM      7  C   UNL     1       1.138   3.916  -1.146  0.00  0.00    +0.049 C 
ATOM      8  C   UNL     1       1.801   4.700  -0.038  0.00  0.00    -0.023 C 
ATOM      9  C   UNL     1       2.964   4.173   0.258  0.00  0.00    -0.030 C 
ATOM     10  C   UNL     1       3.238   2.966  -0.618  0.00  0.00    +0.033 C 
ATOM     11  C   UNL     1       1.819   2.534  -1.092  0.00  0.00    +0.029 C 
ATOM     12  C   UNL     1       1.202   1.691   0.028  0.00  0.00    +0.109 C 
ATOM     13  N   UNL     1      -0.235   1.544  -0.226  0.00  0.00    -0.336 N 
ATOM     14  H   UNL     1      -0.702   0.549  -0.184  0.00  0.00    +0.147 HD
ENDROOT
BRANCH  12  15
ATOM     15  C   UNL     1       1.413   2.377   1.352  0.00  0.00    +0.017 A 
ATOM     16  C   UNL     1       0.528   3.351   1.775  0.00  0.00    +0.029 A 
ATOM     17  C   UNL     1       0.722   3.982   2.991  0.00  0.00    +0.043 A 
ATOM     18  C   UNL     1       1.801   3.640   3.787  0.00  0.00    +0.043 A 
ATOM     19  C   UNL     1       2.688   2.666   3.368  0.00  0.00    +0.084 A 
ATOM     20  C   UNL     1       2.492   2.028   2.150  0.00  0.00    +0.140 A 
ATOM     21 CL   UNL     1       4.042   2.236   4.366  0.00  0.00    -0.080 Cl
ATOM     22 CL   UNL     1      -0.391   5.205   3.519  0.00  0.00    -0.083 Cl
BRANCH  20  23
ATOM     23  O   UNL     1       3.360   1.066   1.738  0.00  0.00    -0.505 OA
ATOM     24  H   UNL     1       4.216   0.789   2.372  0.00  0.00    +0.292 HD
ENDBRANCH  20  23
ENDBRANCH  12  15
BRANCH   1  25
ATOM     25  N   UNL     1      -3.234   6.098  -1.346  0.00  0.00    -0.330 N 
BRANCH  25  27
ATOM     26  C   UNL     1      -5.042   6.503   0.251  0.00  0.00    +0.024 C 
ATOM     27  C   UNL     1      -4.689   6.076  -1.175  0.00  0.00    +0.102 C 
ENDBRANCH  25  27
BRANCH  25  28
ATOM     28  C   UNL     1      -2.569   7.318  -1.809  0.00  0.00    +0.102 C 
ATOM     29  C   UNL     1      -2.492   7.308  -3.337  0.00  0.00    +0.024 C 
ENDBRANCH  25  28
ENDBRANCH   1  25
TORSDOF 5
