REMARK  Name = ZINC02651461
REMARK  7 active torsions:
REMARK  status: ('A' for Active; 'I' for Inactive)
REMARK    1  A    between atoms: C_1  and  C_2
REMARK    2  A    between atoms: C_2  and  C_23
REMARK    3  A    between atoms: N_5  and  C_9
REMARK    4  A    between atoms: C_9  and  C_10
REMARK    5  A    between atoms: N_12  and  C_13
REMARK    6  A    between atoms: C_13  and  C_14
REMARK    7  A    between atoms: C_14  and  C_15
REMARK                            x       y       z     vdW  Elec       q    Type
REMARK                         _______ _______ _______ _____ _____    ______ ____
ROOT
ATOM      1  C   UNL     1      -5.050   4.619   1.163  0.00  0.00    +0.047 C 
ATOM      2  C   UNL     1      -5.293   3.188   0.679  0.00  0.00    +0.135 C 
ATOM      3  C   UNL     1      -4.189   2.263   1.149  0.00  0.00    +0.251 C 
ATOM      4  O   UNL     1      -3.888   2.005   2.295  0.00  0.00    -0.272 OA
ATOM      5  N   UNL     1      -3.608   1.789   0.029  0.00  0.00    -0.215 N 
ATOM      6  C   UNL     1      -4.192   2.276  -1.073  0.00  0.00    +0.310 C 
ATOM      7  O   UNL     1      -3.846   1.990  -2.202  0.00  0.00    -0.252 OA
ATOM      8  N   UNL     1      -5.204   3.116  -0.790  0.00  0.00    -0.281 N 
ATOM      9  H   UNL     1      -5.765   3.583  -1.429  0.00  0.00    +0.152 HD
ENDROOT
BRANCH   2  10
ATOM     10  C   UNL     1      -6.634   2.690   1.153  0.00  0.00    -0.014 A 
ATOM     11  C   UNL     1      -7.755   2.861   0.361  0.00  0.00    +0.006 A 
ATOM     12  C   UNL     1      -8.985   2.403   0.795  0.00  0.00    +0.001 A 
ATOM     13  C   UNL     1      -9.095   1.776   2.022  0.00  0.00    +0.015 A 
ATOM     14  C   UNL     1      -7.975   1.606   2.815  0.00  0.00    +0.018 A 
ATOM     15  C   UNL     1      -6.743   2.058   2.377  0.00  0.00    +0.021 A 
ATOM     16 BR   UNL     1      -8.125   0.747   4.493  0.00  0.00    -0.050 Br
ENDBRANCH   2  10
BRANCH   5  17
ATOM     17  C   UNL     1      -2.482   0.853   0.018  0.00  0.00    +0.213 C 
BRANCH  17  18
ATOM     18  C   UNL     1      -1.187   1.624   0.017  0.00  0.00    +0.231 C 
ATOM     19  O   UNL     1      -1.204   2.837   0.023  0.00  0.00    -0.274 OA
ATOM     20  N   UNL     1      -0.011   0.966   0.007  0.00  0.00    -0.314 N 
ATOM     21  H   UNL     1       0.002  -0.004   0.002  0.00  0.00    +0.149 HD
BRANCH  20  22
ATOM     22  C   UNL     1       1.248   1.716  -0.001  0.00  0.00    +0.109 C 
BRANCH  22  23
ATOM     23  C   UNL     1       2.424   0.737  -0.017  0.00  0.00    +0.055 C 
BRANCH  23  24
ATOM     24  C   UNL     1       3.719   1.508  -0.025  0.00  0.00    -0.027 A 
ATOM     25  C   UNL     1       4.357   1.774  -1.222  0.00  0.00    +0.006 A 
ATOM     26  C   UNL     1       5.542   2.486  -1.231  0.00  0.00    +0.020 A 
ATOM     27  C   UNL     1       6.095   2.924  -0.041  0.00  0.00    +0.042 A 
ATOM     28  C   UNL     1       5.459   2.654   1.158  0.00  0.00    +0.040 A 
ATOM     29  C   UNL     1       4.271   1.946   1.165  0.00  0.00    +0.046 A 
ATOM     30 CL   UNL     1       3.472   1.606   2.669  0.00  0.00    -0.083 Cl
ATOM     31 CL   UNL     1       7.587   3.812  -0.051  0.00  0.00    -0.083 Cl
ENDBRANCH  23  24
ENDBRANCH  22  23
ENDBRANCH  20  22
ENDBRANCH  17  18
ENDBRANCH   5  17
TORSDOF 6
