REMARK  Name = ZINC21345138
REMARK  5 active torsions:
REMARK  status: ('A' for Active; 'I' for Inactive)
REMARK    1  A    between atoms: C_1  and  O_2
REMARK    2  A    between atoms: O_2  and  C_3
REMARK    3  A    between atoms: C_6  and  C_9
REMARK    4  A    between atoms: C_15  and  N_16
REMARK    5  A    between atoms: N_16  and  C_17
REMARK                            x       y       z     vdW  Elec       q    Type
REMARK                         _______ _______ _______ _____ _____    ______ ____
ROOT
ATOM      1  C   UNL     1       7.068   2.093  -0.003  0.00  0.00    +0.103 C 
ATOM      2  N   UNL     1       7.953   1.889  -0.943  0.00  0.00    -0.169 NA
ATOM      3  N   UNL     1       7.431   1.040  -1.921  0.00  0.00    -0.131 N 
ATOM      4  C   UNL     1       6.174   0.681  -1.597  0.00  0.00    +0.275 C 
ATOM      5  O   UNL     1       5.443  -0.056  -2.237  0.00  0.00    -0.268 OA
ATOM      6  C   UNL     1       5.859   1.327  -0.369  0.00  0.00    +0.080 C 
ATOM      7  C   UNL     1       4.674   1.248   0.336  0.00  0.00    +0.083 C 
ATOM      8  C   UNL     1       8.111   0.622  -3.056  0.00  0.00    +0.189 A 
ATOM      9  N   UNL     1       9.330   0.918  -3.441  0.00  0.00    -0.223 NA
ATOM     10  C   UNL     1       9.868   0.434  -4.581  0.00  0.00    +0.080 A 
ATOM     11  C   UNL     1      11.160   0.672  -5.107  0.00  0.00    +0.029 A 
ATOM     12  C   UNL     1      11.552   0.097  -6.287  0.00  0.00    +0.002 A 
ATOM     13  C   UNL     1      10.705  -0.735  -7.005  0.00  0.00    +0.001 A 
ATOM     14  C   UNL     1       9.435  -0.990  -6.521  0.00  0.00    +0.017 A 
ATOM     15  C   UNL     1       9.033  -0.418  -5.340  0.00  0.00    +0.041 A 
ATOM     16  S   UNL     1       7.551  -0.463  -4.361  0.00  0.00    -0.050 S 
ENDROOT
BRANCH   1  20
ATOM     17  C   UNL     1       7.572   4.506   3.461  0.00  0.00    +0.120 A 
ATOM     18  C   UNL     1       8.675   3.903   2.871  0.00  0.00    +0.046 A 
ATOM     19  C   UNL     1       8.515   3.119   1.748  0.00  0.00    +0.013 A 
ATOM     20  C   UNL     1       7.244   2.934   1.204  0.00  0.00    +0.003 A 
ATOM     21  C   UNL     1       6.139   3.546   1.796  0.00  0.00    +0.013 A 
ATOM     22  C   UNL     1       6.306   4.324   2.923  0.00  0.00    +0.046 A 
BRANCH  17  24
ATOM     23  C   UNL     1       6.558   5.869   5.123  0.00  0.00    +0.277 C 
ATOM     24  O   UNL     1       7.734   5.278   4.567  0.00  0.00    -0.495 OA
ENDBRANCH  17  24
ENDBRANCH   1  20
BRANCH   7  25
ATOM     25  N   UNL     1       3.618   0.592  -0.190  0.00  0.00    -0.345 N 
ATOM     26  H   UNL     1       3.701   0.120  -1.180  0.00  0.00    +0.146 HD
BRANCH  25  27
ATOM     27  C   UNL     1       2.361   0.509   0.558  0.00  0.00    +0.078 C 
ATOM     28  C   UNL     1       1.420   1.672   0.180  0.00  0.00    +0.058 C 
ATOM     29  C   UNL     1       0.025   1.085   0.227  0.00  0.00    -0.042 A 
ATOM     30  C   UNL     1      -1.210   1.708   0.286  0.00  0.00    +0.004 A 
ATOM     31  C   UNL     1      -2.367   0.956   0.323  0.00  0.00    +0.000 A 
ATOM     32  C   UNL     1      -2.294  -0.424   0.292  0.00  0.00    +0.000 A 
ATOM     33  C   UNL     1      -1.063  -1.048   0.229  0.00  0.00    +0.004 A 
ATOM     34  C   UNL     1       0.099  -0.295   0.196  0.00  0.00    -0.042 A 
ATOM     35  C   UNL     1       1.547  -0.729   0.127  0.00  0.00    +0.058 C 
ENDBRANCH  25  27
ENDBRANCH   7  25
TORSDOF 4
