REMARK  Name = ZINC01182068
REMARK  7 active torsions:
REMARK  status: ('A' for Active; 'I' for Inactive)
REMARK    1  A    between atoms: C_1  and  O_2
REMARK    2  A    between atoms: O_2  and  C_3
REMARK    3  A    between atoms: C_6  and  C_11
REMARK    4  A    between atoms: C_8  and  O_9
REMARK    5  A    between atoms: O_9  and  C_10
REMARK    6  A    between atoms: C_16  and  C_26
REMARK    7  A    between atoms: C_29  and  N_32
REMARK                            x       y       z     vdW  Elec       q    Type
REMARK                         _______ _______ _______ _____ _____    ______ ____
ROOT
ATOM      1  C   UNL     1      -4.335  -0.346  -2.578  0.00  0.00    +0.032 C 
ATOM      2  C   UNL     1      -3.939  -0.252  -1.105  0.00  0.00    +0.059 C 
ATOM      3  C   UNL     1      -3.353   1.119  -0.815  0.00  0.00    +0.017 C 
ATOM      4  C   UNL     1      -3.790   2.204  -1.479  0.00  0.00    +0.036 C 
ATOM      5  C   UNL     1      -3.306   3.619  -1.279  0.00  0.00    +0.136 C 
ATOM      6  N   UNL     1      -2.484   3.817  -0.092  0.00  0.00    -0.331 N 
ATOM      7  C   UNL     1      -1.236   3.204   0.016  0.00  0.00    +0.049 A 
ATOM      8  C   UNL     1      -0.063   3.941   0.024  0.00  0.00    +0.025 A 
ATOM      9  C   UNL     1       1.154   3.281   0.043  0.00  0.00    +0.002 A 
ATOM     10  C   UNL     1       1.200   1.899   0.054  0.00  0.00    +0.002 A 
ATOM     11  C   UNL     1       0.029   1.160   0.064  0.00  0.00    +0.025 A 
ATOM     12  C   UNL     1      -1.189   1.818   0.056  0.00  0.00    +0.052 A 
ATOM     13  N   UNL     1      -2.398   1.142   0.150  0.00  0.00    -0.316 N 
ATOM     14  C   UNL     1      -4.786   2.073  -2.475  0.00  0.00    +0.163 C 
ATOM     15  O   UNL     1      -5.179   3.072  -3.045  0.00  0.00    -0.292 OA
ATOM     16  C   UNL     1      -5.375   0.747  -2.853  0.00  0.00    +0.088 C 
ATOM     17  H   UNL     1      -2.801   4.384   0.628  0.00  0.00    +0.147 HD
ATOM     18  H   UNL     1      -2.574   0.648   0.966  0.00  0.00    +0.152 HD
ENDROOT
BRANCH   1  22
ATOM     19  C   UNL     1      -6.034  -4.190  -3.374  0.00  0.00    +0.161 A 
ATOM     20  C   UNL     1      -6.620  -3.350  -2.440  0.00  0.00    +0.049 A 
ATOM     21  C   UNL     1      -6.068  -2.108  -2.185  0.00  0.00    +0.008 A 
ATOM     22  C   UNL     1      -4.932  -1.701  -2.860  0.00  0.00    -0.040 A 
ATOM     23  C   UNL     1      -4.346  -2.532  -3.796  0.00  0.00    +0.053 A 
ATOM     24  C   UNL     1      -4.891  -3.780  -4.053  0.00  0.00    +0.162 A 
BRANCH  19  26
ATOM     25  C   UNL     1      -7.749  -5.765  -2.892  0.00  0.00    +0.277 C 
ATOM     26  O   UNL     1      -6.575  -5.411  -3.626  0.00  0.00    -0.491 OA
ENDBRANCH  19  26
BRANCH  24  27
ATOM     27  O   UNL     1      -4.312  -4.600  -4.971  0.00  0.00    -0.491 OA
ATOM     28  C   UNL     1      -3.141  -4.113  -5.629  0.00  0.00    +0.277 C 
ENDBRANCH  24  27
ENDBRANCH   1  22
BRANCH   5  29
ATOM     29  C   UNL     1      -2.511   4.027  -2.493  0.00  0.00    -0.023 A 
ATOM     30  C   UNL     1      -2.958   5.060  -3.296  0.00  0.00    +0.008 A 
ATOM     31  C   UNL     1      -2.226   5.437  -4.407  0.00  0.00    +0.033 A 
ATOM     32  C   UNL     1      -1.053   4.776  -4.719  0.00  0.00    +0.126 A 
ATOM     33  C   UNL     1      -0.610   3.739  -3.919  0.00  0.00    +0.033 A 
ATOM     34  C   UNL     1      -1.339   3.365  -2.806  0.00  0.00    +0.008 A 
BRANCH  32  35
ATOM     35  N   UNL     1      -0.272   5.177  -5.911  0.00  0.00    +0.056 N 
ATOM     36  O   UNL     1       0.762   4.594  -6.186  0.00  0.00    -0.126 OA
ATOM     37  O   UNL     1      -0.662   6.090  -6.616  0.00  0.00    -0.126 OA
ENDBRANCH  32  35
ENDBRANCH   5  29
TORSDOF 5
