REMARK  Name = ZINC63362036
REMARK  5 active torsions:
REMARK  status: ('A' for Active; 'I' for Inactive)
REMARK    1  A    between atoms: C_1  and  C_2
REMARK    2  A    between atoms: C_9  and  N_17
REMARK    3  A    between atoms: N_17  and  C_18
REMARK    4  A    between atoms: C_18  and  C_19
REMARK    5  A    between atoms: C_31  and  C_38
REMARK                            x       y       z     vdW  Elec       q    Type
REMARK                         _______ _______ _______ _____ _____    ______ ____
ROOT
ATOM      1  N   UNL     1       1.036  -6.628   1.450  0.00  0.00    -0.310 NA
ATOM      2  H   UNL     1       0.394  -7.163   2.015  0.00  0.00    +0.122 HD
ENDROOT
BRANCH   1  10
ATOM      3  C   UNL     1      -0.018   1.503   0.010  0.00  0.00    +0.044 C 
ATOM      4  C   UNL     1       0.002  -0.004   0.002  0.00  0.00    -0.050 A 
ATOM      5  C   UNL     1       0.005  -0.680  -1.226  0.00  0.00    +0.005 A 
ATOM      6  C   UNL     1       0.020  -2.026  -1.316  0.00  0.00    +0.026 A 
ATOM      7  C   UNL     1       0.033  -2.827  -0.142  0.00  0.00    +0.043 A 
ATOM      8  N   UNL     1       0.070  -4.130   0.027  0.00  0.00    -0.376 N 
ATOM      9  C   UNL     1      -0.017  -4.414   1.456  0.00  0.00    +0.123 C 
ATOM     10  C   UNL     1       1.162  -5.254   1.954  0.00  0.00    +0.080 C 
ATOM     11  C   UNL     1       1.144  -5.260   3.485  0.00  0.00    +0.021 C 
ATOM     12  C   UNL     1       1.398  -3.862   4.045  0.00  0.00    +0.006 C 
ATOM     13  C   UNL     1       0.255  -2.917   3.635  0.00  0.00    +0.033 C 
ATOM     14  C   UNL     1       0.063  -3.061   2.143  0.00  0.00    -0.037 C 
ATOM     15  C   UNL     1       0.038  -2.137   1.172  0.00  0.00    -0.001 A 
ATOM     16  C   UNL     1       0.022  -0.668   1.179  0.00  0.00    +0.013 A 
ATOM     17  H   UNL     1       0.143  -4.791  -0.679  0.00  0.00    +0.160 HD
ENDBRANCH   1  10
BRANCH   1  18
ATOM     18  C   UNL     1       2.347  -7.285   1.377  0.00  0.00    +0.096 C 
BRANCH  18  19
ATOM     19  C   UNL     1       2.175  -8.711   0.849  0.00  0.00    +0.118 C 
ATOM     20  C   UNL     1       3.543  -9.457   0.832  0.00  0.00    +0.045 C 
ATOM     21  C   UNL     1       3.241 -10.926   1.139  0.00  0.00    +0.016 C 
ATOM     22  C   UNL     1       4.400 -11.815   0.699  0.00  0.00    +0.021 C 
ATOM     23  C   UNL     1       4.110 -13.256   1.045  0.00  0.00    -0.073 C 
ATOM     24  C   UNL     1       3.091 -13.576   1.804  0.00  0.00    +0.008 C 
ATOM     25  C   UNL     1       5.030 -14.321   0.488  0.00  0.00    +0.030 C 
ATOM     26  C   UNL     1       5.163 -14.114  -1.024  0.00  0.00    +0.005 C 
ATOM     27  C   UNL     1       5.608 -12.678  -1.309  0.00  0.00    +0.007 C 
ATOM     28  C   UNL     1       4.545 -11.691  -0.824  0.00  0.00    -0.022 C 
ATOM     29  C   UNL     1       4.956 -10.253  -1.141  0.00  0.00    +0.052 C 
ATOM     30  C   UNL     1       3.930  -9.253  -0.646  0.00  0.00    +0.181 C 
ATOM     31  O   UNL     1       2.682  -9.352  -1.341  0.00  0.00    -0.461 OA
ATOM     32  C   UNL     1       1.752  -8.693  -0.608  0.00  0.00    +0.312 C 
ATOM     33  O   UNL     1       0.751  -8.174  -1.042  0.00  0.00    -0.250 OA
ATOM     34  C   UNL     1       3.211 -12.018  -1.497  0.00  0.00    +0.012 C 
ENDBRANCH  18  19
ENDBRANCH   1  18
TORSDOF 3
