REMARK  Name = ZINC43274580
REMARK  7 active torsions:
REMARK  status: ('A' for Active; 'I' for Inactive)
REMARK    1  A    between atoms: C_1  and  C_2
REMARK    2  A    between atoms: C_6  and  C_7
REMARK    3  A    between atoms: C_7  and  N_8
REMARK    4  A    between atoms: N_8  and  C_9
REMARK    5  A    between atoms: N_12  and  C_13
REMARK    6  A    between atoms: C_15  and  C_20
REMARK    7  A    between atoms: C_17  and  C_19
REMARK                            x       y       z     vdW  Elec       q    Type
REMARK                         _______ _______ _______ _____ _____    ______ ____
ROOT
ATOM      1  N   UNL     1      -1.601  -0.237   2.984  0.00  0.00    -0.284 N 
ATOM      2  C   UNL     1      -2.107  -1.393   3.727  0.00  0.00    +0.134 C 
ATOM      3  C   UNL     1      -2.424   0.789   2.690  0.00  0.00    +0.307 C 
ATOM      4  O   UNL     1      -1.984   1.786   2.152  0.00  0.00    -0.252 OA
ATOM      5  N   UNL     1      -3.735   0.709   2.993  0.00  0.00    -0.269 N 
ATOM      6  H   UNL     1      -4.072  -0.051   3.493  0.00  0.00    +0.156 HD
ENDROOT
BRANCH   5   7
ATOM      7  C   UNL     1      -4.610   1.722   2.586  0.00  0.00    +0.035 A 
ATOM      8  C   UNL     1      -5.679   2.084   3.395  0.00  0.00    +0.026 A 
ATOM      9  C   UNL     1      -6.541   3.084   2.991  0.00  0.00    -0.048 A 
ATOM     10  C   UNL     1      -6.340   3.726   1.782  0.00  0.00    +0.006 A 
ATOM     11  C   UNL     1      -5.277   3.367   0.974  0.00  0.00    -0.048 A 
ATOM     12  C   UNL     1      -4.408   2.371   1.375  0.00  0.00    +0.026 A 
ATOM     13  C   UNL     1      -5.062   4.069  -0.342  0.00  0.00    +0.044 C 
ATOM     14  C   UNL     1      -7.702   3.478   3.867  0.00  0.00    +0.044 C 
ENDBRANCH   5   7
BRANCH   1  15
ATOM     15  C   UNL     1      -0.199  -0.196   2.559  0.00  0.00    +0.151 C 
BRANCH  15  21
ATOM     16  C   UNL     1       0.052  -3.124   1.663  0.00  0.00    +0.044 C 
ATOM     17  C   UNL     1       0.024  -1.971   0.693  0.00  0.00    -0.039 A 
ATOM     18  C   UNL     1       0.106  -2.197  -0.668  0.00  0.00    +0.011 A 
ATOM     19  C   UNL     1       0.077  -1.138  -1.513  0.00  0.00    +0.046 A 
ATOM     20  S   UNL     1      -0.070   0.234  -0.381  0.00  0.00    -0.100 S 
ATOM     21  C   UNL     1      -0.089  -0.697   1.142  0.00  0.00    +0.010 A 
ENDBRANCH  15  21
ENDBRANCH   1  15
TORSDOF 3
