REMARK  Name = ZINC40647439
REMARK  4 active torsions:
REMARK  status: ('A' for Active; 'I' for Inactive)
REMARK    1  A    between atoms: C_5  and  C_7
REMARK    2  A    between atoms: C_7  and  N_8
REMARK    3  A    between atoms: C_10  and  N_23
REMARK    4  A    between atoms: C_11  and  N_15
REMARK                            x       y       z     vdW  Elec       q    Type
REMARK                         _______ _______ _______ _____ _____    ______ ____
ROOT
ATOM      1  N   UNL     1       1.471  -2.678   1.337  0.00  0.00    -0.323 N 
ATOM      2  C   UNL     1       1.541  -4.042   1.577  0.00  0.00    +0.155 A 
ATOM      3  C   UNL     1       1.786  -4.521   2.861  0.00  0.00    +0.205 A 
ATOM      4  C   UNL     1       1.846  -5.898   3.049  0.00  0.00    +0.160 A 
ATOM      5  N   UNL     1       1.669  -6.702   2.002  0.00  0.00    -0.218 NA
ATOM      6  C   UNL     1       1.439  -6.210   0.802  0.00  0.00    +0.225 A 
ATOM      7  N   UNL     1       1.369  -4.912   0.584  0.00  0.00    -0.218 NA
ATOM      8  H   UNL     1       1.597  -2.050   2.066  0.00  0.00    +0.148 HD
ENDROOT
BRANCH   4   9
ATOM      9  N   UNL     1       2.088  -6.427   4.310  0.00  0.00    -0.282 N 
ATOM     10  C   UNL     1       2.039  -7.804   4.509  0.00  0.00    +0.124 A 
ATOM     11  C   UNL     1       2.174  -8.320   5.793  0.00  0.00    +0.045 A 
ATOM     12  C   UNL     1       2.123  -9.690   5.977  0.00  0.00    +0.020 A 
ATOM     13  C   UNL     1       1.937 -10.501   4.865  0.00  0.00    +0.036 A 
ATOM     14  C   UNL     1       1.809  -9.920   3.618  0.00  0.00    +0.128 A 
ATOM     15  N   UNL     1       1.857  -8.610   3.474  0.00  0.00    -0.239 NA
ATOM     16 BR   UNL     1       1.859 -12.381   5.056  0.00  0.00    -0.049 Br
ATOM     17  H   UNL     1       2.292  -5.836   5.052  0.00  0.00    +0.155 HD
ENDBRANCH   4   9
BRANCH   3  18
ATOM     18  N   UNL     1       1.977  -3.591   3.996  0.00  0.00    +0.063 N 
ATOM     19  O   UNL     1       1.026  -3.229   4.648  0.00  0.00    -0.126 OA
ATOM     20  O   UNL     1       3.085  -3.192   4.270  0.00  0.00    -0.126 OA
ENDBRANCH   3  18
BRANCH   1  21
ATOM     21  C   UNL     1       1.207  -2.185  -0.017  0.00  0.00    +0.139 C 
BRANCH  21  26
ATOM     22  C   UNL     1      -0.049   1.375   0.020  0.00  0.00    +0.000 A 
ATOM     23  C   UNL     1       1.136   2.087   0.011  0.00  0.00    +0.001 A 
ATOM     24  C   UNL     1       2.345   1.417  -0.008  0.00  0.00    +0.020 A 
ATOM     25  C   UNL     1       2.368   0.033  -0.016  0.00  0.00    +0.046 A 
ATOM     26  C   UNL     1       1.182  -0.678  -0.007  0.00  0.00    -0.012 A 
ATOM     27  C   UNL     1      -0.026  -0.007   0.011  0.00  0.00    +0.006 A 
ATOM     28 CL   UNL     1       3.886  -0.809  -0.040  0.00  0.00    -0.083 Cl
ENDBRANCH  21  26
ENDBRANCH   1  21
TORSDOF 4
