REMARK  Name = ZINC43746354
REMARK  10 active torsions:
REMARK  status: ('A' for Active; 'I' for Inactive)
REMARK    1  A    between atoms: C_1  and  C_2
REMARK    2  A    between atoms: C_19  and  C_21
REMARK    3  A    between atoms: C_21  and  N_22
REMARK    4  A    between atoms: C_27  and  O_38
REMARK    5  A    between atoms: C_28  and  O_36
REMARK    6  A    between atoms: C_31  and  C_33
REMARK    7  A    between atoms: C_33  and  C_34
REMARK    8  A    between atoms: C_34  and  O_35
REMARK    9  A    between atoms: O_36  and  C_37
REMARK   10  A    between atoms: O_38  and  C_39
REMARK                            x       y       z     vdW  Elec       q    Type
REMARK                         _______ _______ _______ _____ _____    ______ ____
ROOT
ATOM      1  N   UNL     1      -1.881  -4.105   4.628  0.00  0.00    +0.385 N 
ATOM      2  C   UNL     1      -0.649  -4.881   4.418  0.00  0.00    -0.073 C 
ATOM      3  C   UNL     1      -0.929  -6.344   4.762  0.00  0.00    +0.017 C 
ATOM      4  C   UNL     1      -1.571  -6.435   6.123  0.00  0.00    -0.044 A 
ATOM      5  C   UNL     1      -1.590  -7.663   6.766  0.00  0.00    +0.053 A 
ATOM      6  C   UNL     1      -2.173  -7.789   8.015  0.00  0.00    +0.162 A 
ATOM      7  C   UNL     1      -2.742  -6.674   8.625  0.00  0.00    +0.162 A 
ATOM      8  C   UNL     1      -2.718  -5.451   7.980  0.00  0.00    +0.051 A 
ATOM      9  C   UNL     1      -2.131  -5.330   6.728  0.00  0.00    -0.054 A 
ATOM     10  C   UNL     1      -2.123  -3.976   6.068  0.00  0.00    -0.035 C 
ATOM     11  H   UNL     1      -2.659  -4.581   4.197  0.00  0.00    -0.081 HD
ENDROOT
BRANCH   7  12
ATOM     12  O   UNL     1      -3.319  -6.788   9.851  0.00  0.00    -0.491 OA
ATOM     13  C   UNL     1      -3.882  -5.602  10.415  0.00  0.00    +0.277 C 
ENDBRANCH   7  12
BRANCH   6  14
ATOM     14  O   UNL     1      -2.190  -8.995   8.643  0.00  0.00    -0.491 OA
ATOM     15  C   UNL     1      -1.588 -10.093   7.955  0.00  0.00    +0.277 C 
ENDBRANCH   6  14
BRANCH   1  16
ATOM     16  C   UNL     1      -1.729  -2.771   4.033  0.00  0.00    -0.063 C 
BRANCH  16  32
ATOM     17  C   UNL     1      -0.133  -0.658  -1.176  0.00  0.00    +0.012 C 
ATOM     18  C   UNL     1      -0.191  -2.125  -0.748  0.00  0.00    -0.022 C 
ATOM     19  C   UNL     1       0.389  -3.005  -1.854  0.00  0.00    +0.007 C 
ATOM     20  C   UNL     1       1.812  -2.549  -2.183  0.00  0.00    +0.005 C 
ATOM     21  C   UNL     1       2.709  -2.741  -0.957  0.00  0.00    +0.030 C 
ATOM     22  C   UNL     1       2.079  -2.030   0.222  0.00  0.00    -0.073 C 
ATOM     23  C   UNL     1       2.770  -1.187   0.948  0.00  0.00    +0.008 C 
ATOM     24  C   UNL     1       0.630  -2.321   0.536  0.00  0.00    +0.021 C 
ATOM     25  C   UNL     1       0.120  -1.317   1.569  0.00  0.00    +0.016 C 
ATOM     26  C   UNL     1      -1.343  -1.528   1.868  0.00  0.00    +0.042 C 
ATOM     27  C   UNL     1      -2.234  -1.604   0.613  0.00  0.00    +0.181 C 
ATOM     28  C   UNL     1      -1.635  -2.514  -0.448  0.00  0.00    +0.052 C 
ATOM     29  O   UNL     1      -3.404  -2.292   1.137  0.00  0.00    -0.461 OA
ATOM     30  C   UNL     1      -2.967  -3.293   1.931  0.00  0.00    +0.309 C 
ATOM     31  O   UNL     1      -3.546  -4.333   2.135  0.00  0.00    -0.251 OA
ATOM     32  C   UNL     1      -1.628  -2.899   2.512  0.00  0.00    +0.088 C 
ENDBRANCH  16  32
ENDBRANCH   1  16
BRANCH  10  33
ATOM     33  C   UNL     1      -3.475  -3.296   6.293  0.00  0.00    +0.017 C 
BRANCH  33  34
ATOM     34  C   UNL     1      -4.580  -4.133   5.644  0.00  0.00    +0.154 C 
BRANCH  34  35
ATOM     35  O   UNL     1      -5.854  -3.566   5.959  0.00  0.00    -0.395 OA
ATOM     36  H   UNL     1      -6.602  -4.045   5.579  0.00  0.00    +0.209 HD
ENDBRANCH  34  35
ENDBRANCH  33  34
ENDBRANCH  10  33
TORSDOF 7
