REMARK  Name = ZINC57380651
REMARK  6 active torsions:
REMARK  status: ('A' for Active; 'I' for Inactive)
REMARK    1  A    between atoms: C_1  and  C_2
REMARK    2  A    between atoms: C_2  and  C_4
REMARK    3  A    between atoms: C_2  and  N_10
REMARK    4  A    between atoms: N_6  and  C_7
REMARK    5  A    between atoms: C_23  and  C_25
REMARK    6  A    between atoms: C_25  and  N_26
REMARK                            x       y       z     vdW  Elec       q    Type
REMARK                         _______ _______ _______ _____ _____    ______ ____
ROOT
ATOM      1  N   UNL     1       0.050  -0.782   2.350  0.00  0.00    -0.289 NA
ATOM      2  C   UNL     1       0.227  -1.619   3.544  0.00  0.00    +0.104 C 
ATOM      3  C   UNL     1       1.448  -1.129   4.330  0.00  0.00    +0.122 C 
ATOM      4  N   UNL     1       2.603  -1.091   3.421  0.00  0.00    -0.312 N 
ATOM      5  C   UNL     1       2.457  -0.386   2.139  0.00  0.00    +0.122 C 
ATOM      6  C   UNL     1       1.196  -0.904   1.439  0.00  0.00    +0.104 C 
ATOM      7  C   UNL     1       3.796  -1.701   3.763  0.00  0.00    +0.133 A 
ATOM      8  C   UNL     1       4.851  -0.946   4.347  0.00  0.00    +0.051 A 
ATOM      9  C   UNL     1       4.887   0.482   4.669  0.00  0.00    -0.025 A 
ATOM     10  C   UNL     1       6.021   0.955   5.223  0.00  0.00    -0.004 A 
ATOM     11  S   UNL     1       7.096  -0.449   5.350  0.00  0.00    -0.073 S 
ATOM     12  C   UNL     1       6.018  -1.674   4.654  0.00  0.00    +0.114 A 
ATOM     13  N   UNL     1       6.109  -2.967   4.409  0.00  0.00    -0.227 NA
ATOM     14  C   UNL     1       5.097  -3.614   3.865  0.00  0.00    +0.116 A 
ATOM     15  N   UNL     1       3.970  -2.997   3.557  0.00  0.00    -0.219 NA
ATOM     16  C   UNL     1       6.308   2.366   5.641  0.00  0.00    +0.043 C 
ATOM     17  C   UNL     1       5.254   3.283   5.003  0.00  0.00    +0.005 C 
ATOM     18  C   UNL     1       3.868   2.675   5.239  0.00  0.00    +0.005 C 
ATOM     19  C   UNL     1       3.706   1.409   4.397  0.00  0.00    +0.037 C 
ENDROOT
BRANCH   1  21
ATOM     20  C   UNL     1      -1.033  -2.403   0.867  0.00  0.00    +0.034 C 
ATOM     21  C   UNL     1      -1.207  -1.107   1.661  0.00  0.00    +0.140 C 
BRANCH  21  22
ATOM     22  C   UNL     1      -1.568   0.013   0.720  0.00  0.00    +0.230 C 
ATOM     23  O   UNL     1      -0.758   0.882   0.472  0.00  0.00    -0.274 OA
ATOM     24  N   UNL     1      -2.791   0.051   0.154  0.00  0.00    -0.311 N 
ATOM     25  H   UNL     1      -3.438  -0.644   0.353  0.00  0.00    +0.149 HD
BRANCH  24  26
ATOM     26  C   UNL     1      -3.142   1.140  -0.760  0.00  0.00    +0.073 C 
ATOM     27  C   UNL     1      -4.523   1.778  -0.602  0.00  0.00    +0.024 C 
ATOM     28  C   UNL     1      -4.234   0.868  -1.797  0.00  0.00    +0.024 C 
ENDBRANCH  24  26
ENDBRANCH  21  22
ENDBRANCH   1  21
BRANCH  14  29
ATOM     29  C   UNL     1       5.226  -5.091   3.595  0.00  0.00    -0.001 C 
BRANCH  29  30
ATOM     30  N   UNL     1       4.766  -5.845   4.768  0.00  0.00    +0.384 N 
ATOM     31  C   UNL     1       3.332  -5.603   4.972  0.00  0.00    -0.078 C 
ATOM     32  C   UNL     1       2.865  -6.322   6.240  0.00  0.00    -0.019 C 
ATOM     33  C   UNL     1       3.114  -7.825   6.089  0.00  0.00    -0.004 C 
ATOM     34  C   UNL     1       4.600  -8.060   5.803  0.00  0.00    -0.019 C 
ATOM     35  C   UNL     1       5.003  -7.277   4.551  0.00  0.00    -0.078 C 
ATOM     36  H   UNL     1       5.276  -5.541   5.584  0.00  0.00    -0.081 HD
ENDBRANCH  29  30
ENDBRANCH  14  29
TORSDOF 5
