REMARK  Name = ZINC13566879
REMARK  7 active torsions:
REMARK  status: ('A' for Active; 'I' for Inactive)
REMARK    1  A    between atoms: C_1  and  C_2
REMARK    2  A    between atoms: C_2  and  C_3
REMARK    3  A    between atoms: C_3  and  C_4
REMARK    4  A    between atoms: C_6  and  C_24
REMARK    5  A    between atoms: C_9  and  C_17
REMARK    6  A    between atoms: C_11  and  C_16
REMARK    7  A    between atoms: N_14  and  O_15
REMARK                            x       y       z     vdW  Elec       q    Type
REMARK                         _______ _______ _______ _____ _____    ______ ____
ROOT
ATOM      1  C   UNL     1       0.931  -2.007  -0.477  0.00  0.00    +0.058 C 
ATOM      2  C   UNL     1       1.491  -2.231  -1.887  0.00  0.00    +0.093 C 
ATOM      3  N   UNL     1       1.537  -3.671  -2.169  0.00  0.00    -0.301 NA
ATOM      4  C   UNL     1       2.490  -4.363  -1.292  0.00  0.00    +0.093 C 
ATOM      5  C   UNL     1       1.998  -4.283   0.158  0.00  0.00    +0.055 C 
ATOM      6  C   UNL     1       1.751  -2.828   0.496  0.00  0.00    +0.067 C 
ATOM      7  N   UNL     1       2.220  -2.309   1.567  0.00  0.00    -0.096 NA
ATOM      8  C   UNL     1       3.061  -4.859   1.096  0.00  0.00    +0.016 C 
ATOM      9  H   UNL     1       0.618  -4.083  -2.101  0.00  0.00    +0.123 HD
ENDROOT
BRANCH   4  10
ATOM     10  C   UNL     1       3.842  -3.707  -1.401  0.00  0.00    -0.030 A 
ATOM     11  C   UNL     1       4.029  -2.426  -0.916  0.00  0.00    +0.006 A 
ATOM     12  C   UNL     1       5.269  -1.823  -1.016  0.00  0.00    +0.020 A 
ATOM     13  C   UNL     1       6.322  -2.502  -1.602  0.00  0.00    +0.041 A 
ATOM     14  C   UNL     1       6.134  -3.784  -2.088  0.00  0.00    +0.020 A 
ATOM     15  C   UNL     1       4.895  -4.387  -1.982  0.00  0.00    +0.006 A 
ATOM     16 CL   UNL     1       7.880  -1.745  -1.728  0.00  0.00    -0.084 Cl
ENDBRANCH   4  10
BRANCH   2  17
ATOM     17  C   UNL     1       0.603  -1.549  -2.895  0.00  0.00    -0.030 A 
ATOM     18  C   UNL     1      -0.575  -2.151  -3.298  0.00  0.00    +0.006 A 
ATOM     19  C   UNL     1      -1.390  -1.526  -4.222  0.00  0.00    +0.020 A 
ATOM     20  C   UNL     1      -1.028  -0.297  -4.745  0.00  0.00    +0.041 A 
ATOM     21  C   UNL     1       0.151   0.305  -4.341  0.00  0.00    +0.020 A 
ATOM     22  C   UNL     1       0.962  -0.318  -3.412  0.00  0.00    +0.006 A 
ATOM     23 CL   UNL     1      -2.051   0.489  -5.906  0.00  0.00    -0.084 Cl
ENDBRANCH   2  17
BRANCH   7  24
ATOM     24  O   UNL     1       3.067  -3.069   2.410  0.00  0.00    -0.409 OA
ATOM     25  H   UNL     1       3.371  -2.593   3.195  0.00  0.00    +0.328 HD
ENDBRANCH   7  24
BRANCH   1  26
ATOM     26  C   UNL     1       1.031  -0.524  -0.113  0.00  0.00    +0.011 C 
BRANCH  26  28
ATOM     27  C   UNL     1       0.471   1.195   1.612  0.00  0.00    +0.004 C 
ATOM     28  C   UNL     1       0.372  -0.288   1.248  0.00  0.00    -0.003 C 
ENDBRANCH  26  28
ENDBRANCH   1  26
TORSDOF 5
