REMARK  Name = ZINC39951465
REMARK  6 active torsions:
REMARK  status: ('A' for Active; 'I' for Inactive)
REMARK    1  A    between atoms: C_1  and  C_2
REMARK    2  A    between atoms: C_7  and  C_13
REMARK    3  A    between atoms: N_10  and  C_12
REMARK    4  A    between atoms: C_14  and  C_16
REMARK    5  A    between atoms: C_16  and  C_17
REMARK    6  A    between atoms: C_17  and  C_18
REMARK                            x       y       z     vdW  Elec       q    Type
REMARK                         _______ _______ _______ _____ _____    ______ ____
ROOT
ATOM      1  C   UNL     1      -0.019   1.533   0.011  0.00  0.00    +0.009 C 
ATOM      2  C   UNL     1       0.002  -0.004   0.002  0.00  0.00    -0.045 C 
ATOM      3  C   UNL     1       0.754  -0.406  -1.244  0.00  0.00    +0.024 C 
ATOM      4  C   UNL     1       0.824  -1.897  -1.458  0.00  0.00    +0.108 C 
ATOM      5  N   UNL     1       1.552  -2.630  -0.462  0.00  0.00    -0.301 N 
ATOM      6  C   UNL     1       1.210  -2.880   0.909  0.00  0.00    +0.112 C 
ATOM      7  C   UNL     1       0.454  -1.839   1.669  0.00  0.00    -0.031 C 
ATOM      8  C   UNL     1       0.749  -0.417   1.257  0.00  0.00    +0.011 C 
ATOM      9  C   UNL     1      -1.046  -2.100   1.703  0.00  0.00    -0.071 C 
ATOM     10  N   UNL     1      -1.633  -1.843   0.381  0.00  0.00    +0.379 N 
ATOM     11  C   UNL     1      -1.448  -0.445  -0.002  0.00  0.00    -0.073 C 
ATOM     12  C   UNL     1      -3.078  -2.133   0.449  0.00  0.00    -0.096 C 
ATOM     13  C   UNL     1       0.928  -1.957   3.122  0.00  0.00    +0.011 C 
ATOM     14  C   UNL     1       2.737  -3.156  -0.872  0.00  0.00    +0.216 C 
ATOM     15  O   UNL     1       3.419  -3.791  -0.096  0.00  0.00    -0.276 OA
ATOM     16  H   UNL     1      -1.225  -2.463  -0.294  0.00  0.00    -0.082 HD
ENDROOT
BRANCH  14  17
ATOM     17  C   UNL     1       3.203  -2.950  -2.290  0.00  0.00    +0.097 C 
BRANCH  17  18
ATOM     18  C   UNL     1       4.554  -3.639  -2.488  0.00  0.00    +0.025 C 
BRANCH  18  19
ATOM     19  C   UNL     1       5.027  -3.431  -3.928  0.00  0.00    +0.109 C 
ATOM     20 CL   UNL     1       6.620  -4.243  -4.162  0.00  0.00    -0.125 Cl
ENDBRANCH  18  19
ENDBRANCH  17  18
ENDBRANCH  14  17
TORSDOF 3
