REMARK  Name = ZINC13042021
REMARK  6 active torsions:
REMARK  status: ('A' for Active; 'I' for Inactive)
REMARK    1  A    between atoms: C_1  and  O_2
REMARK    2  A    between atoms: O_2  and  C_3
REMARK    3  A    between atoms: C_6  and  S_9
REMARK    4  A    between atoms: S_9  and  N_12
REMARK    5  A    between atoms: N_12  and  N_13
REMARK    6  A    between atoms: C_14  and  C_16
REMARK                            x       y       z     vdW  Elec       q    Type
REMARK                         _______ _______ _______ _____ _____    ______ ____
ROOT
ATOM      1  N   UNL     1       2.257  -2.535  -2.463  0.00  0.00    -0.227 N 
ATOM      2  C   UNL     1       2.955  -3.466  -3.143  0.00  0.00    +0.265 C 
ATOM      3  O   UNL     1       2.683  -4.646  -3.012  0.00  0.00    -0.268 OA
ATOM      4  H   UNL     1       2.473  -1.595  -2.568  0.00  0.00    +0.171 HD
ENDROOT
BRANCH   2   5
ATOM      5  C   UNL     1       4.041  -3.059  -4.039  0.00  0.00    +0.076 A 
ATOM      6  C   UNL     1       4.870  -3.846  -4.819  0.00  0.00    +0.024 A 
ATOM      7  C   UNL     1       5.831  -3.211  -5.597  0.00  0.00    -0.036 A 
ATOM      8  C   UNL     1       5.893  -1.864  -5.503  0.00  0.00    -0.006 A 
ATOM      9  S   UNL     1       4.635  -1.418  -4.417  0.00  0.00    -0.088 S 
ATOM     10  C   UNL     1       6.877  -0.954  -6.203  0.00  0.00    +0.043 C 
ATOM     11  C   UNL     1       6.546  -0.995  -7.705  0.00  0.00    +0.005 C 
ATOM     12  C   UNL     1       7.103  -2.252  -8.330  0.00  0.00    +0.001 C 
ATOM     13  C   UNL     1       6.411  -3.542  -7.974  0.00  0.00    +0.005 C 
ATOM     14  C   UNL     1       6.739  -3.997  -6.551  0.00  0.00    +0.036 C 
ENDBRANCH   2   5
BRANCH   1  15
ATOM     15  N   UNL     1       1.219  -2.924  -1.607  0.00  0.00    -0.108 NA
ATOM     16  H   UNL     1       0.494  -3.475  -1.942  0.00  0.00    +0.172 HD
BRANCH  15  17
ATOM     17  S   UNL     1       1.228  -2.442  -0.022  0.00  0.00    +0.074 S 
ATOM     18  O   UNL     1       2.484  -2.836   0.514  0.00  0.00    -0.152 OA
ATOM     19  O   UNL     1      -0.007  -2.865   0.539  0.00  0.00    -0.152 OA
BRANCH  17  23
ATOM     20  C   UNL     1       1.176   2.086   0.002  0.00  0.00    +0.120 A 
ATOM     21  C   UNL     1      -0.017   1.377   0.010  0.00  0.00    +0.047 A 
ATOM     22  C   UNL     1       0.002  -0.004   0.002  0.00  0.00    +0.032 A 
ATOM     23  C   UNL     1       1.208  -0.680  -0.013  0.00  0.00    +0.107 A 
ATOM     24  C   UNL     1       2.398   0.024  -0.021  0.00  0.00    +0.032 A 
ATOM     25  C   UNL     1       2.385   1.405  -0.013  0.00  0.00    +0.047 A 
BRANCH  20  27
ATOM     26  C   UNL     1       2.426   4.108   0.001  0.00  0.00    +0.277 C 
ATOM     27  O   UNL     1       1.160   3.445   0.009  0.00  0.00    -0.495 OA
ENDBRANCH  20  27
ENDBRANCH  17  23
ENDBRANCH  15  17
ENDBRANCH   1  15
TORSDOF 5
