REMARK  Name = ZINC11880994
REMARK  12 active torsions:
REMARK  status: ('A' for Active; 'I' for Inactive)
REMARK    1  A    between atoms: C_1  and  C_2
REMARK    2  A    between atoms: C_2  and  C_3
REMARK    3  A    between atoms: C_3  and  C_4
REMARK    4  A    between atoms: C_4  and  C_18
REMARK    5  A    between atoms: N_7  and  C_11
REMARK    6  A    between atoms: C_11  and  C_12
REMARK    7  A    between atoms: C_23  and  C_24
REMARK    8  A    between atoms: C_23  and  N_70
REMARK    9  A    between atoms: C_28  and  O_31
REMARK   10  A    between atoms: C_29  and  O_30
REMARK   11  A    between atoms: O_31  and  C_32
REMARK   12  A    between atoms: C_32  and  C_33
REMARK                            x       y       z     vdW  Elec       q    Type
REMARK                         _______ _______ _______ _____ _____    ______ ____
ROOT
ATOM      1  C   UNL     1      -0.727   1.636  -3.746  0.00  0.00    +0.018 C 
ATOM      2  C   UNL     1      -2.178   1.149  -3.780  0.00  0.00    -0.013 C 
ATOM      3  C   UNL     1      -2.844   1.637  -5.069  0.00  0.00    -0.078 C 
ATOM      4  C   UNL     1      -0.724   1.617  -6.242  0.00  0.00    -0.078 C 
ATOM      5  C   UNL     1       0.006   1.127  -4.990  0.00  0.00    -0.013 C 
ATOM      6  N   UNL     1      -2.107   1.092  -6.228  0.00  0.00    +0.382 N 
ATOM      7  H   UNL     1      -2.074   0.069  -6.151  0.00  0.00    -0.081 HD
ENDROOT
BRANCH   1   8
ATOM      8  C   UNL     1      -0.037   1.099  -2.490  0.00  0.00    +0.115 C 
ATOM      9  C   UNL     1       1.424   1.504  -2.466  0.00  0.00    +0.247 C 
ATOM     10  O   UNL     1       1.871   2.630  -2.442  0.00  0.00    -0.273 OA
ATOM     11  N   UNL     1       2.122   0.351  -2.478  0.00  0.00    -0.222 N 
ATOM     12  C   UNL     1       1.313  -0.715  -2.506  0.00  0.00    +0.309 C 
ATOM     13  O   UNL     1       1.710  -1.863  -2.522  0.00  0.00    -0.252 OA
ATOM     14  N   UNL     1       0.012  -0.373  -2.515  0.00  0.00    -0.285 N 
ATOM     15  H   UNL     1      -0.746  -0.978  -2.534  0.00  0.00    +0.151 HD
BRANCH   8  16
ATOM     16  C   UNL     1      -0.753   1.593  -1.232  0.00  0.00    +0.035 C 
BRANCH  16  18
ATOM     17  C   UNL     1      -0.729   1.579   1.267  0.00  0.00    +0.004 C 
ATOM     18  C   UNL     1      -0.013   1.086   0.008  0.00  0.00    -0.001 C 
ENDBRANCH  16  18
ENDBRANCH   8  16
BRANCH  11  19
ATOM     19  C   UNL     1       3.585   0.274  -2.463  0.00  0.00    +0.149 C 
BRANCH  19  20
ATOM     20  C   UNL     1       4.110   0.272  -3.900  0.00  0.00    +0.136 C 
ATOM     21  C   UNL     1       5.652   0.120  -3.909  0.00  0.00    +0.035 C 
ATOM     22  C   UNL     1       5.880  -0.492  -5.318  0.00  0.00    +0.031 C 
ATOM     23  C   UNL     1       4.622  -1.369  -5.501  0.00  0.00    +0.160 C 
ATOM     24  O   UNL     1       3.616  -0.874  -4.610  0.00  0.00    -0.375 OA
ENDBRANCH  19  20
ENDBRANCH  11  19
ENDBRANCH   1   8
BRANCH   6  25
ATOM     25  C   UNL     1      -2.798   1.457  -7.482  0.00  0.00    -0.039 C 
BRANCH  25  26
ATOM     26  C   UNL     1      -4.117   0.731  -7.538  0.00  0.00    -0.019 A 
ATOM     27  C   UNL     1      -4.239  -0.425  -8.286  0.00  0.00    +0.005 A 
ATOM     28  C   UNL     1      -5.446  -1.097  -8.335  0.00  0.00    +0.004 A 
ATOM     29  C   UNL     1      -6.540  -0.609  -7.644  0.00  0.00    +0.049 A 
ATOM     30  C   UNL     1      -6.427   0.552  -6.898  0.00  0.00    +0.162 A 
ATOM     31  C   UNL     1      -5.209   1.226  -6.844  0.00  0.00    +0.160 A 
BRANCH  31  32
ATOM     32  O   UNL     1      -5.093   2.366  -6.113  0.00  0.00    -0.503 OA
ATOM     33  H   UNL     1      -5.292   3.173  -6.608  0.00  0.00    +0.292 HD
ENDBRANCH  31  32
BRANCH  30  34
ATOM     34  O   UNL     1      -7.502   1.034  -6.219  0.00  0.00    -0.489 OA
BRANCH  34  35
ATOM     35  C   UNL     1      -8.719   0.291  -6.319  0.00  0.00    +0.226 C 
ATOM     36  C   UNL     1      -9.807   0.982  -5.495  0.00  0.00    +0.048 C 
ENDBRANCH  34  35
ENDBRANCH  30  34
ENDBRANCH  25  26
ENDBRANCH   6  25
TORSDOF 10
