REMARK  Name = ZINC24907641
REMARK  12 active torsions:
REMARK  status: ('A' for Active; 'I' for Inactive)
REMARK    1  A    between atoms: C_1  and  C_2
REMARK    2  A    between atoms: C_2  and  C_3
REMARK    3  A    between atoms: C_4  and  C_35
REMARK    4  A    between atoms: N_10  and  C_27
REMARK    5  A    between atoms: C_11  and  S_13
REMARK    6  A    between atoms: S_13  and  C_14
REMARK    7  A    between atoms: C_14  and  C_16
REMARK    8  A    between atoms: C_14  and  C_17
REMARK    9  A    between atoms: N_23  and  C_24
REMARK   10  A    between atoms: N_23  and  C_25
REMARK   11  A    between atoms: C_30  and  C_34
REMARK   12  A    between atoms: C_31  and  C_33
REMARK                            x       y       z     vdW  Elec       q    Type
REMARK                         _______ _______ _______ _____ _____    ______ ____
ROOT
ATOM      1  C   UNL     1       3.305   2.296   0.944  0.00  0.00    -0.023 A 
ATOM      2  C   UNL     1       3.104   3.618   0.852  0.00  0.00    -0.007 A 
ATOM      3  S   UNL     1       1.483   3.740   0.120  0.00  0.00    -0.073 S 
ATOM      4  C   UNL     1       1.123   2.010  -0.041  0.00  0.00    +0.117 A 
ATOM      5  C   UNL     1       2.273   1.386   0.478  0.00  0.00    +0.076 A 
ATOM      6  C   UNL     1       2.261  -0.044   0.473  0.00  0.00    +0.268 A 
ATOM      7  O   UNL     1       3.214  -0.670   0.903  0.00  0.00    -0.267 OA
ATOM      8  N   UNL     1       1.185  -0.689  -0.013  0.00  0.00    -0.255 N 
ATOM      9  C   UNL     1       0.107  -0.003  -0.499  0.00  0.00    +0.178 A 
ATOM     10  N   UNL     1       0.092   1.315  -0.506  0.00  0.00    -0.215 NA
ATOM     11  C   UNL     1       4.027   4.735   1.268  0.00  0.00    +0.052 C 
ENDROOT
BRANCH   8  12
ATOM     12  C   UNL     1       1.168  -2.090  -0.020  0.00  0.00    +0.052 A 
ATOM     13  C   UNL     1       0.668  -2.785   1.073  0.00  0.00    +0.026 A 
ATOM     14  C   UNL     1       0.647  -4.166   1.061  0.00  0.00    +0.005 A 
ATOM     15  C   UNL     1       1.135  -4.857  -0.034  0.00  0.00    -0.047 A 
ATOM     16  C   UNL     1       1.639  -4.167  -1.121  0.00  0.00    -0.046 A 
ATOM     17  C   UNL     1       1.657  -2.786  -1.117  0.00  0.00    +0.030 A 
ATOM     18  C   UNL     1       2.169  -4.924  -2.312  0.00  0.00    +0.044 C 
ATOM     19  C   UNL     1       1.117  -6.363  -0.041  0.00  0.00    +0.044 C 
ENDBRANCH   8  12
BRANCH   1  21
ATOM     20  C   UNL     1       5.617   1.577   0.406  0.00  0.00    +0.009 C 
ATOM     21  C   UNL     1       4.589   1.759   1.524  0.00  0.00    +0.033 C 
ENDBRANCH   1  21
BRANCH   9  22
ATOM     22  S   UNL     1      -1.279  -0.892  -1.126  0.00  0.00    -0.076 S 
BRANCH  22  23
ATOM     23  C   UNL     1      -2.346   0.489  -1.608  0.00  0.00    +0.119 C 
ATOM     24  C   UNL     1      -2.761   1.272  -0.361  0.00  0.00    +0.028 C 
BRANCH  23  25
ATOM     25  C   UNL     1      -3.575  -0.043  -2.299  0.00  0.00    +0.149 A 
ATOM     26  N   UNL     1      -4.221  -1.078  -1.790  0.00  0.00    -0.198 NA
ATOM     27  C   UNL     1      -5.306  -1.551  -2.398  0.00  0.00    +0.217 A 
ATOM     28  N   UNL     1      -5.741  -0.981  -3.517  0.00  0.00    -0.181 NA
ATOM     29  C   UNL     1      -5.089   0.059  -4.025  0.00  0.00    +0.222 A 
ATOM     30  N   UNL     1      -4.006   0.529  -3.409  0.00  0.00    -0.198 NA
ATOM     31  N   UNL     1      -5.536   0.654  -5.186  0.00  0.00    -0.306 N 
ATOM     32  C   UNL     1      -6.731   0.140  -5.860  0.00  0.00    +0.132 C 
ATOM     33  C   UNL     1      -4.817   1.801  -5.746  0.00  0.00    +0.132 C 
ATOM     34  N   UNL     1      -5.980  -2.632  -1.866  0.00  0.00    -0.327 N 
ATOM     35  H   UNL     1      -6.877  -3.022  -2.369  0.00  0.00    +0.145 HD
ATOM     36  H   UNL     1      -5.620  -3.103  -0.940  0.00  0.00    +0.145 HD
ENDBRANCH  23  25
ENDBRANCH  22  23
ENDBRANCH   9  22
TORSDOF 5
