REMARK  Name = ZINC16609397
REMARK  7 active torsions:
REMARK  status: ('A' for Active; 'I' for Inactive)
REMARK    1  A    between atoms: C_1  and  C_2
REMARK    2  A    between atoms: C_9  and  N_13
REMARK    3  A    between atoms: C_10  and  C_11
REMARK    4  A    between atoms: N_13  and  C_14
REMARK    5  A    between atoms: C_14  and  N_16
REMARK    6  A    between atoms: C_17  and  C_19
REMARK    7  A    between atoms: C_22  and  C_24
REMARK                            x       y       z     vdW  Elec       q    Type
REMARK                         _______ _______ _______ _____ _____    ______ ____
ROOT
ATOM      1  C   UNL     1       2.229  -6.108  -3.022  0.00  0.00    +0.142 C 
ATOM      2  S   UNL     1       2.190  -4.850  -4.183  0.00  0.00    -0.018 S 
ENDROOT
BRANCH   1   3
ATOM      3  N   UNL     1       2.557  -7.360  -3.397  0.00  0.00    -0.261 N 
ATOM      4  C   UNL     1       2.855  -7.622  -4.685  0.00  0.00    +0.285 C 
ATOM      5  O   UNL     1       2.827  -6.728  -5.510  0.00  0.00    -0.266 OA
ATOM      6  H   UNL     1       2.579  -8.073  -2.739  0.00  0.00    +0.157 HD
BRANCH   4   7
ATOM      7  C   UNL     1       3.212  -8.983  -5.092  0.00  0.00    +0.190 A 
ATOM      8  C   UNL     1       3.537  -9.387  -6.369  0.00  0.00    +0.055 A 
ATOM      9  C   UNL     1       3.807 -10.757  -6.302  0.00  0.00    +0.050 A 
ATOM     10  C   UNL     1       3.639 -11.136  -5.001  0.00  0.00    +0.136 A 
ATOM     11  O   UNL     1       3.286 -10.059  -4.280  0.00  0.00    -0.450 OA
BRANCH  10  12
ATOM     12  C   UNL     1       3.820 -12.504  -4.473  0.00  0.00    +0.017 A 
ATOM     13  C   UNL     1       4.191 -13.543  -5.329  0.00  0.00    +0.012 A 
ATOM     14  C   UNL     1       4.364 -14.816  -4.828  0.00  0.00    +0.016 A 
ATOM     15  C   UNL     1       4.161 -15.067  -3.482  0.00  0.00    +0.018 A 
ATOM     16  C   UNL     1       3.789 -14.043  -2.629  0.00  0.00    +0.016 A 
ATOM     17  C   UNL     1       3.617 -12.764  -3.116  0.00  0.00    +0.012 A 
ATOM     18 BR   UNL     1       4.394 -16.818  -2.805  0.00  0.00    -0.050 Br
ENDBRANCH  10  12
ENDBRANCH   4   7
ENDBRANCH   1   3
BRANCH   1  19
ATOM     19  N   UNL     1       1.931  -5.846  -1.734  0.00  0.00    -0.290 N 
ATOM     20  H   UNL     1       1.953  -6.559  -1.077  0.00  0.00    +0.154 HD
BRANCH  19  28
ATOM     21  C   UNL     1      -0.019   1.526   0.010  0.00  0.00    +0.008 C 
ATOM     22  C   UNL     1       0.002  -0.004   0.002  0.00  0.00    -0.009 C 
ATOM     23  C   UNL     1       0.742  -0.514   1.242  0.00  0.00    +0.008 C 
ATOM     24  C   UNL     1       0.556  -2.027   1.373  0.00  0.00    +0.037 C 
ATOM     25  C   UNL     1       0.941  -2.684   0.053  0.00  0.00    -0.018 A 
ATOM     26  C   UNL     1       1.008  -1.965  -1.089  0.00  0.00    -0.004 A 
ATOM     27  S   UNL     1       1.485  -3.134  -2.331  0.00  0.00    -0.077 S 
ATOM     28  C   UNL     1       1.593  -4.557  -1.349  0.00  0.00    +0.089 A 
ATOM     29  C   UNL     1       1.258  -4.095  -0.085  0.00  0.00    +0.084 A 
ATOM     30  C   UNL     1       0.736  -0.502  -1.252  0.00  0.00    +0.046 C 
BRANCH  29  31
ATOM     31  C   UNL     1       1.226  -4.977   1.043  0.00  0.00    +0.102 C 
ATOM     32  N   UNL     1       1.201  -5.677   1.938  0.00  0.00    -0.191 NA
ENDBRANCH  29  31
ENDBRANCH  19  28
ENDBRANCH   1  19
TORSDOF 6
