REMARK  Name = ZINC36233257
REMARK  2 active torsions:
REMARK  status: ('A' for Active; 'I' for Inactive)
REMARK    1  A    between atoms: C_4  and  S_8
REMARK    2  A    between atoms: S_8  and  N_11
REMARK                            x       y       z     vdW  Elec       q    Type
REMARK                         _______ _______ _______ _____ _____    ______ ____
ROOT
ATOM      1  N   UNL     1       4.673  -0.480  -1.481  0.00  0.00    -0.103 NA
ATOM      2  C   UNL     1       5.845  -0.996  -1.758  0.00  0.00    +0.192 A 
ATOM      3  N   UNL     1       6.627  -0.832  -2.878  0.00  0.00    -0.336 N 
ATOM      4  C   UNL     1       7.840  -1.476  -2.961  0.00  0.00    +0.024 A 
ATOM      5  C   UNL     1       8.205  -2.247  -1.927  0.00  0.00    -0.005 A 
ATOM      6  S   UNL     1       6.862  -2.094  -0.781  0.00  0.00    -0.055 S 
ATOM      7  C   UNL     1       9.464  -3.041  -1.794  0.00  0.00    -0.038 C 
ATOM      8  N   UNL     1      10.090  -3.151  -3.124  0.00  0.00    +0.382 N 
ATOM      9  C   UNL     1      10.168  -1.817  -3.734  0.00  0.00    -0.076 C 
ATOM     10  C   UNL     1       8.775  -1.350  -4.163  0.00  0.00    +0.035 C 
ATOM     11  H   UNL     1      11.019  -3.533  -3.029  0.00  0.00    -0.085 HD
ATOM     12  H   UNL     1       6.325  -0.265  -3.606  0.00  0.00    +0.168 HD
ATOM     13  H   UNL     1       9.534  -3.757  -3.709  0.00  0.00    -0.085 HD
ENDROOT
BRANCH   1  14
ATOM     14  S   UNL     1       3.934  -0.832  -0.041  0.00  0.00    +0.102 S 
ATOM     15  O   UNL     1       4.737  -0.254   0.979  0.00  0.00    -0.146 OA
ATOM     16  O   UNL     1       3.624  -2.219  -0.072  0.00  0.00    -0.146 OA
BRANCH  14  20
ATOM     17  C   UNL     1      -0.017   1.379   0.010  0.00  0.00    +0.016 A 
ATOM     18  C   UNL     1       1.171   2.086   0.002  0.00  0.00    +0.018 A 
ATOM     19  C   UNL     1       2.378   1.411  -0.013  0.00  0.00    +0.045 A 
ATOM     20  C   UNL     1       2.397   0.028  -0.021  0.00  0.00    +0.127 A 
ATOM     21  C   UNL     1       1.210  -0.679  -0.013  0.00  0.00    +0.045 A 
ATOM     22  C   UNL     1       0.002  -0.004   0.002  0.00  0.00    +0.020 A 
ATOM     23 BR   UNL     1      -1.623  -0.972   0.013  0.00  0.00    -0.050 Br
ATOM     24 BR   UNL     1       4.002   2.379  -0.024  0.00  0.00    -0.048 Br
ENDBRANCH  14  20
ENDBRANCH   1  14
TORSDOF 2
