REMARK  Name = ZINC40090488
REMARK  5 active torsions:
REMARK  status: ('A' for Active; 'I' for Inactive)
REMARK    1  A    between atoms: C_1  and  C_2
REMARK    2  A    between atoms: C_2  and  C_3
REMARK    3  A    between atoms: C_2  and  C_4
REMARK    4  A    between atoms: C_14  and  C_16
REMARK    5  A    between atoms: C_16  and  N_17
REMARK                            x       y       z     vdW  Elec       q    Type
REMARK                         _______ _______ _______ _____ _____    ______ ____
ROOT
ATOM      1  C   UNL     1      -1.437  -0.458  -0.006  0.00  0.00    -0.044 A 
ATOM      2  C   UNL     1      -2.286  -0.143   1.039  0.00  0.00    +0.006 A 
ATOM      3  C   UNL     1      -3.573  -0.643   1.055  0.00  0.00    +0.024 A 
ATOM      4  C   UNL     1      -4.014  -1.461   0.021  0.00  0.00    +0.039 A 
ATOM      5  C   UNL     1      -3.164  -1.773  -1.028  0.00  0.00    -0.026 A 
ATOM      6  C   UNL     1      -1.876  -1.265  -1.038  0.00  0.00    +0.009 A 
ATOM      7  C   UNL     1      -3.612  -2.647  -2.169  0.00  0.00    +0.038 C 
ATOM      8  C   UNL     1      -4.818  -3.490  -1.758  0.00  0.00    +0.024 C 
ATOM      9  C   UNL     1      -5.886  -2.568  -1.155  0.00  0.00    +0.114 C 
ATOM     10  N   UNL     1      -5.323  -1.962   0.059  0.00  0.00    -0.270 N 
ATOM     11  C   UNL     1      -6.052  -1.890   1.190  0.00  0.00    +0.238 C 
ATOM     12  O   UNL     1      -5.542  -1.490   2.216  0.00  0.00    -0.274 OA
ENDROOT
BRANCH   1  14
ATOM     13  C   UNL     1      -0.077   1.615  -0.023  0.00  0.00    +0.012 C 
ATOM     14  C   UNL     1      -0.032   0.086  -0.023  0.00  0.00    +0.013 C 
ATOM     15  C   UNL     1       0.719  -0.402   1.217  0.00  0.00    +0.012 C 
ENDBRANCH   1  14
BRANCH  11  16
ATOM     16  C   UNL     1      -7.500  -2.306   1.181  0.00  0.00    +0.212 C 
BRANCH  16  17
ATOM     17  N   UNL     1      -8.100  -2.017   2.486  0.00  0.00    -0.233 N 
ATOM     18  C   UNL     1      -8.111  -2.906   3.535  0.00  0.00    +0.227 C 
ATOM     19  O   UNL     1      -7.421  -3.893   3.678  0.00  0.00    -0.275 OA
ATOM     20  C   UNL     1      -9.168  -2.381   4.465  0.00  0.00    +0.095 C 
ATOM     21  C   UNL     1      -9.013  -2.416   5.990  0.00  0.00    +0.025 C 
ATOM     22  C   UNL     1     -10.049  -1.233   6.266  0.00  0.00    +0.016 C 
ATOM     23  C   UNL     1      -9.171  -0.161   5.499  0.00  0.00    +0.025 C 
ATOM     24  C   UNL     1      -8.747  -0.871   4.239  0.00  0.00    +0.095 C 
ATOM     25  C   UNL     1      -8.714  -0.816   2.803  0.00  0.00    +0.227 C 
ATOM     26  O   UNL     1      -9.119   0.054   2.063  0.00  0.00    -0.275 OA
ATOM     27  C   UNL     1      -7.857  -0.390   6.311  0.00  0.00    -0.027 C 
ATOM     28  C   UNL     1      -7.764  -1.715   6.489  0.00  0.00    -0.027 C 
ENDBRANCH  16  17
ENDBRANCH  11  16
TORSDOF 3
