REMARK  Name = ZINC66815997
REMARK  4 active torsions:
REMARK  status: ('A' for Active; 'I' for Inactive)
REMARK    1  A    between atoms: C_3  and  N_14
REMARK    2  A    between atoms: C_4  and  C_10
REMARK    3  A    between atoms: C_6  and  N_7
REMARK    4  A    between atoms: C_24  and  N_26
REMARK                            x       y       z     vdW  Elec       q    Type
REMARK                         _______ _______ _______ _____ _____    ______ ____
ROOT
ATOM      1  N   UNL     1       3.574   2.138   0.202  0.00  0.00    -0.326 N 
ATOM      2  C   UNL     1       4.322   2.329  -1.049  0.00  0.00    +0.124 C 
ATOM      3  C   UNL     1       4.548   3.831  -1.260  0.00  0.00    +0.125 C 
ATOM      4  N   UNL     1       5.086   4.404  -0.019  0.00  0.00    -0.311 N 
ATOM      5  C   UNL     1       4.338   4.214   1.232  0.00  0.00    +0.125 C 
ATOM      6  C   UNL     1       4.109   2.716   1.442  0.00  0.00    +0.124 C 
ATOM      7  C   UNL     1       6.281   5.114  -0.027  0.00  0.00    +0.142 A 
ATOM      8  C   UNL     1       6.866   5.481  -1.236  0.00  0.00    +0.154 A 
ATOM      9  N   UNL     1       8.001   6.154  -1.244  0.00  0.00    -0.256 NA
ATOM     10  C   UNL     1       8.586   6.484  -0.107  0.00  0.00    +0.154 A 
ATOM     11  C   UNL     1       8.008   6.121   1.105  0.00  0.00    +0.137 A 
ATOM     12  N   UNL     1       6.863   5.448   1.118  0.00  0.00    -0.215 NA
ENDROOT
BRANCH   1  15
ATOM     13  C   UNL     1      -0.016   1.377   0.009  0.00  0.00    +0.034 A 
ATOM     14  C   UNL     1       1.170   2.086   0.001  0.00  0.00    +0.026 A 
ATOM     15  C   UNL     1       2.373   1.425   0.210  0.00  0.00    +0.042 A 
ATOM     16  C   UNL     1       2.380   0.052   0.426  0.00  0.00    +0.078 A 
ATOM     17  C   UNL     1       1.191  -0.650   0.433  0.00  0.00    +0.047 A 
ATOM     18  C   UNL     1      -0.006   0.012   0.225  0.00  0.00    +0.127 A 
BRANCH  16  19
ATOM     19  C   UNL     1       3.683  -0.669   0.653  0.00  0.00    +0.419 C 
ATOM     20  F   UNL     1       3.434  -2.032   0.846  0.00  0.00    -0.166 F 
ATOM     21  F   UNL     1       4.510  -0.499  -0.462  0.00  0.00    -0.166 F 
ATOM     22  F   UNL     1       4.315  -0.145   1.786  0.00  0.00    -0.166 F 
ENDBRANCH  16  19
BRANCH  18  23
ATOM     23  N   UNL     1      -1.278  -0.744   0.233  0.00  0.00    +0.056 N 
ATOM     24  O   UNL     1      -2.325  -0.167   0.051  0.00  0.00    -0.126 OA
ATOM     25  O   UNL     1      -1.271  -1.938   0.422  0.00  0.00    -0.126 OA
ENDBRANCH  18  23
ENDBRANCH   1  15
BRANCH  11  26
ATOM     26  N   UNL     1       8.624   6.468   2.302  0.00  0.00    -0.342 N 
ATOM     27  H   UNL     1       9.459   6.962   2.292  0.00  0.00    +0.144 HD
ATOM     28  H   UNL     1       8.220   6.215   3.147  0.00  0.00    +0.144 HD
ENDBRANCH  11  26
TORSDOF 4
