REMARK  Name = ZINC49754315
REMARK  9 active torsions:
REMARK  status: ('A' for Active; 'I' for Inactive)
REMARK    1  A    between atoms: C_1  and  C_2
REMARK    2  A    between atoms: C_2  and  C_24
REMARK    3  A    between atoms: C_4  and  N_10
REMARK    4  A    between atoms: C_6  and  C_8
REMARK    5  A    between atoms: C_6  and  C_9
REMARK    6  A    between atoms: C_11  and  C_13
REMARK    7  A    between atoms: N_18  and  C_20
REMARK    8  A    between atoms: C_20  and  C_21
REMARK    9  A    between atoms: C_21  and  C_22
REMARK                            x       y       z     vdW  Elec       q    Type
REMARK                         _______ _______ _______ _____ _____    ______ ____
ROOT
ATOM      1  N   UNL     1       2.615  -0.819  -2.626  0.00  0.00    -0.312 N 
ATOM      2  C   UNL     1       3.770  -0.334  -3.123  0.00  0.00    +0.215 C 
ATOM      3  O   UNL     1       4.374   0.530  -2.523  0.00  0.00    -0.276 OA
ATOM      4  H   UNL     1       2.133  -1.510  -3.106  0.00  0.00    +0.149 HD
ENDROOT
BRANCH   1   8
ATOM      5  C   UNL     1      -0.019   1.528   0.010  0.00  0.00    -0.010 C 
ATOM      6  C   UNL     1       0.002  -0.004   0.002  0.00  0.00    -0.072 C 
ATOM      7  C   UNL     1       0.573  -0.505  -1.321  0.00  0.00    +0.009 C 
ATOM      8  C   UNL     1       2.088  -0.301  -1.357  0.00  0.00    +0.070 C 
ATOM      9  C   UNL     1       2.703  -1.086  -0.198  0.00  0.00    +0.009 C 
ATOM     10  C   UNL     1       2.147  -0.590   1.133  0.00  0.00    -0.072 C 
ATOM     11  N   UNL     1       0.697  -0.529   1.164  0.00  0.00    +0.386 N 
ATOM     12  C   UNL     1       2.769   0.766   1.481  0.00  0.00    -0.010 C 
ATOM     13  C   UNL     1       2.600  -1.589   2.223  0.00  0.00    -0.010 C 
ATOM     14  C   UNL     1      -1.468  -0.478   0.079  0.00  0.00    -0.010 C 
ATOM     15  H   UNL     1       0.416   0.021   1.982  0.00  0.00    -0.084 HD
ATOM     16  H   UNL     1       0.341  -1.472   1.351  0.00  0.00    -0.084 HD
ENDBRANCH   1   8
BRANCH   2  17
ATOM     17  C   UNL     1       4.312  -0.866  -4.426  0.00  0.00    +0.058 C 
ATOM     18  C   UNL     1       3.295  -0.613  -5.543  0.00  0.00    +0.009 C 
ATOM     19  C   UNL     1       3.887  -1.086  -6.874  0.00  0.00    -0.018 C 
ATOM     20  C   UNL     1       5.213  -0.363  -7.122  0.00  0.00    -0.079 C 
ATOM     21  N   UNL     1       6.150  -0.665  -6.034  0.00  0.00    +0.381 N 
ATOM     22  C   UNL     1       5.622  -0.152  -4.764  0.00  0.00    -0.066 C 
ATOM     23  H   UNL     1       6.274  -1.664  -5.965  0.00  0.00    -0.082 HD
BRANCH  21  24
ATOM     24  C   UNL     1       7.445  -0.032  -6.315  0.00  0.00    -0.064 C 
BRANCH  24  25
ATOM     25  C   UNL     1       8.060  -0.663  -7.566  0.00  0.00    +0.100 C 
BRANCH  25  26
ATOM     26  C   UNL     1       9.358  -0.029  -7.848  0.00  0.00    +0.061 C 
ATOM     27  N   UNL     1      10.360   0.460  -8.066  0.00  0.00    -0.197 NA
ENDBRANCH  25  26
ENDBRANCH  24  25
ENDBRANCH  21  24
ENDBRANCH   2  17
TORSDOF 5
