REMARK  Name = ZINC45071575
REMARK  5 active torsions:
REMARK  status: ('A' for Active; 'I' for Inactive)
REMARK    1  A    between atoms: C_1  and  C_2
REMARK    2  A    between atoms: C_2  and  C_12
REMARK    3  A    between atoms: C_6  and  C_7
REMARK    4  A    between atoms: C_7  and  C_9
REMARK    5  A    between atoms: C_7  and  O_11
REMARK                            x       y       z     vdW  Elec       q    Type
REMARK                         _______ _______ _______ _____ _____    ______ ____
ROOT
ATOM      1  C   UNL     1      -0.019   1.526   0.010  0.00  0.00    +0.015 C 
ATOM      2  C   UNL     1       0.002  -0.004   0.002  0.00  0.00    -0.011 C 
ATOM      3  C   UNL     1      -1.434  -0.563   0.131  0.00  0.00    +0.015 C 
ATOM      4  C   UNL     1      -1.540  -0.783   1.658  0.00  0.00    +0.028 C 
ATOM      5  C   UNL     1      -0.112  -0.952   2.122  0.00  0.00    -0.024 C 
ATOM      6  C   UNL     1       0.729  -0.527   1.219  0.00  0.00    -0.036 C 
ATOM      7  C   UNL     1       0.664  -0.520  -1.277  0.00  0.00    +0.015 C 
ENDROOT
BRANCH   6   8
ATOM      8  C   UNL     1       2.228  -0.556   1.370  0.00  0.00    +0.163 C 
BRANCH   8   9
ATOM      9  C   UNL     1       2.818  -1.496   0.351  0.00  0.00    +0.001 C 
ATOM     10  C   UNL     1       3.745  -1.073  -0.472  0.00  0.00    +0.007 C 
ENDBRANCH   8   9
BRANCH   8  11
ATOM     11  O   UNL     1       2.752   0.758   1.165  0.00  0.00    -0.383 OA
ATOM     12  H   UNL     1       2.560   1.126   0.291  0.00  0.00    +0.211 HD
ENDBRANCH   8  11
ENDBRANCH   6   8
TORSDOF 3
