REMARK  Name = ZINC12250113
REMARK  12 active torsions:
REMARK  status: ('A' for Active; 'I' for Inactive)
REMARK    1  A    between atoms: C_1  and  C_2
REMARK    2  A    between atoms: C_2  and  C_3
REMARK    3  A    between atoms: C_8  and  N_9
REMARK    4  A    between atoms: C_10  and  C_12
REMARK    5  A    between atoms: C_12  and  S_13
REMARK    6  A    between atoms: S_13  and  C_14
REMARK    7  A    between atoms: C_15  and  C_33
REMARK    8  A    between atoms: C_16  and  C_26
REMARK    9  A    between atoms: C_17  and  C_21
REMARK   10  A    between atoms: C_21  and  O_23
REMARK   11  A    between atoms: O_23  and  C_24
REMARK   12  A    between atoms: C_24  and  C_25
REMARK                            x       y       z     vdW  Elec       q    Type
REMARK                         _______ _______ _______ _____ _____    ______ ____
ROOT
ATOM      1  C   UNL     1      -5.828  -0.438   5.247  0.00  0.00    +0.115 C 
ATOM      2  C   UNL     1      -6.625  -0.642   6.353  0.00  0.00    +0.070 C 
ATOM      3  C   UNL     1      -8.111  -0.399   6.253  0.00  0.00    +0.088 C 
ATOM      4  C   UNL     1      -8.362   0.751   5.275  0.00  0.00    +0.200 C 
ATOM      5  C   UNL     1      -7.540   0.544   4.031  0.00  0.00    +0.262 C 
ATOM      6  O   UNL     1      -8.037   0.926   2.840  0.00  0.00    -0.270 OA
ATOM      7  N   UNL     1      -6.359   0.010   4.086  0.00  0.00    -0.205 NA
ENDROOT
BRANCH   3   8
ATOM      8  C   UNL     1      -8.794  -1.645   5.753  0.00  0.00    -0.003 A 
ATOM      9  C   UNL     1      -8.454  -2.172   4.521  0.00  0.00    +0.007 A 
ATOM     10  C   UNL     1      -9.081  -3.315   4.061  0.00  0.00    +0.000 A 
ATOM     11  C   UNL     1     -10.046  -3.934   4.833  0.00  0.00    +0.003 A 
ATOM     12  C   UNL     1     -10.387  -3.409   6.065  0.00  0.00    +0.038 A 
ATOM     13  C   UNL     1      -9.757  -2.267   6.529  0.00  0.00    +0.127 A 
ATOM     14  F   UNL     1     -10.085  -1.756   7.736  0.00  0.00    -0.205 F 
ENDBRANCH   3   8
BRANCH   4  15
ATOM     15  C   UNL     1      -9.824   0.789   4.910  0.00  0.00    +0.320 C 
ATOM     16  O   UNL     1     -10.586  -0.020   5.383  0.00  0.00    -0.250 OA
BRANCH  15  17
ATOM     17  O   UNL     1     -10.279   1.722   4.059  0.00  0.00    -0.464 OA
BRANCH  17  18
ATOM     18  C   UNL     1     -11.676   1.699   3.757  0.00  0.00    +0.229 C 
ATOM     19  C   UNL     1     -12.005   2.828   2.778  0.00  0.00    +0.048 C 
ENDBRANCH  17  18
ENDBRANCH  15  17
ENDBRANCH   4  15
BRANCH   2  20
ATOM     20  C   UNL     1      -6.047  -1.082   7.588  0.00  0.00    +0.098 C 
ATOM     21  N   UNL     1      -5.589  -1.431   8.567  0.00  0.00    -0.191 NA
ENDBRANCH   2  20
BRANCH   1  22
ATOM     22  S   UNL     1      -4.098  -0.756   5.349  0.00  0.00    -0.095 S 
BRANCH  22  23
ATOM     23  C   UNL     1      -3.478  -0.347   3.694  0.00  0.00    +0.172 C 
BRANCH  23  25
ATOM     24  N   UNL     1      -1.309  -0.339   2.505  0.00  0.00    -0.285 N 
ATOM     25  C   UNL     1      -1.990  -0.578   3.643  0.00  0.00    +0.227 C 
ATOM     26  O   UNL     1      -1.405  -0.980   4.627  0.00  0.00    -0.275 OA
ATOM     27  H   UNL     1      -1.764   0.044   1.739  0.00  0.00    +0.155 HD
BRANCH  24  33
ATOM     28  C   UNL     1       0.600  -1.100   1.236  0.00  0.00    -0.026 A 
ATOM     29  C   UNL     1       1.948  -1.393   1.163  0.00  0.00    +0.005 A 
ATOM     30  C   UNL     1       2.753  -1.237   2.276  0.00  0.00    +0.000 A 
ATOM     31  C   UNL     1       2.212  -0.786   3.466  0.00  0.00    +0.002 A 
ATOM     32  C   UNL     1       0.865  -0.491   3.546  0.00  0.00    +0.023 A 
ATOM     33  C   UNL     1       0.055  -0.642   2.429  0.00  0.00    +0.037 A 
BRANCH  28  35
ATOM     34  C   UNL     1      -0.393   0.066  -0.714  0.00  0.00    +0.009 C 
ATOM     35  C   UNL     1      -0.277  -1.270   0.022  0.00  0.00    +0.033 C 
ENDBRANCH  28  35
ENDBRANCH  24  33
ENDBRANCH  23  25
ENDBRANCH  22  23
ENDBRANCH   1  22
TORSDOF 10
