REMARK  Name = ZINC14957950
REMARK  14 active torsions:
REMARK  status: ('A' for Active; 'I' for Inactive)
REMARK    1  A    between atoms: C_1  and  C_2
REMARK    2  A    between atoms: C_3  and  C_31
REMARK    3  A    between atoms: C_4  and  O_30
REMARK    4  A    between atoms: C_5  and  C_10
REMARK    5  A    between atoms: C_6  and  O_9
REMARK    6  A    between atoms: C_10  and  C_11
REMARK    7  A    between atoms: C_12  and  C_13
REMARK    8  A    between atoms: C_12  and  C_14
REMARK    9  A    between atoms: C_14  and  C_16
REMARK   10  A    between atoms: C_14  and  O_29
REMARK   11  A    between atoms: C_16  and  C_17
REMARK   12  A    between atoms: C_17  and  C_28
REMARK   13  A    between atoms: C_18  and  C_27
REMARK   14  A    between atoms: C_24  and  C_26
REMARK                            x       y       z     vdW  Elec       q    Type
REMARK                         _______ _______ _______ _____ _____    ______ ____
ROOT
ATOM      1  C   UNL     1      -0.057   1.623   2.498  0.00  0.00    -0.021 C 
ATOM      2  C   UNL     1      -0.736   1.534   1.382  0.00  0.00    -0.048 C 
ATOM      3  C   UNL     1      -0.048   1.099   0.113  0.00  0.00    +0.041 C 
ENDROOT
BRANCH   1   4
ATOM      4  C   UNL     1       1.436   1.417   2.490  0.00  0.00    +0.069 C 
BRANCH   4   9
ATOM      5  C   UNL     1       4.033   6.011   4.894  0.00  0.00    +0.046 C 
ATOM      6  C   UNL     1       3.358   4.815   4.274  0.00  0.00    -0.015 A 
ATOM      7  C   UNL     1       2.982   3.728   5.076  0.00  0.00    +0.060 A 
ATOM      8  C   UNL     1       2.352   2.615   4.490  0.00  0.00    +0.134 A 
ATOM      9  C   UNL     1       2.110   2.605   3.127  0.00  0.00    +0.041 A 
ATOM     10  C   UNL     1       2.494   3.686   2.347  0.00  0.00    +0.142 A 
ATOM     11  C   UNL     1       3.113   4.790   2.931  0.00  0.00    +0.086 A 
ATOM     12 CL   UNL     1       3.581   6.139   1.943  0.00  0.00    -0.079 Cl
BRANCH  10  13
ATOM     13  O   UNL     1       2.262   3.670   1.011  0.00  0.00    -0.505 OA
ATOM     14  H   UNL     1       1.406   4.042   0.756  0.00  0.00    +0.292 HD
ENDBRANCH  10  13
BRANCH   8  15
ATOM     15  O   UNL     1       1.984   1.559   5.257  0.00  0.00    -0.506 OA
ATOM     16  H   UNL     1       2.666   0.878   5.342  0.00  0.00    +0.292 HD
ENDBRANCH   8  15
BRANCH   7  17
ATOM     17  C   UNL     1       3.244   3.752   6.517  0.00  0.00    +0.262 C 
ATOM     18  O   UNL     1       2.831   2.856   7.223  0.00  0.00    -0.296 OA
ENDBRANCH   7  17
ENDBRANCH   4   9
ENDBRANCH   1   4
BRANCH   2  19
ATOM     19  C   UNL     1      -2.206   1.865   1.365  0.00  0.00    +0.141 C 
BRANCH  19  20
ATOM     20  O   UNL     1      -2.939   0.759   0.835  0.00  0.00    -0.387 OA
ATOM     21  H   UNL     1      -2.690   0.520  -0.069  0.00  0.00    +0.210 HD
ENDBRANCH  19  20
BRANCH  19  22
ATOM     22  C   UNL     1      -2.441   3.099   0.491  0.00  0.00    +0.043 C 
BRANCH  22  23
ATOM     23  C   UNL     1      -3.913   3.510   0.574  0.00  0.00    -0.018 C 
ATOM     24  C   UNL     1      -4.148   4.742  -0.301  0.00  0.00    -0.007 C 
ATOM     25  C   UNL     1      -5.596   5.213  -0.155  0.00  0.00    +0.011 C 
ATOM     26  C   UNL     1      -6.540   4.125  -0.677  0.00  0.00    +0.075 C 
ATOM     27  C   UNL     1      -6.230   2.832   0.044  0.00  0.00    +0.137 C 
ATOM     28  O   UNL     1      -7.106   2.195   0.577  0.00  0.00    -0.297 OA
ATOM     29  C   UNL     1      -4.794   2.358   0.079  0.00  0.00    +0.058 C 
ATOM     30  C   UNL     1      -4.355   1.942  -1.326  0.00  0.00    +0.016 C 
ATOM     31  C   UNL     1      -3.202   5.863   0.134  0.00  0.00    +0.008 C 
ATOM     32  C   UNL     1      -4.270   3.839   2.025  0.00  0.00    +0.012 C 
ENDBRANCH  22  23
ENDBRANCH  19  22
ENDBRANCH   2  19
TORSDOF 9
