REMARK  Name = ZINC66976370
REMARK  6 active torsions:
REMARK  status: ('A' for Active; 'I' for Inactive)
REMARK    1  A    between atoms: C_1  and  N_2
REMARK    2  A    between atoms: C_10  and  C_11
REMARK    3  A    between atoms: C_11  and  N_12
REMARK    4  A    between atoms: N_15  and  C_16
REMARK    5  A    between atoms: C_16  and  C_17
REMARK    6  A    between atoms: C_17  and  O_27
REMARK                            x       y       z     vdW  Elec       q    Type
REMARK                         _______ _______ _______ _____ _____    ______ ____
ROOT
ATOM      1  N   UNL     1      -1.372  -0.580   3.133  0.00  0.00    -0.292 N 
ATOM      2  C   UNL     1      -1.601  -0.001   4.328  0.00  0.00    +0.300 C 
ATOM      3  O   UNL     1      -0.667   0.381   5.007  0.00  0.00    -0.253 OA
ATOM      4  N   UNL     1      -2.864   0.156   4.770  0.00  0.00    -0.296 N 
ATOM      5  H   UNL     1      -2.117  -0.884   2.591  0.00  0.00    +0.151 HD
ATOM      6  H   UNL     1      -3.609  -0.148   4.229  0.00  0.00    +0.150 HD
ENDROOT
BRANCH   1   7
ATOM      7  C   UNL     1       0.001  -0.751   2.652  0.00  0.00    +0.180 C 
BRANCH   7  17
ATOM      8  C   UNL     1      -0.134   0.685  -0.084  0.00  0.00    +0.150 C 
ATOM      9  N   UNL     1      -0.078  -0.766   0.109  0.00  0.00    -0.329 N 
ATOM     10  C   UNL     1      -0.071  -1.724  -0.884  0.00  0.00    +0.069 A 
ATOM     11  C   UNL     1      -0.108  -1.679  -2.272  0.00  0.00    +0.028 A 
ATOM     12  C   UNL     1      -0.086  -2.853  -2.994  0.00  0.00    +0.002 A 
ATOM     13  C   UNL     1      -0.027  -4.078  -2.344  0.00  0.00    +0.002 A 
ATOM     14  C   UNL     1       0.010  -4.141  -0.980  0.00  0.00    +0.030 A 
ATOM     15  C   UNL     1      -0.011  -2.965  -0.227  0.00  0.00    +0.089 A 
ATOM     16  N   UNL     1       0.015  -2.705   1.105  0.00  0.00    -0.231 NA
ATOM     17  C   UNL     1      -0.019  -1.419   1.301  0.00  0.00    +0.128 A 
ENDBRANCH   7  17
ENDBRANCH   1   7
BRANCH   4  18
ATOM     18  C   UNL     1      -3.112   0.786   6.070  0.00  0.00    +0.145 C 
BRANCH  18  19
ATOM     19  C   UNL     1      -4.619   0.961   6.272  0.00  0.00    +0.107 C 
ATOM     20  C   UNL     1      -5.190   1.781   5.117  0.00  0.00    +0.041 C 
ATOM     21  C   UNL     1      -6.646   2.130   5.446  0.00  0.00    +0.008 C 
ATOM     22  C   UNL     1      -6.653   3.141   6.591  0.00  0.00    +0.035 C 
ATOM     23  C   UNL     1      -5.803   2.652   7.734  0.00  0.00    -0.041 A 
ATOM     24  C   UNL     1      -4.866   1.654   7.587  0.00  0.00    -0.011 A 
ATOM     25  C   UNL     1      -4.110   1.253   8.681  0.00  0.00    +0.007 A 
ATOM     26  C   UNL     1      -4.292   1.845   9.914  0.00  0.00    +0.000 A 
ATOM     27  C   UNL     1      -5.236   2.845  10.062  0.00  0.00    +0.000 A 
ATOM     28  C   UNL     1      -5.986   3.245   8.976  0.00  0.00    +0.004 A 
BRANCH  19  29
ATOM     29  O   UNL     1      -5.244  -0.324   6.291  0.00  0.00    -0.382 OA
ATOM     30  H   UNL     1      -4.925  -0.906   6.995  0.00  0.00    +0.211 HD
ENDBRANCH  19  29
ENDBRANCH  18  19
ENDBRANCH   4  18
TORSDOF 5
