REMARK  Name = ZINC36504541
REMARK  15 active torsions:
REMARK  status: ('A' for Active; 'I' for Inactive)
REMARK    1  A    between atoms: C_1  and  C_2
REMARK    2  A    between atoms: C_2  and  C_3
REMARK    3  A    between atoms: C_2  and  C_4
REMARK    4  A    between atoms: C_2  and  C_5
REMARK    5  A    between atoms: C_5  and  C_6
REMARK    6  A    between atoms: C_6  and  C_7
REMARK    7  A    between atoms: C_6  and  C_8
REMARK    8  A    between atoms: C_6  and  N_9
REMARK    9  A    between atoms: C_10  and  C_12
REMARK   10  A    between atoms: C_12  and  C_14
REMARK   11  A    between atoms: C_12  and  N_24
REMARK   12  A    between atoms: C_17  and  C_20
REMARK   13  A    between atoms: N_24  and  C_25
REMARK   14  A    between atoms: C_25  and  C_26
REMARK   15  A    between atoms: C_31  and  C_33
REMARK                            x       y       z     vdW  Elec       q    Type
REMARK                         _______ _______ _______ _____ _____    ______ ____
ROOT
ATOM      1  C   UNL     1       5.411  -0.280  -4.507  0.00  0.00    +0.193 C 
ENDROOT
BRANCH   1   2
ATOM      2  C   UNL     1       4.532   0.608  -5.348  0.00  0.00    -0.018 A 
ATOM      3  C   UNL     1       4.660   1.982  -5.269  0.00  0.00    +0.006 A 
ATOM      4  C   UNL     1       3.853   2.797  -6.040  0.00  0.00    +0.013 A 
ATOM      5  C   UNL     1       2.918   2.238  -6.892  0.00  0.00    +0.055 A 
ATOM      6  C   UNL     1       2.791   0.864  -6.972  0.00  0.00    +0.013 A 
ATOM      7  C   UNL     1       3.601   0.049  -6.203  0.00  0.00    +0.006 A 
BRANCH   5   8
ATOM      8  C   UNL     1       2.038   3.127  -7.732  0.00  0.00    +0.417 C 
ATOM      9  F   UNL     1       2.663   3.375  -8.960  0.00  0.00    -0.166 F 
ATOM     10  F   UNL     1       0.811   2.493  -7.954  0.00  0.00    -0.166 F 
ATOM     11  F   UNL     1       1.824   4.338  -7.065  0.00  0.00    -0.166 F 
ENDBRANCH   5   8
ENDBRANCH   1   2
BRANCH   1  13
ATOM     12  N   UNL     1       3.603  -1.033  -2.997  0.00  0.00    -0.308 N 
ATOM     13  C   UNL     1       4.803  -0.437  -3.137  0.00  0.00    +0.239 C 
ATOM     14  O   UNL     1       5.394  -0.027  -2.160  0.00  0.00    -0.273 OA
ATOM     15  H   UNL     1       3.130  -1.361  -3.777  0.00  0.00    +0.149 HD
BRANCH  12  16
ATOM     16  C   UNL     1       3.011  -1.185  -1.665  0.00  0.00    +0.030 C 
ATOM     17  C   UNL     1       3.188   0.114  -0.877  0.00  0.00    +0.031 C 
ATOM     18  C   UNL     1       3.708  -2.329  -0.925  0.00  0.00    +0.031 C 
BRANCH  16  19
ATOM     19  C   UNL     1       1.520  -1.500  -1.802  0.00  0.00    +0.031 C 
BRANCH  19  21
ATOM     20  C   UNL     1       1.157  -1.178  -4.252  0.00  0.00    +0.010 C 
ATOM     21  C   UNL     1       0.902  -0.588  -2.864  0.00  0.00    -0.036 C 
ATOM     22  C   UNL     1       1.536   0.801  -2.775  0.00  0.00    +0.010 C 
ATOM     23  C   UNL     1      -0.605  -0.477  -2.626  0.00  0.00    +0.010 C 
ENDBRANCH  19  21
ENDBRANCH  16  19
ENDBRANCH  12  16
ENDBRANCH   1  13
BRANCH   1  24
ATOM     24  N   UNL     1       6.741   0.323  -4.385  0.00  0.00    -0.277 N 
ATOM     25  C   UNL     1       7.580   0.322  -5.439  0.00  0.00    +0.237 C 
ATOM     26  O   UNL     1       7.235  -0.178  -6.489  0.00  0.00    -0.274 OA
BRANCH  25  27
ATOM     27  C   UNL     1       8.948   0.942  -5.314  0.00  0.00    +0.159 C 
ATOM     28  C   UNL     1       8.857   2.475  -5.484  0.00  0.00    +0.041 C 
ATOM     29  C   UNL     1       9.138   2.642  -6.996  0.00  0.00    +0.098 C 
ATOM     30  C   UNL     1       9.938   1.411  -7.362  0.00  0.00    +0.214 C 
ATOM     31  O   UNL     1      10.592   1.284  -8.375  0.00  0.00    -0.276 OA
ATOM     32  N   UNL     1       9.818   0.477  -6.400  0.00  0.00    -0.304 N 
ATOM     33  H   UNL     1      10.251  -0.391  -6.420  0.00  0.00    +0.149 HD
ENDBRANCH  25  27
BRANCH  24  34
ATOM     34  C   UNL     1       7.158   0.927  -3.117  0.00  0.00    +0.183 C 
BRANCH  34  35
ATOM     35  C   UNL     1       7.750  -0.135  -2.226  0.00  0.00    +0.122 A 
ATOM     36  C   UNL     1       9.021  -0.573  -2.262  0.00  0.00    +0.046 A 
ATOM     37  C   UNL     1       9.141  -1.563  -1.260  0.00  0.00    +0.041 A 
ATOM     38  C   UNL     1       7.936  -1.671  -0.671  0.00  0.00    +0.195 A 
ATOM     39  O   UNL     1       7.099  -0.799  -1.256  0.00  0.00    -0.466 OA
ENDBRANCH  34  35
ENDBRANCH  24  34
ENDBRANCH   1  24
TORSDOF 10
