REMARK  Name = ZINC01325775
REMARK  8 active torsions:
REMARK  status: ('A' for Active; 'I' for Inactive)
REMARK    1  A    between atoms: C_1  and  C_2
REMARK    2  A    between atoms: C_2  and  C_3
REMARK    3  A    between atoms: C_7  and  N_9
REMARK    4  A    between atoms: C_10  and  C_12
REMARK    5  A    between atoms: C_12  and  S_13
REMARK    6  A    between atoms: S_13  and  C_14
REMARK    7  A    between atoms: N_25  and  C_26
REMARK    8  A    between atoms: C_26  and  C_27
REMARK                            x       y       z     vdW  Elec       q    Type
REMARK                         _______ _______ _______ _____ _____    ______ ____
ROOT
ATOM      1  C   UNL     1      -0.389   6.442   0.415  0.00  0.00    +0.198 A 
ATOM      2  N   UNL     1       0.578   7.311   0.245  0.00  0.00    -0.120 NA
ATOM      3  N   UNL     1       1.794   6.617   0.268  0.00  0.00    -0.109 NA
ATOM      4  C   UNL     1       1.531   5.343   0.452  0.00  0.00    +0.238 A 
ATOM      5  N   UNL     1       0.175   5.202   0.547  0.00  0.00    -0.254 N 
ATOM      6  C   UNL     1      -0.112   3.849   0.743  0.00  0.00    +0.075 A 
ATOM      7  C   UNL     1      -1.303   3.155   0.902  0.00  0.00    +0.028 A 
ATOM      8  C   UNL     1      -1.284   1.786   1.077  0.00  0.00    +0.002 A 
ATOM      9  C   UNL     1      -0.080   1.102   1.105  0.00  0.00    +0.002 A 
ATOM     10  C   UNL     1       1.110   1.783   0.948  0.00  0.00    +0.028 A 
ATOM     11  C   UNL     1       1.101   3.160   0.766  0.00  0.00    +0.069 A 
ATOM     12  N   UNL     1       2.116   4.095   0.585  0.00  0.00    -0.299 N 
ENDROOT
BRANCH   1  13
ATOM     13  S   UNL     1      -2.112   6.806   0.463  0.00  0.00    -0.076 S 
BRANCH  13  14
ATOM     14  C   UNL     1      -2.188   8.604   0.229  0.00  0.00    +0.173 C 
BRANCH  14  16
ATOM     15  N   UNL     1      -3.926  10.357   0.094  0.00  0.00    -0.285 N 
ATOM     16  C   UNL     1      -3.626   9.053   0.250  0.00  0.00    +0.227 C 
ATOM     17  O   UNL     1      -4.513   8.241   0.407  0.00  0.00    -0.275 OA
ATOM     18  H   UNL     1      -3.216  11.016   0.045  0.00  0.00    +0.155 HD
BRANCH  15  23
ATOM     19  C   UNL     1      -6.975  12.387   0.423  0.00  0.00    -0.046 A 
ATOM     20  C   UNL     1      -7.906  11.559  -0.178  0.00  0.00    +0.004 A 
ATOM     21  C   UNL     1      -7.519  10.334  -0.688  0.00  0.00    +0.002 A 
ATOM     22  C   UNL     1      -6.200   9.935  -0.604  0.00  0.00    +0.023 A 
ATOM     23  C   UNL     1      -5.263  10.761   0.003  0.00  0.00    +0.034 A 
ATOM     24  C   UNL     1      -5.655  11.992   0.514  0.00  0.00    +0.027 A 
BRANCH  19  26
ATOM     25  C   UNL     1      -7.272  14.790  -0.111  0.00  0.00    +0.009 C 
ATOM     26  C   UNL     1      -7.401  13.722   0.977  0.00  0.00    +0.032 C 
ENDBRANCH  19  26
ENDBRANCH  15  23
ENDBRANCH  14  16
ENDBRANCH  13  14
ENDBRANCH   1  13
BRANCH  12  27
ATOM     27  C   UNL     1       3.552   3.808   0.543  0.00  0.00    +0.221 C 
BRANCH  27  28
ATOM     28  C   UNL     1       3.966   3.523  -0.878  0.00  0.00    +0.235 C 
ATOM     29  O   UNL     1       3.142   3.556  -1.768  0.00  0.00    -0.274 OA
ATOM     30  N   UNL     1       5.251   3.232  -1.160  0.00  0.00    -0.300 N 
ATOM     31  C   UNL     1       6.348   3.164  -0.184  0.00  0.00    +0.108 C 
ATOM     32  C   UNL     1       7.635   2.824  -0.964  0.00  0.00    +0.020 C 
ATOM     33  C   UNL     1       7.297   3.283  -2.407  0.00  0.00    +0.020 C 
ATOM     34  C   UNL     1       5.791   2.933  -2.499  0.00  0.00    +0.108 C 
ENDBRANCH  27  28
ENDBRANCH  12  27
TORSDOF 7
