REMARK  Name = ZINC40687825
REMARK  5 active torsions:
REMARK  status: ('A' for Active; 'I' for Inactive)
REMARK    1  A    between atoms: C_6  and  O_11
REMARK    2  A    between atoms: O_11  and  C_12
REMARK    3  A    between atoms: C_13  and  N_26
REMARK    4  A    between atoms: C_14  and  N_18
REMARK    5  A    between atoms: N_18  and  C_19
REMARK                            x       y       z     vdW  Elec       q    Type
REMARK                         _______ _______ _______ _____ _____    ______ ____
ROOT
ATOM      1  C   UNL     1       4.842  -3.987   0.335  0.00  0.00    +0.246 A 
ATOM      2  C   UNL     1       6.038  -4.702   0.284  0.00  0.00    +0.128 A 
ATOM      3  C   UNL     1       5.979  -6.095   0.386  0.00  0.00    +0.151 A 
ATOM      4  N   UNL     1       4.792  -6.681   0.526  0.00  0.00    -0.218 NA
ATOM      5  C   UNL     1       3.686  -5.966   0.569  0.00  0.00    +0.227 A 
ATOM      6  N   UNL     1       3.700  -4.652   0.481  0.00  0.00    -0.199 NA
ENDROOT
BRANCH   2   7
ATOM      7  N   UNL     1       7.267  -4.042   0.135  0.00  0.00    -0.351 N 
ATOM      8  H   UNL     1       7.292  -3.075   0.066  0.00  0.00    +0.143 HD
ATOM      9  H   UNL     1       8.091  -4.553   0.102  0.00  0.00    +0.143 HD
ENDBRANCH   2   7
BRANCH   3  10
ATOM     10  N   UNL     1       7.141  -6.856   0.341  0.00  0.00    -0.298 N 
ATOM     11  H   UNL     1       8.007  -6.418   0.315  0.00  0.00    +0.154 HD
BRANCH  10  12
ATOM     12  C   UNL     1       7.063  -8.252   0.334  0.00  0.00    +0.032 A 
ATOM     13  C   UNL     1       8.060  -9.007   0.937  0.00  0.00    +0.024 A 
ATOM     14  C   UNL     1       7.980 -10.386   0.929  0.00  0.00    +0.017 A 
ATOM     15  C   UNL     1       6.908 -11.014   0.321  0.00  0.00    +0.018 A 
ATOM     16  C   UNL     1       5.913 -10.264  -0.281  0.00  0.00    +0.017 A 
ATOM     17  C   UNL     1       5.985  -8.885  -0.271  0.00  0.00    +0.024 A 
ATOM     18 BR   UNL     1       6.802 -12.902   0.311  0.00  0.00    -0.050 Br
ENDBRANCH  10  12
ENDBRANCH   3  10
BRANCH   1  19
ATOM     19  O   UNL     1       4.844  -2.634   0.241  0.00  0.00    -0.436 OA
BRANCH  19  25
ATOM     20  C   UNL     1      -0.580   0.584  -0.086  0.00  0.00    +0.001 A 
ATOM     21  C   UNL     1      -0.024   0.498  -1.361  0.00  0.00    +0.001 A 
ATOM     22  C   UNL     1       1.155  -0.149  -1.570  0.00  0.00    +0.008 A 
ATOM     23  C   UNL     1       1.824  -0.741  -0.485  0.00  0.00    -0.014 A 
ATOM     24  C   UNL     1       3.043  -1.417  -0.663  0.00  0.00    +0.054 A 
ATOM     25  C   UNL     1       3.666  -1.980   0.414  0.00  0.00    +0.131 A 
ATOM     26  C   UNL     1       3.106  -1.894   1.693  0.00  0.00    +0.047 A 
ATOM     27  C   UNL     1       1.928  -1.247   1.898  0.00  0.00    +0.012 A 
ATOM     28  C   UNL     1       1.259  -0.655   0.811  0.00  0.00    -0.018 A 
ATOM     29  C   UNL     1       0.040   0.022   0.988  0.00  0.00    +0.008 A 
ENDBRANCH  19  25
ENDBRANCH   1  19
TORSDOF 5
