REMARK  Name = ZINC05222387
REMARK  6 active torsions:
REMARK  status: ('A' for Active; 'I' for Inactive)
REMARK    1  A    between atoms: C_1  and  C_2
REMARK    2  A    between atoms: C_2  and  C_15
REMARK    3  A    between atoms: N_3  and  N_4
REMARK    4  A    between atoms: C_5  and  C_7
REMARK    5  A    between atoms: C_12  and  O_13
REMARK    6  A    between atoms: C_16  and  C_17
REMARK                            x       y       z     vdW  Elec       q    Type
REMARK                         _______ _______ _______ _____ _____    ______ ____
ROOT
ATOM      1  N   UNL     1       2.388   5.297   0.008  0.00  0.00    -0.203 N 
ATOM      2  C   UNL     1       2.416   3.950   0.001  0.00  0.00    +0.267 C 
ATOM      3  O   UNL     1       3.482   3.364  -0.012  0.00  0.00    -0.268 OA
ATOM      4  H   UNL     1       1.538   5.765   0.018  0.00  0.00    +0.178 HD
ENDROOT
BRANCH   2   5
ATOM      5  C   UNL     1       1.155   3.186   0.008  0.00  0.00    +0.081 A 
ATOM      6  C   UNL     1      -0.072   3.855   0.023  0.00  0.00    +0.032 A 
ATOM      7  C   UNL     1      -1.247   3.135   0.031  0.00  0.00    +0.019 A 
ATOM      8  C   UNL     1      -1.218   1.749   0.017  0.00  0.00    +0.019 A 
ATOM      9  C   UNL     1      -0.013   1.076   0.008  0.00  0.00    +0.047 A 
ATOM     10  C   UNL     1       1.179   1.784   0.000  0.00  0.00    +0.129 A 
ATOM     11 BR   UNL     1      -2.907   4.041   0.051  0.00  0.00    -0.050 Br
BRANCH  10  12
ATOM     12  O   UNL     1       2.365   1.124  -0.015  0.00  0.00    -0.506 OA
ATOM     13  H   UNL     1       2.700   0.938  -0.903  0.00  0.00    +0.292 HD
ENDBRANCH  10  12
ENDBRANCH   2   5
BRANCH   1  16
ATOM     14  C   UNL     1       2.239   8.051   0.024  0.00  0.00    +0.067 C 
ATOM     15  C   UNL     1       3.559   7.325   0.008  0.00  0.00    +0.056 C 
ATOM     16  N   UNL     1       3.586   6.023   0.001  0.00  0.00    -0.185 NA
BRANCH  15  17
ATOM     17  C   UNL     1       4.772   8.060   0.001  0.00  0.00    +0.025 C 
ATOM     18  C   UNL     1       5.954   7.410  -0.013  0.00  0.00    +0.010 C 
BRANCH  18  19
ATOM     19  C   UNL     1       7.213   8.173  -0.021  0.00  0.00    -0.025 A 
ATOM     20  C   UNL     1       7.188   9.571  -0.019  0.00  0.00    +0.008 A 
ATOM     21  C   UNL     1       8.371  10.278  -0.019  0.00  0.00    +0.001 A 
ATOM     22  C   UNL     1       9.582   9.608  -0.035  0.00  0.00    +0.000 A 
ATOM     23  C   UNL     1       9.615   8.224  -0.042  0.00  0.00    +0.001 A 
ATOM     24  C   UNL     1       8.440   7.503  -0.035  0.00  0.00    +0.008 A 
ENDBRANCH  18  19
ENDBRANCH  15  17
ENDBRANCH   1  16
TORSDOF 5
