REMARK  Name = ZINC39686464
REMARK  11 active torsions:
REMARK  status: ('A' for Active; 'I' for Inactive)
REMARK    1  A    between atoms: C_1  and  C_2
REMARK    2  A    between atoms: C_2  and  O_3
REMARK    3  A    between atoms: O_3  and  C_4
REMARK    4  A    between atoms: C_7  and  C_10
REMARK    5  A    between atoms: C_14  and  C_23
REMARK    6  A    between atoms: N_25  and  C_26
REMARK    7  A    between atoms: C_26  and  C_28
REMARK    8  A    between atoms: C_26  and  C_29
REMARK    9  A    between atoms: C_29  and  C_30
REMARK   10  A    between atoms: C_35  and  O_36
REMARK   11  A    between atoms: O_36  and  C_37
REMARK                            x       y       z     vdW  Elec       q    Type
REMARK                         _______ _______ _______ _____ _____    ______ ____
ROOT
ATOM      1  C   UNL     1       1.552  -6.514  -1.517  0.00  0.00    +0.247 C 
ATOM      2  O   UNL     1       1.153  -7.327  -0.706  0.00  0.00    -0.270 OA
ATOM      3  N   UNL     1       1.976  -6.924  -2.729  0.00  0.00    -0.296 N 
ATOM      4  C   UNL     1       2.607  -6.109  -3.793  0.00  0.00    +0.121 C 
ATOM      5  C   UNL     1       3.705  -7.021  -4.384  0.00  0.00    +0.100 C 
ATOM      6  C   UNL     1       3.244  -8.452  -4.058  0.00  0.00    -0.004 C 
ATOM      7  C   UNL     1       1.920  -8.292  -3.296  0.00  0.00    +0.115 C 
ATOM      8  C   UNL     1       3.023  -9.242  -5.344  0.00  0.00    -0.010 C 
ATOM      9  C   UNL     1       2.622 -10.677  -4.993  0.00  0.00    -0.082 C 
ATOM     10  N   UNL     1       3.679 -11.300  -4.188  0.00  0.00    +0.379 N 
ATOM     11  C   UNL     1       3.821 -10.589  -2.912  0.00  0.00    -0.082 C 
ATOM     12  C   UNL     1       4.274  -9.150  -3.175  0.00  0.00    -0.010 C 
ATOM     13  H   UNL     1       3.440 -12.264  -4.010  0.00  0.00    -0.086 HD
ATOM     14  H   UNL     1       4.552 -11.261  -4.693  0.00  0.00    -0.086 HD
ENDROOT
BRANCH   1  18
ATOM     15  C   UNL     1       1.615  -2.384  -0.529  0.00  0.00    +0.121 A 
ATOM     16  C   UNL     1       1.522  -3.337   0.479  0.00  0.00    +0.046 A 
ATOM     17  C   UNL     1       1.502  -4.677   0.163  0.00  0.00    +0.016 A 
ATOM     18  C   UNL     1       1.574  -5.079  -1.173  0.00  0.00    +0.037 A 
ATOM     19  C   UNL     1       1.667  -4.118  -2.184  0.00  0.00    +0.016 A 
ATOM     20  C   UNL     1       1.682  -2.780  -1.860  0.00  0.00    +0.046 A 
BRANCH  15  21
ATOM     21  O   UNL     1       1.635  -1.065  -0.214  0.00  0.00    -0.492 OA
BRANCH  21  23
ATOM     22  C   UNL     1       1.599   0.793   1.331  0.00  0.00    +0.048 C 
ATOM     23  C   UNL     1       1.564  -0.728   1.173  0.00  0.00    +0.225 C 
ENDBRANCH  21  23
ENDBRANCH  15  21
ENDBRANCH   1  18
BRANCH   5  24
ATOM     24  C   UNL     1       3.804  -6.826  -5.875  0.00  0.00    +0.218 C 
ATOM     25  O   UNL     1       2.837  -6.451  -6.503  0.00  0.00    -0.275 OA
ATOM     26  N   UNL     1       4.967  -7.069  -6.511  0.00  0.00    -0.312 N 
ATOM     27  H   UNL     1       5.758  -7.307  -6.002  0.00  0.00    +0.149 HD
BRANCH  26  28
ATOM     28  C   UNL     1       5.038  -6.973  -7.971  0.00  0.00    +0.074 C 
ATOM     29  C   UNL     1       4.582  -8.295  -8.591  0.00  0.00    +0.028 C 
BRANCH  28  30
ATOM     30  C   UNL     1       6.479  -6.681  -8.394  0.00  0.00    +0.060 C 
BRANCH  30  31
ATOM     31  C   UNL     1       6.878  -5.311  -7.907  0.00  0.00    -0.004 A 
ATOM     32  C   UNL     1       6.700  -4.209  -8.722  0.00  0.00    +0.007 A 
ATOM     33  C   UNL     1       7.066  -2.953  -8.276  0.00  0.00    +0.000 A 
ATOM     34  C   UNL     1       7.610  -2.795  -7.015  0.00  0.00    +0.004 A 
ATOM     35  C   UNL     1       7.788  -3.893  -6.196  0.00  0.00    +0.046 A 
ATOM     36  C   UNL     1       7.417  -5.155  -6.639  0.00  0.00    +0.123 A 
BRANCH  36  37
ATOM     37  O   UNL     1       7.587  -6.236  -5.834  0.00  0.00    -0.495 OA
ATOM     38  C   UNL     1       8.052  -5.989  -4.505  0.00  0.00    +0.277 C 
ENDBRANCH  36  37
ENDBRANCH  30  31
ENDBRANCH  28  30
ENDBRANCH  26  28
ENDBRANCH   5  24
TORSDOF 8
