REMARK  Name = ZINC02745683
REMARK  3 active torsions:
REMARK  status: ('A' for Active; 'I' for Inactive)
REMARK    1  A    between atoms: C_5  and  C_6
REMARK    2  A    between atoms: N_8  and  N_9
REMARK    3  A    between atoms: C_10  and  C_11
REMARK                            x       y       z     vdW  Elec       q    Type
REMARK                         _______ _______ _______ _____ _____    ______ ____
ROOT
ATOM      1  N   UNL     1      -3.532  -1.188   0.031  0.00  0.00    -0.187 NA
ATOM      2  C   UNL     1      -4.725  -0.675   0.045  0.00  0.00    +0.144 C 
ENDROOT
BRANCH   2   3
ATOM      3  C   UNL     1      -5.906  -1.557   0.053  0.00  0.00    +0.071 A 
ATOM      4  C   UNL     1      -5.745  -2.947   0.038  0.00  0.00    +0.173 A 
ATOM      5  C   UNL     1      -6.856  -3.769   0.051  0.00  0.00    +0.197 A 
ATOM      6  C   UNL     1      -8.130  -3.219   0.067  0.00  0.00    +0.199 A 
ATOM      7  C   UNL     1      -8.296  -1.842   0.075  0.00  0.00    +0.197 A 
ATOM      8  C   UNL     1      -7.192  -1.008   0.068  0.00  0.00    +0.173 A 
ATOM      9  F   UNL     1      -7.356   0.333   0.076  0.00  0.00    -0.202 F 
ATOM     10  F   UNL     1      -9.540  -1.313   0.090  0.00  0.00    -0.199 F 
ATOM     11  F   UNL     1      -9.212  -4.027   0.073  0.00  0.00    -0.199 F 
ATOM     12  F   UNL     1      -6.702  -5.111   0.043  0.00  0.00    -0.199 F 
ATOM     13  F   UNL     1      -4.505  -3.485   0.017  0.00  0.00    -0.202 F 
ENDBRANCH   2   3
BRANCH   1  16
ATOM     14  C   UNL     1      -1.172  -0.881   0.009  0.00  0.00    +0.299 C 
ATOM     15  O   UNL     1      -1.028  -2.090   0.002  0.00  0.00    -0.265 OA
ATOM     16  N   UNL     1      -2.410  -0.349   0.024  0.00  0.00    -0.200 N 
ATOM     17  H   UNL     1      -2.524   0.614   0.030  0.00  0.00    +0.178 HD
BRANCH  14  22
ATOM     18  C   UNL     1       1.307  -0.409  -0.013  0.00  0.00    +0.056 A 
ATOM     19  C   UNL     1       2.091   0.754  -0.014  0.00  0.00    +0.058 A 
ATOM     20  C   UNL     1       1.242   1.807  -0.000  0.00  0.00    +0.171 A 
ATOM     21  O   UNL     1      -0.016   1.345   0.009  0.00  0.00    -0.444 OA
ATOM     22  C   UNL     1       0.002  -0.004   0.002  0.00  0.00    +0.192 A 
ATOM     23 BR   UNL     1       1.746   3.629   0.004  0.00  0.00    -0.008 Br
ENDBRANCH  14  22
ENDBRANCH   1  16
TORSDOF 3
