REMARK  Name = ZINC16159738
REMARK  3 active torsions:
REMARK  status: ('A' for Active; 'I' for Inactive)
REMARK    1  A    between atoms: C_2  and  C_17
REMARK    2  A    between atoms: C_6  and  S_7
REMARK    3  A    between atoms: S_7  and  N_10
REMARK                            x       y       z     vdW  Elec       q    Type
REMARK                         _______ _______ _______ _____ _____    ______ ____
ROOT
ATOM      1  C   UNL     1      -0.061   4.651   0.027  0.00  0.00    +0.041 A 
ATOM      2  C   UNL     1      -1.249   3.944   0.034  0.00  0.00    +0.058 A 
ATOM      3  C   UNL     1      -1.231   2.562   0.022  0.00  0.00    +0.027 A 
ATOM      4  C   UNL     1      -0.024   1.887   0.012  0.00  0.00    +0.020 A 
ATOM      5  C   UNL     1       1.165   2.595   0.005  0.00  0.00    +0.043 A 
ATOM      6  C   UNL     1       1.145   3.977   0.012  0.00  0.00    +0.107 A 
ATOM      7 BR   UNL     1       0.002  -0.004   0.002  0.00  0.00    -0.050 Br
ENDROOT
BRANCH   2   8
ATOM      8  C   UNL     1      -2.564   4.680   0.050  0.00  0.00    +0.418 C 
ATOM      9  F   UNL     1      -2.983   4.915  -1.264  0.00  0.00    -0.166 F 
ATOM     10  F   UNL     1      -3.523   3.908   0.715  0.00  0.00    -0.166 F 
ATOM     11  F   UNL     1      -2.407   5.901   0.714  0.00  0.00    -0.166 F 
ENDBRANCH   2   8
BRANCH   6  12
ATOM     12  S   UNL     1       2.659   4.879   0.002  0.00  0.00    +0.061 S 
ATOM     13  O   UNL     1       2.376   6.154   0.562  0.00  0.00    -0.153 OA
ATOM     14  O   UNL     1       3.651   4.014   0.539  0.00  0.00    -0.153 OA
BRANCH  12  15
ATOM     15  N   UNL     1       3.064   5.138  -1.583  0.00  0.00    -0.177 NA
ATOM     16  C   UNL     1       3.899   4.172  -2.309  0.00  0.00    +0.109 C 
ATOM     17  C   UNL     1       3.169   3.767  -3.599  0.00  0.00    +0.017 C 
ATOM     18  C   UNL     1       2.824   5.024  -4.399  0.00  0.00    +0.003 C 
ATOM     19  C   UNL     1       1.889   5.914  -3.576  0.00  0.00    +0.017 C 
ATOM     20  C   UNL     1       2.600   6.340  -2.288  0.00  0.00    +0.109 C 
ENDBRANCH  12  15
ENDBRANCH   6  12
TORSDOF 3
