REMARK  Name = ZINC00793463
REMARK  10 active torsions:
REMARK  status: ('A' for Active; 'I' for Inactive)
REMARK    1  A    between atoms: C_1  and  C_2
REMARK    2  A    between atoms: C_2  and  C_3
REMARK    3  A    between atoms: C_2  and  C_4
REMARK    4  A    between atoms: C_2  and  C_5
REMARK    5  A    between atoms: C_8  and  O_23
REMARK    6  A    between atoms: C_9  and  N_11
REMARK    7  A    between atoms: C_12  and  C_13
REMARK    8  A    between atoms: C_17  and  O_20
REMARK    9  A    between atoms: C_18  and  O_19
REMARK   10  A    between atoms: O_20  and  C_21
REMARK                            x       y       z     vdW  Elec       q    Type
REMARK                         _______ _______ _______ _____ _____    ______ ____
ROOT
ATOM      1  N   UNL     1       2.406  -2.777  -0.035  0.00  0.00    -0.251 NA
ATOM      2  C   UNL     1       1.263  -2.151  -0.021  0.00  0.00    +0.124 C 
ENDROOT
BRANCH   2   3
ATOM      3  C   UNL     1       1.229  -0.681  -0.013  0.00  0.00    +0.052 A 
ATOM      4  C   UNL     1       2.423   0.050  -0.021  0.00  0.00    +0.030 A 
ATOM      5  C   UNL     1       2.386   1.429  -0.013  0.00  0.00    +0.020 A 
ATOM      6  C   UNL     1       1.173   2.096   0.002  0.00  0.00    +0.050 A 
ATOM      7  C   UNL     1      -0.017   1.386   0.010  0.00  0.00    +0.162 A 
ATOM      8  C   UNL     1       0.002  -0.004   0.002  0.00  0.00    +0.168 A 
ATOM      9 BR   UNL     1       4.085  -0.852  -0.041  0.00  0.00    -0.050 Br
BRANCH   8  10
ATOM     10  O   UNL     1      -1.163  -0.703   0.009  0.00  0.00    -0.503 OA
ATOM     11  H   UNL     1      -1.508  -0.900  -0.872  0.00  0.00    +0.292 HD
ENDBRANCH   8  10
BRANCH   7  12
ATOM     12  O   UNL     1      -1.204   2.050   0.019  0.00  0.00    -0.491 OA
ATOM     13  C   UNL     1      -1.149   3.478   0.026  0.00  0.00    +0.277 C 
ENDBRANCH   7  12
ENDBRANCH   2   3
BRANCH   1  18
ATOM     14  C   UNL     1       1.557  -6.243  -0.815  0.00  0.00    -0.040 A 
ATOM     15  C   UNL     1       2.499  -6.917  -0.057  0.00  0.00    +0.008 A 
ATOM     16  C   UNL     1       3.411  -6.216   0.710  0.00  0.00    +0.048 A 
ATOM     17  C   UNL     1       3.388  -4.832   0.723  0.00  0.00    +0.142 A 
ATOM     18  C   UNL     1       2.437  -4.145  -0.043  0.00  0.00    +0.105 A 
ATOM     19  C   UNL     1       1.518  -4.864  -0.809  0.00  0.00    +0.035 A 
BRANCH  14  21
ATOM     20  C   UNL     1       0.821  -8.517  -1.475  0.00  0.00    +0.015 C 
ATOM     21  C   UNL     1       0.568  -7.018  -1.647  0.00  0.00    -0.013 C 
ATOM     22  C   UNL     1      -0.854  -6.685  -1.191  0.00  0.00    +0.015 C 
ATOM     23  C   UNL     1       0.733  -6.639  -3.120  0.00  0.00    +0.015 C 
ENDBRANCH  14  21
BRANCH  17  24
ATOM     24  O   UNL     1       4.285  -4.142   1.476  0.00  0.00    -0.505 OA
ATOM     25  H   UNL     1       3.984  -3.958   2.376  0.00  0.00    +0.292 HD
ENDBRANCH  17  24
ENDBRANCH   1  18
TORSDOF 6
