REMARK  Name = ZINC38688837
REMARK  9 active torsions:
REMARK  status: ('A' for Active; 'I' for Inactive)
REMARK    1  A    between atoms: C_1  and  C_2
REMARK    2  A    between atoms: C_2  and  O_3
REMARK    3  A    between atoms: O_3  and  C_4
REMARK    4  A    between atoms: C_4  and  C_6
REMARK    5  A    between atoms: C_8  and  N_17
REMARK    6  A    between atoms: C_18  and  C_20
REMARK    7  A    between atoms: C_20  and  N_21
REMARK    8  A    between atoms: N_21  and  C_22
REMARK    9  A    between atoms: N_21  and  C_23
REMARK                            x       y       z     vdW  Elec       q    Type
REMARK                         _______ _______ _______ _____ _____    ______ ____
ROOT
ATOM      1  C   UNL     1       0.635  -3.803   4.217  0.00  0.00    +0.234 C 
ATOM      2  C   UNL     1       0.469  -2.379   3.736  0.00  0.00    +0.053 C 
ATOM      3  C   UNL     1       1.133  -2.312   2.523  0.00  0.00    +0.019 A 
ATOM      4  C   UNL     1       1.330  -1.257   1.599  0.00  0.00    +0.031 A 
ATOM      5  C   UNL     1       2.039  -1.481   0.465  0.00  0.00    +0.042 A 
ATOM      6  C   UNL     1       2.586  -2.736   0.179  0.00  0.00    +0.022 A 
ATOM      7  C   UNL     1       2.437  -3.790   1.017  0.00  0.00    +0.027 A 
ATOM      8  C   UNL     1       1.708  -3.634   2.225  0.00  0.00    +0.045 A 
ATOM      9  N   UNL     1       1.425  -4.489   3.189  0.00  0.00    -0.367 N 
ATOM     10 CL   UNL     1       2.272  -0.179  -0.659  0.00  0.00    -0.084 Cl
ATOM     11  H   UNL     1       1.696  -5.420   3.216  0.00  0.00    +0.161 HD
ENDROOT
BRANCH   2  12
ATOM     12  N   UNL     1      -0.197  -1.370   4.366  0.00  0.00    -0.288 N 
ATOM     13  C   UNL     1      -0.910  -1.627   5.480  0.00  0.00    +0.200 C 
ATOM     14  O   UNL     1      -0.876  -2.730   5.981  0.00  0.00    -0.278 OA
ATOM     15  H   UNL     1      -0.157  -0.468   4.013  0.00  0.00    +0.155 HD
BRANCH  13  16
ATOM     16  C   UNL     1      -1.751  -0.542   6.103  0.00  0.00    +0.019 C 
BRANCH  16  17
ATOM     17  N   UNL     1      -2.425  -1.070   7.297  0.00  0.00    +0.385 N 
ATOM     18  C   UNL     1      -3.375  -2.118   6.900  0.00  0.00    -0.095 C 
ATOM     19  H   UNL     1      -1.739  -1.458   7.926  0.00  0.00    -0.081 HD
BRANCH  17  20
ATOM     20  C   UNL     1      -3.148   0.017   7.971  0.00  0.00    -0.068 C 
ATOM     21  C   UNL     1      -2.159   1.109   8.384  0.00  0.00    -0.015 C 
ATOM     22  C   UNL     1      -2.912   2.240   9.086  0.00  0.00    -0.002 C 
ATOM     23  C   UNL     1      -3.614   1.691  10.330  0.00  0.00    -0.000 C 
ATOM     24  C   UNL     1      -4.603   0.599   9.917  0.00  0.00    -0.002 C 
ATOM     25  C   UNL     1      -3.850  -0.532   9.215  0.00  0.00    -0.015 C 
ENDBRANCH  17  20
ENDBRANCH  16  17
ENDBRANCH  13  16
ENDBRANCH   2  12
BRANCH   1  26
ATOM     26  C   UNL     1       1.368  -3.824   5.534  0.00  0.00    +0.336 C 
ATOM     27  O   UNL     1       2.560  -3.628   5.566  0.00  0.00    -0.248 OA
BRANCH  26  28
ATOM     28  O   UNL     1       0.696  -4.060   6.672  0.00  0.00    -0.463 OA
BRANCH  28  30
ATOM     29  C   UNL     1       0.524  -4.349   9.065  0.00  0.00    +0.048 C 
ATOM     30  C   UNL     1       1.454  -4.065   7.884  0.00  0.00    +0.229 C 
ENDBRANCH  28  30
ENDBRANCH  26  28
ENDBRANCH   1  26
TORSDOF 7
