REMARK  Name = ZINC17086083
REMARK  4 active torsions:
REMARK  status: ('A' for Active; 'I' for Inactive)
REMARK    1  A    between atoms: C_1  and  C_2
REMARK    2  A    between atoms: C_14  and  C_17
REMARK    3  A    between atoms: C_20  and  O_24
REMARK    4  A    between atoms: O_24  and  C_25
REMARK                            x       y       z     vdW  Elec       q    Type
REMARK                         _______ _______ _______ _____ _____    ______ ____
ROOT
ATOM      1  C   UNL     1       0.727   8.863  -3.457  0.00  0.00    +0.008 C 
ATOM      2  C   UNL     1       0.662   7.593  -2.606  0.00  0.00    -0.009 C 
ATOM      3  C   UNL     1       2.012   6.872  -2.656  0.00  0.00    +0.008 C 
ATOM      4  C   UNL     1       2.038   5.745  -1.622  0.00  0.00    +0.037 C 
ATOM      5  C   UNL     1       0.810   4.864  -1.823  0.00  0.00    -0.023 A 
ATOM      6  C   UNL     1      -0.259   5.314  -2.517  0.00  0.00    -0.004 A 
ATOM      7  S   UNL     1      -1.419   3.973  -2.491  0.00  0.00    -0.078 S 
ATOM      8  C   UNL     1      -0.505   2.846  -1.582  0.00  0.00    +0.080 A 
ATOM      9  C   UNL     1       0.697   3.512  -1.299  0.00  0.00    +0.068 A 
ATOM     10  C   UNL     1       1.713   2.784  -0.505  0.00  0.00    +0.248 C 
ATOM     11  O   UNL     1       2.822   3.249  -0.315  0.00  0.00    -0.270 OA
ATOM     12  N   UNL     1       1.359   1.583  -0.002  0.00  0.00    -0.289 N 
ATOM     13  C   UNL     1      -0.013   1.086   0.008  0.00  0.00    +0.190 C 
ATOM     14  N   UNL     1      -0.764   1.565  -1.167  0.00  0.00    -0.316 N 
ATOM     15  C   UNL     1      -0.419   6.655  -3.162  0.00  0.00    +0.046 C 
ATOM     16  H   UNL     1       2.170   0.967   0.415  0.00  0.00    +0.151 HD
ATOM     17  H   UNL     1      -1.489   0.904  -1.663  0.00  0.00    +0.149 HD
ENDROOT
BRANCH  13  18
ATOM     18  C   UNL     1      -0.701   1.563   1.261  0.00  0.00    -0.008 A 
ATOM     19  C   UNL     1       0.036   1.793   2.408  0.00  0.00    +0.011 A 
ATOM     20  C   UNL     1      -0.592   2.231   3.558  0.00  0.00    +0.047 A 
ATOM     21  C   UNL     1      -1.964   2.441   3.561  0.00  0.00    +0.133 A 
ATOM     22  C   UNL     1      -2.701   2.209   2.409  0.00  0.00    +0.055 A 
ATOM     23  C   UNL     1      -2.067   1.776   1.260  0.00  0.00    +0.025 A 
ATOM     24  I   UNL     1      -4.772   2.524   2.408  0.00  0.00    -0.040 I 
BRANCH  21  25
ATOM     25  O   UNL     1      -2.584   2.872   4.691  0.00  0.00    -0.494 OA
ATOM     26  C   UNL     1      -1.762   3.090   5.839  0.00  0.00    +0.277 C 
ENDBRANCH  21  25
ENDBRANCH  13  18
TORSDOF 2
