REMARK  Name = ZINC39513960
REMARK  7 active torsions:
REMARK  status: ('A' for Active; 'I' for Inactive)
REMARK    1  A    between atoms: C_1  and  C_2
REMARK    2  A    between atoms: C_5  and  N_8
REMARK    3  A    between atoms: C_9  and  C_30
REMARK    4  A    between atoms: C_11  and  C_17
REMARK    5  A    between atoms: N_19  and  C_20
REMARK    6  A    between atoms: C_24  and  N_27
REMARK    7  A    between atoms: C_25  and  C_26
REMARK                            x       y       z     vdW  Elec       q    Type
REMARK                         _______ _______ _______ _____ _____    ______ ____
ROOT
ATOM      1  N   UNL     1       0.533  -4.460   0.102  0.00  0.00    -0.263 N 
ATOM      2  C   UNL     1       0.735  -5.076   1.407  0.00  0.00    +0.130 C 
ATOM      3  C   UNL     1       0.069  -6.451   1.459  0.00  0.00    +0.101 C 
ATOM      4  C   UNL     1       0.521  -7.262   0.238  0.00  0.00    +0.024 C 
ATOM      5  C   UNL     1      -0.066  -6.612  -1.018  0.00  0.00    +0.097 C 
ATOM      6  C   UNL     1       0.191  -5.133  -0.998  0.00  0.00    +0.220 C 
ATOM      7  O   UNL     1       0.086  -4.518  -2.038  0.00  0.00    -0.275 OA
ENDROOT
BRANCH   1  12
ATOM      8  C   UNL     1       1.224   1.155  -0.324  0.00  0.00    +0.044 C 
ATOM      9  C   UNL     1       1.041  -0.337  -0.211  0.00  0.00    -0.050 A 
ATOM     10  C   UNL     1      -0.186  -0.905  -0.501  0.00  0.00    +0.005 A 
ATOM     11  C   UNL     1      -0.358  -2.272  -0.399  0.00  0.00    +0.024 A 
ATOM     12  C   UNL     1       0.704  -3.075  -0.004  0.00  0.00    +0.037 A 
ATOM     13  C   UNL     1       1.935  -2.502   0.286  0.00  0.00    +0.024 A 
ATOM     14  C   UNL     1       2.101  -1.135   0.177  0.00  0.00    +0.005 A 
ENDBRANCH   1  12
BRANCH   2  15
ATOM     15  C   UNL     1       0.132  -4.195   2.471  0.00  0.00    +0.011 A 
ATOM     16  C   UNL     1       0.624  -3.874   3.693  0.00  0.00    +0.013 A 
ATOM     17  C   UNL     1      -0.111  -3.038   4.513  0.00  0.00    +0.008 A 
ATOM     18  C   UNL     1      -1.301  -2.563   4.070  0.00  0.00    +0.045 A 
ATOM     19  S   UNL     1      -1.411  -3.298   2.447  0.00  0.00    -0.100 S 
ENDBRANCH   2  15
BRANCH   3  20
ATOM     20  C   UNL     1      -1.429  -6.290   1.436  0.00  0.00    +0.222 C 
ATOM     21  O   UNL     1      -1.937  -5.443   0.731  0.00  0.00    -0.275 OA
ATOM     22  N   UNL     1      -2.204  -7.086   2.198  0.00  0.00    -0.285 N 
ATOM     23  H   UNL     1      -1.804  -7.806   2.710  0.00  0.00    +0.155 HD
BRANCH  22  24
ATOM     24  C   UNL     1      -3.586  -6.873   2.252  0.00  0.00    +0.038 A 
ATOM     25  C   UNL     1      -4.261  -6.396   1.135  0.00  0.00    +0.024 A 
ATOM     26  C   UNL     1      -5.624  -6.187   1.190  0.00  0.00    +0.004 A 
ATOM     27  C   UNL     1      -6.319  -6.452   2.357  0.00  0.00    +0.033 A 
ATOM     28  C   UNL     1      -5.651  -6.926   3.470  0.00  0.00    +0.131 A 
ATOM     29  C   UNL     1      -4.287  -7.143   3.419  0.00  0.00    +0.001 A 
ATOM     30  C   UNL     1      -3.561  -7.667   4.631  0.00  0.00    +0.048 C 
BRANCH  28  31
ATOM     31  N   UNL     1      -6.398  -7.208   4.717  0.00  0.00    +0.057 N 
ATOM     32  O   UNL     1      -7.499  -7.704   4.662  0.00  0.00    -0.126 OA
ATOM     33  O   UNL     1      -5.907  -6.942   5.789  0.00  0.00    -0.126 OA
ENDBRANCH  28  31
ENDBRANCH  22  24
ENDBRANCH   3  20
TORSDOF 5
