REMARK  Name = ZINC34970181
REMARK  8 active torsions:
REMARK  status: ('A' for Active; 'I' for Inactive)
REMARK    1  A    between atoms: C_1  and  C_2
REMARK    2  A    between atoms: C_2  and  C_3
REMARK    3  A    between atoms: C_3  and  C_5
REMARK    4  A    between atoms: C_3  and  C_6
REMARK    5  A    between atoms: C_6  and  C_8
REMARK    6  A    between atoms: C_6  and  N_20
REMARK    7  A    between atoms: N_10  and  C_11
REMARK    8  A    between atoms: N_23  and  C_24
REMARK                            x       y       z     vdW  Elec       q    Type
REMARK                         _______ _______ _______ _____ _____    ______ ____
ROOT
ATOM      1  C   UNL     1       2.387   0.266   0.703  0.00  0.00    +0.163 C 
ENDROOT
BRANCH   1   2
ATOM      2  N   UNL     1       3.070   1.363   0.014  0.00  0.00    -0.288 N 
ATOM      3  C   UNL     1       2.898   1.538  -1.311  0.00  0.00    +0.304 C 
ATOM      4  O   UNL     1       2.100   0.849  -1.917  0.00  0.00    -0.252 OA
ATOM      5  N   UNL     1       3.611   2.477  -1.965  0.00  0.00    -0.269 N 
ATOM      6  H   UNL     1       3.647   1.964   0.512  0.00  0.00    +0.151 HD
ATOM      7  H   UNL     1       4.300   2.975  -1.498  0.00  0.00    +0.156 HD
BRANCH   5   8
ATOM      8  C   UNL     1       3.356   2.734  -3.317  0.00  0.00    +0.037 A 
ATOM      9  C   UNL     1       3.435   4.031  -3.806  0.00  0.00    +0.023 A 
ATOM     10  C   UNL     1       3.183   4.282  -5.140  0.00  0.00    +0.005 A 
ATOM     11  C   UNL     1       2.851   3.244  -5.990  0.00  0.00    +0.038 A 
ATOM     12  C   UNL     1       2.771   1.949  -5.507  0.00  0.00    +0.125 A 
ATOM     13  C   UNL     1       3.028   1.691  -4.172  0.00  0.00    +0.061 A 
ATOM     14  F   UNL     1       2.446   0.936  -6.340  0.00  0.00    -0.205 F 
ENDBRANCH   5   8
ENDBRANCH   1   2
BRANCH   1  15
ATOM     15  C   UNL     1       3.371  -0.470   1.576  0.00  0.00    +0.238 C 
ATOM     16  O   UNL     1       4.524  -0.099   1.636  0.00  0.00    -0.273 OA
ATOM     17  N   UNL     1       2.969  -1.540   2.291  0.00  0.00    -0.284 N 
ATOM     18  H   UNL     1       2.066  -1.877   2.192  0.00  0.00    +0.155 HD
BRANCH  17  19
ATOM     19  C   UNL     1       3.856  -2.162   3.176  0.00  0.00    +0.034 A 
ATOM     20  C   UNL     1       4.829  -1.416   3.828  0.00  0.00    +0.023 A 
ATOM     21  C   UNL     1       5.701  -2.035   4.700  0.00  0.00    +0.006 A 
ATOM     22  C   UNL     1       5.610  -3.399   4.929  0.00  0.00    -0.044 A 
ATOM     23  C   UNL     1       4.642  -4.145   4.281  0.00  0.00    -0.042 A 
ATOM     24  C   UNL     1       3.762  -3.527   3.410  0.00  0.00    +0.027 A 
ATOM     25  C   UNL     1       4.751  -5.596   4.698  0.00  0.00    +0.036 C 
ATOM     26  C   UNL     1       6.155  -5.732   5.325  0.00  0.00    +0.009 C 
ATOM     27  C   UNL     1       6.435  -4.299   5.824  0.00  0.00    +0.036 C 
ENDBRANCH  17  19
ENDBRANCH   1  15
BRANCH   1  28
ATOM     28  C   UNL     1       1.259   0.830   1.569  0.00  0.00    +0.015 C 
ATOM     29  C   UNL     1       0.175   1.428   0.669  0.00  0.00    +0.010 C 
BRANCH  28  31
ATOM     30  C   UNL     1       2.795   1.295   3.484  0.00  0.00    +0.004 C 
ATOM     31  C   UNL     1       1.818   1.920   2.487  0.00  0.00    +0.002 C 
ENDBRANCH  28  31
ENDBRANCH   1  28
TORSDOF 6
