REMARK  Name = ZINC02917760
REMARK  4 active torsions:
REMARK  status: ('A' for Active; 'I' for Inactive)
REMARK    1  A    between atoms: C_1  and  O_2
REMARK    2  A    between atoms: O_2  and  C_3
REMARK    3  A    between atoms: C_6  and  C_10
REMARK    4  A    between atoms: C_21  and  C_23
REMARK                            x       y       z     vdW  Elec       q    Type
REMARK                         _______ _______ _______ _____ _____    ______ ____
ROOT
ATOM      1  C   UNL     1       2.556  -1.919   4.363  0.00  0.00    +0.159 C 
ATOM      2  C   UNL     1       3.757  -2.708   3.889  0.00  0.00    +0.027 C 
ATOM      3  C   UNL     1       3.724  -4.050   4.014  0.00  0.00    +0.083 C 
ATOM      4  C   UNL     1       4.913  -4.811   3.553  0.00  0.00    +0.042 A 
ATOM      5  C   UNL     1       4.860  -6.181   3.340  0.00  0.00    +0.013 A 
ATOM      6  C   UNL     1       5.991  -6.849   2.909  0.00  0.00    +0.001 A 
ATOM      7  C   UNL     1       7.168  -6.156   2.690  0.00  0.00    +0.004 A 
ATOM      8  C   UNL     1       7.230  -4.790   2.901  0.00  0.00    +0.046 A 
ATOM      9  C   UNL     1       6.106  -4.109   3.334  0.00  0.00    +0.131 A 
ATOM     10  O   UNL     1       6.139  -2.770   3.555  0.00  0.00    -0.479 OA
ATOM     11  C   UNL     1       4.950  -2.025   3.287  0.00  0.00    +0.237 C 
ATOM     12  N   UNL     1       2.649  -4.688   4.540  0.00  0.00    -0.213 NA
ATOM     13  C   UNL     1       1.569  -4.081   4.974  0.00  0.00    +0.237 C 
ATOM     14  N   UNL     1       1.450  -2.710   4.918  0.00  0.00    -0.208 N 
ATOM     15  N   UNL     1       0.199  -2.397   5.451  0.00  0.00    -0.251 N 
ATOM     16  C   UNL     1      -0.380  -3.580   5.798  0.00  0.00    +0.203 C 
ATOM     17  N   UNL     1       0.426  -4.555   5.520  0.00  0.00    -0.205 NA
ATOM     18  H   UNL     1      -0.184  -1.511   5.554  0.00  0.00    +0.171 HD
ENDROOT
BRANCH   1  22
ATOM     19  C   UNL     1       1.056   0.340   1.060  0.00  0.00    +0.134 A 
ATOM     20  C   UNL     1       1.740   0.978   2.085  0.00  0.00    +0.047 A 
ATOM     21  C   UNL     1       2.223   0.245   3.152  0.00  0.00    +0.009 A 
ATOM     22  C   UNL     1       2.026  -1.123   3.199  0.00  0.00    -0.020 A 
ATOM     23  C   UNL     1       1.345  -1.761   2.179  0.00  0.00    +0.024 A 
ATOM     24  C   UNL     1       0.854  -1.032   1.112  0.00  0.00    +0.060 A 
ATOM     25 BR   UNL     1      -0.085  -1.904  -0.278  0.00  0.00    -0.047 Br
BRANCH  19  27
ATOM     26  C   UNL     1       0.823   2.467   0.023  0.00  0.00    +0.277 C 
ATOM     27  O   UNL     1       0.579   1.059   0.010  0.00  0.00    -0.494 OA
ENDBRANCH  19  27
ENDBRANCH   1  22
BRANCH  11  28
ATOM     28  C   UNL     1       4.759  -1.910   1.797  0.00  0.00    +0.032 A 
ATOM     29  C   UNL     1       4.797  -3.043   1.006  0.00  0.00    +0.010 A 
ATOM     30  C   UNL     1       4.622  -2.938  -0.361  0.00  0.00    +0.001 A 
ATOM     31  C   UNL     1       4.409  -1.700  -0.939  0.00  0.00    +0.003 A 
ATOM     32  C   UNL     1       4.370  -0.566  -0.150  0.00  0.00    +0.039 A 
ATOM     33  C   UNL     1       4.540  -0.671   1.220  0.00  0.00    +0.130 A 
ATOM     34  F   UNL     1       4.497   0.436   1.993  0.00  0.00    -0.205 F 
ENDBRANCH  11  28
TORSDOF 3
