REMARK  Name = ZINC45442452
REMARK  12 active torsions:
REMARK  status: ('A' for Active; 'I' for Inactive)
REMARK    1  A    between atoms: C_1  and  C_2
REMARK    2  A    between atoms: C_2  and  C_3
REMARK    3  A    between atoms: C_3  and  C_4
REMARK    4  A    between atoms: C_4  and  C_5
REMARK    5  A    between atoms: C_5  and  C_31
REMARK    6  A    between atoms: N_8  and  C_12
REMARK    7  A    between atoms: C_12  and  C_13
REMARK    8  A    between atoms: C_14  and  C_26
REMARK    9  A    between atoms: C_15  and  C_21
REMARK   10  A    between atoms: C_26  and  O_28
REMARK   11  A    between atoms: O_28  and  C_29
REMARK   12  A    between atoms: C_29  and  C_30
REMARK                            x       y       z     vdW  Elec       q    Type
REMARK                         _______ _______ _______ _____ _____    ______ ____
ROOT
ATOM      1  C   UNL     1      -5.698  -0.572  -1.749  0.00  0.00    +0.169 C 
ENDROOT
BRANCH   1   2
ATOM      2  C   UNL     1      -6.817  -1.570  -1.897  0.00  0.00    +0.042 C 
ATOM      3  C   UNL     1      -7.979  -1.368  -1.240  0.00  0.00    +0.083 C 
ATOM      4  C   UNL     1      -9.078  -2.396  -1.417  0.00  0.00    +0.179 C 
ATOM      5  N   UNL     1      -8.786  -3.539  -2.298  0.00  0.00    -0.285 N 
ATOM      6  C   UNL     1      -7.576  -3.603  -2.887  0.00  0.00    +0.304 C 
ATOM      7  O   UNL     1      -7.325  -4.542  -3.616  0.00  0.00    -0.252 OA
ATOM      8  N   UNL     1      -6.642  -2.662  -2.699  0.00  0.00    -0.271 N 
ATOM      9  H   UNL     1      -9.450  -4.230  -2.451  0.00  0.00    +0.151 HD
ATOM     10  H   UNL     1      -5.792  -2.763  -3.155  0.00  0.00    +0.156 HD
BRANCH   4  11
ATOM     11  C   UNL     1      -9.431  -2.938  -0.056  0.00  0.00    +0.130 A 
ATOM     12  C   UNL     1     -10.488  -2.567   0.689  0.00  0.00    +0.047 A 
ATOM     13  C   UNL     1     -10.434  -3.322   1.882  0.00  0.00    +0.041 A 
ATOM     14  C   UNL     1      -9.348  -4.111   1.796  0.00  0.00    +0.195 A 
ATOM     15  O   UNL     1      -8.747  -3.877   0.617  0.00  0.00    -0.466 OA
ENDBRANCH   4  11
BRANCH   3  16
ATOM     16  C   UNL     1      -8.164  -0.235  -0.413  0.00  0.00    +0.339 C 
ATOM     17  O   UNL     1      -8.054  -0.339   0.795  0.00  0.00    -0.245 OA
BRANCH  16  18
ATOM     18  O   UNL     1      -8.461   0.961  -0.963  0.00  0.00    -0.462 OA
BRANCH  18  19
ATOM     19  C   UNL     1      -8.634   2.062  -0.068  0.00  0.00    +0.229 C 
ATOM     20  C   UNL     1      -8.963   3.323  -0.870  0.00  0.00    +0.048 C 
ENDBRANCH  18  19
ENDBRANCH  16  18
ENDBRANCH   3  16
ENDBRANCH   1   2
BRANCH   1  24
ATOM     21  C   UNL     1      -2.611  -2.348  -0.691  0.00  0.00    +0.138 C 
ATOM     22  C   UNL     1      -3.563  -1.847  -1.760  0.00  0.00    +0.251 C 
ATOM     23  O   UNL     1      -3.456  -1.985  -2.959  0.00  0.00    -0.272 OA
ATOM     24  N   UNL     1      -4.553  -1.215  -1.098  0.00  0.00    -0.218 N 
ATOM     25  C   UNL     1      -4.362  -1.248   0.225  0.00  0.00    +0.310 C 
ATOM     26  O   UNL     1      -5.121  -0.746   1.030  0.00  0.00    -0.252 OA
ATOM     27  N   UNL     1      -3.235  -1.899   0.566  0.00  0.00    -0.281 N 
ATOM     28  H   UNL     1      -2.898  -2.044   1.464  0.00  0.00    +0.152 HD
BRANCH  21  29
ATOM     29  C   UNL     1      -2.514  -3.851  -0.727  0.00  0.00    -0.015 A 
ATOM     30  C   UNL     1      -1.517  -4.461  -1.466  0.00  0.00    +0.009 A 
ATOM     31  C   UNL     1      -1.426  -5.840  -1.499  0.00  0.00    +0.039 A 
ATOM     32  C   UNL     1      -2.333  -6.610  -0.792  0.00  0.00    +0.123 A 
ATOM     33  C   UNL     1      -3.332  -5.998  -0.053  0.00  0.00    +0.039 A 
ATOM     34  C   UNL     1      -3.417  -4.619  -0.017  0.00  0.00    +0.009 A 
ATOM     35  F   UNL     1      -2.246  -7.958  -0.824  0.00  0.00    -0.205 F 
ENDBRANCH  21  29
BRANCH  21  36
ATOM     36  C   UNL     1      -1.229  -1.716  -0.863  0.00  0.00    +0.040 C 
BRANCH  36  37
ATOM     37  C   UNL     1      -1.346  -0.194  -0.751  0.00  0.00    +0.003 C 
BRANCH  37  39
ATOM     38  C   UNL     1      -0.080   1.959  -0.811  0.00  0.00    +0.004 C 
ATOM     39  C   UNL     1       0.037   0.438  -0.923  0.00  0.00    -0.003 C 
ENDBRANCH  37  39
ENDBRANCH  36  37
ENDBRANCH  21  36
ENDBRANCH   1  24
TORSDOF 10
