REMARK  Name = ZINC28182400
REMARK  8 active torsions:
REMARK  status: ('A' for Active; 'I' for Inactive)
REMARK    1  A    between atoms: C_1  and  C_2
REMARK    2  A    between atoms: C_3  and  C_29
REMARK    3  A    between atoms: C_5  and  C_20
REMARK    4  A    between atoms: C_11  and  C_12
REMARK    5  A    between atoms: C_20  and  N_21
REMARK    6  A    between atoms: C_24  and  C_27
REMARK    7  A    between atoms: C_29  and  N_30
REMARK    8  A    between atoms: C_33  and  C_36
REMARK                            x       y       z     vdW  Elec       q    Type
REMARK                         _______ _______ _______ _____ _____    ______ ____
ROOT
ATOM      1  C   UNL     1      -0.211   9.409  -2.080  0.00  0.00    +0.045 C 
ATOM      2  C   UNL     1      -0.374   7.917  -1.952  0.00  0.00    -0.031 A 
ATOM      3  C   UNL     1      -1.362   7.402  -1.161  0.00  0.00    -0.013 A 
ATOM      4  C   UNL     1      -1.518   6.024  -1.045  0.00  0.00    +0.185 A 
ATOM      5  C   UNL     1      -0.671   5.159  -1.720  0.00  0.00    +0.026 A 
ATOM      6  C   UNL     1       0.338   5.666  -2.529  0.00  0.00    +0.145 A 
ATOM      7  C   UNL     1       0.482   7.058  -2.642  0.00  0.00    +0.071 A 
ATOM      8  C   UNL     1       1.619   7.286  -3.553  0.00  0.00    +0.232 C 
ATOM      9  O   UNL     1       2.079   8.353  -3.920  0.00  0.00    -0.283 OA
ATOM     10  C   UNL     1       2.073   5.936  -3.920  0.00  0.00    +0.176 C 
ATOM     11  C   UNL     1       3.105   5.634  -4.748  0.00  0.00    +0.061 C 
ATOM     12  O   UNL     1       1.274   5.048  -3.282  0.00  0.00    -0.451 OA
ATOM     13  O   UNL     1      -2.505   5.522  -0.260  0.00  0.00    -0.287 OA
ENDROOT
BRANCH  11  14
ATOM     14  C   UNL     1       3.542   4.240  -4.900  0.00  0.00    +0.014 A 
ATOM     15  C   UNL     1       2.706   3.193  -4.494  0.00  0.00    +0.011 A 
ATOM     16  C   UNL     1       3.122   1.887  -4.645  0.00  0.00    +0.001 A 
ATOM     17  C   UNL     1       4.366   1.609  -5.185  0.00  0.00    +0.003 A 
ATOM     18  C   UNL     1       5.201   2.636  -5.585  0.00  0.00    +0.039 A 
ATOM     19  C   UNL     1       4.800   3.951  -5.447  0.00  0.00    +0.131 A 
ATOM     20  F   UNL     1       5.616   4.954  -5.836  0.00  0.00    -0.205 F 
ENDBRANCH  11  14
BRANCH   5  21
ATOM     21  C   UNL     1      -0.849   3.669  -1.581  0.00  0.00    -0.035 C 
BRANCH  21  22
ATOM     22  N   UNL     1      -0.039   3.182  -0.457  0.00  0.00    +0.383 N 
ATOM     23  C   UNL     1       0.002   1.714  -0.435  0.00  0.00    -0.078 C 
ATOM     24  C   UNL     1       0.968   1.246   0.656  0.00  0.00    -0.016 C 
ATOM     25  C   UNL     1       0.499   1.781   2.011  0.00  0.00    -0.018 C 
ATOM     26  C   UNL     1       0.417   3.309   1.946  0.00  0.00    -0.016 C 
ATOM     27  C   UNL     1      -0.533   3.718   0.818  0.00  0.00    -0.078 C 
ATOM     28  C   UNL     1       1.494   1.367   3.097  0.00  0.00    +0.007 C 
ATOM     29  H   UNL     1       0.990   3.544  -0.597  0.00  0.00    -0.081 HD
ENDBRANCH  21  22
ENDBRANCH   5  21
BRANCH   3  30
ATOM     30  C   UNL     1      -2.289   8.329  -0.416  0.00  0.00    -0.039 C 
BRANCH  30  31
ATOM     31  N   UNL     1      -3.456   8.632  -1.255  0.00  0.00    +0.382 N 
ATOM     32  C   UNL     1      -3.992   7.412  -1.872  0.00  0.00    -0.078 C 
ATOM     33  C   UNL     1      -5.111   7.781  -2.848  0.00  0.00    -0.016 C 
ATOM     34  C   UNL     1      -6.218   8.521  -2.092  0.00  0.00    -0.018 C 
ATOM     35  C   UNL     1      -5.623   9.761  -1.419  0.00  0.00    -0.016 C 
ATOM     36  C   UNL     1      -4.490   9.335  -0.484  0.00  0.00    -0.078 C 
ATOM     37  C   UNL     1      -7.311   8.947  -3.074  0.00  0.00    +0.007 C 
ATOM     38  H   UNL     1      -3.128   9.301  -2.064  0.00  0.00    -0.081 HD
ENDBRANCH  30  31
ENDBRANCH   3  30
TORSDOF 5
