REMARK  Name = ZINC20353103
REMARK  7 active torsions:
REMARK  status: ('A' for Active; 'I' for Inactive)
REMARK    1  A    between atoms: C_1  and  C_2
REMARK    2  A    between atoms: C_6  and  C_13
REMARK    3  A    between atoms: C_13  and  N_14
REMARK    4  A    between atoms: C_17  and  C_20
REMARK    5  A    between atoms: C_20  and  C_21
REMARK    6  A    between atoms: C_20  and  C_27
REMARK    7  A    between atoms: C_20  and  O_33
REMARK                            x       y       z     vdW  Elec       q    Type
REMARK                         _______ _______ _______ _____ _____    ______ ____
ROOT
ATOM      1  N   UNL     1       2.263   0.288  -3.695  0.00  0.00    +0.382 N 
ATOM      2  C   UNL     1       0.926  -0.269  -3.457  0.00  0.00    -0.078 C 
ATOM      3  C   UNL     1       0.327   0.359  -2.196  0.00  0.00    -0.012 C 
ATOM      4  C   UNL     1       1.242   0.068  -1.003  0.00  0.00    +0.026 C 
ATOM      5  C   UNL     1       2.642   0.615  -1.296  0.00  0.00    -0.012 C 
ATOM      6  C   UNL     1       3.173  -0.020  -2.584  0.00  0.00    -0.078 C 
ATOM      7  H   UNL     1       2.165   1.382  -3.755  0.00  0.00    -0.081 HD
ENDROOT
BRANCH   1   8
ATOM      8  C   UNL     1       2.812  -0.189  -4.972  0.00  0.00    -0.042 C 
BRANCH   8  14
ATOM      9  C   UNL     1       3.441   5.992  -7.344  0.00  0.00    +0.044 C 
ATOM     10  C   UNL     1       3.099   4.560  -7.021  0.00  0.00    -0.047 A 
ATOM     11  C   UNL     1       3.735   3.923  -5.965  0.00  0.00    +0.004 A 
ATOM     12  C   UNL     1       3.438   2.625  -5.657  0.00  0.00    +0.012 A 
ATOM     13  C   UNL     1       2.481   1.936  -6.409  0.00  0.00    +0.019 A 
ATOM     14  C   UNL     1       2.145   0.541  -6.109  0.00  0.00    -0.047 A 
ATOM     15  C   UNL     1       1.212  -0.073  -6.880  0.00  0.00    +0.094 A 
ATOM     16  C   UNL     1       0.602   0.632  -7.939  0.00  0.00    +0.337 A 
ATOM     17  O   UNL     1      -0.234   0.070  -8.624  0.00  0.00    -0.245 OA
ATOM     18  O   UNL     1       0.919   1.908  -8.212  0.00  0.00    -0.422 OA
ATOM     19  C   UNL     1       1.838   2.576  -7.483  0.00  0.00    +0.139 A 
ATOM     20  C   UNL     1       2.156   3.896  -7.778  0.00  0.00    +0.050 A 
ENDBRANCH   8  14
ENDBRANCH   1   8
BRANCH   4  21
ATOM     21  C   UNL     1       0.680   0.745   0.249  0.00  0.00    +0.119 C 
BRANCH  21  22
ATOM     22  C   UNL     1       1.583   0.460   1.421  0.00  0.00    -0.011 A 
ATOM     23  C   UNL     1       2.299  -0.721   1.472  0.00  0.00    +0.007 A 
ATOM     24  C   UNL     1       3.131  -0.980   2.545  0.00  0.00    +0.000 A 
ATOM     25  C   UNL     1       3.239  -0.062   3.573  0.00  0.00    +0.000 A 
ATOM     26  C   UNL     1       2.519   1.117   3.525  0.00  0.00    +0.000 A 
ATOM     27  C   UNL     1       1.691   1.378   2.450  0.00  0.00    +0.007 A 
ENDBRANCH  21  22
BRANCH  21  28
ATOM     28  C   UNL     1      -0.699   0.208   0.534  0.00  0.00    -0.011 A 
ATOM     29  C   UNL     1      -1.026  -1.084   0.170  0.00  0.00    +0.007 A 
ATOM     30  C   UNL     1      -2.290  -1.578   0.436  0.00  0.00    +0.000 A 
ATOM     31  C   UNL     1      -3.228  -0.776   1.058  0.00  0.00    +0.000 A 
ATOM     32  C   UNL     1      -2.902   0.518   1.418  0.00  0.00    +0.000 A 
ATOM     33  C   UNL     1      -1.637   1.010   1.156  0.00  0.00    +0.007 A 
ENDBRANCH  21  28
BRANCH  21  34
ATOM     34  O   UNL     1       0.608   2.156   0.035  0.00  0.00    -0.379 OA
ATOM     35  H   UNL     1       0.226   2.813   0.830  0.00  0.00    +0.211 HD
ENDBRANCH  21  34
ENDBRANCH   4  21
TORSDOF 6
