REMARK  Name = ZINC08893844
REMARK  9 active torsions:
REMARK  status: ('A' for Active; 'I' for Inactive)
REMARK    1  A    between atoms: C_1  and  C_2
REMARK    2  A    between atoms: C_2  and  O_3
REMARK    3  A    between atoms: O_3  and  C_4
REMARK    4  A    between atoms: C_7  and  C_9
REMARK    5  A    between atoms: C_13  and  N_14
REMARK    6  A    between atoms: C_15  and  C_17
REMARK    7  A    between atoms: N_22  and  S_23
REMARK    8  A    between atoms: S_23  and  C_26
REMARK    9  A    between atoms: C_29  and  C_32
REMARK                            x       y       z     vdW  Elec       q    Type
REMARK                         _______ _______ _______ _____ _____    ______ ____
ROOT
ATOM      1  N   UNL     1       5.219   3.822  -1.724  0.00  0.00    -0.278 N 
ATOM      2  C   UNL     1       5.443   4.450  -0.553  0.00  0.00    +0.236 C 
ATOM      3  O   UNL     1       4.529   4.627   0.225  0.00  0.00    -0.274 OA
ATOM      4  H   UNL     1       5.950   3.681  -2.346  0.00  0.00    +0.155 HD
ENDROOT
BRANCH   1   9
ATOM      5  C   UNL     1       3.521   2.719  -3.182  0.00  0.00    +0.069 A 
ATOM      6  C   UNL     1       2.106   2.357  -3.269  0.00  0.00    -0.023 A 
ATOM      7  C   UNL     1       1.360   2.709  -2.207  0.00  0.00    -0.004 A 
ATOM      8  S   UNL     1       2.496   3.512  -1.102  0.00  0.00    -0.077 S 
ATOM      9  C   UNL     1       3.944   3.378  -2.040  0.00  0.00    +0.084 A 
ATOM     10  C   UNL     1      -0.079   2.301  -2.368  0.00  0.00    +0.043 C 
ATOM     11  C   UNL     1      -0.061   1.250  -3.500  0.00  0.00    +0.010 C 
ATOM     12  C   UNL     1       1.203   1.655  -4.284  0.00  0.00    +0.037 C 
BRANCH   5  16
ATOM     13  C   UNL     1       5.975   0.927  -5.251  0.00  0.00    +0.407 C 
ATOM     14  O   UNL     1       6.154   1.718  -6.155  0.00  0.00    -0.226 OA
ATOM     15  N   UNL     1       5.116   1.223  -4.256  0.00  0.00    -0.217 N 
ATOM     16  C   UNL     1       4.455   2.397  -4.264  0.00  0.00    +0.255 C 
ATOM     17  O   UNL     1       4.634   3.190  -5.169  0.00  0.00    -0.270 OA
ATOM     18  H   UNL     1       4.973   0.591  -3.534  0.00  0.00    +0.161 HD
BRANCH  13  19
ATOM     19  O   UNL     1       6.636  -0.246  -5.243  0.00  0.00    -0.450 OA
BRANCH  19  21
ATOM     20  C   UNL     1       8.199  -1.869  -6.166  0.00  0.00    +0.048 C 
ATOM     21  C   UNL     1       7.545  -0.498  -6.347  0.00  0.00    +0.230 C 
ENDBRANCH  19  21
ENDBRANCH  13  19
ENDBRANCH   5  16
ENDBRANCH   1   9
BRANCH   2  22
ATOM     22  C   UNL     1       6.829   4.933  -0.209  0.00  0.00    +0.166 C 
ATOM     23  C   UNL     1       7.519   3.943   0.762  0.00  0.00    +0.031 C 
ATOM     24  C   UNL     1       8.559   4.862   1.456  0.00  0.00    +0.019 C 
ATOM     25  C   UNL     1       7.816   6.211   1.556  0.00  0.00    +0.110 C 
ATOM     26  N   UNL     1       6.760   6.206   0.531  0.00  0.00    -0.165 NA
BRANCH  26  27
ATOM     27  S   UNL     1       5.674   7.426   0.255  0.00  0.00    +0.062 S 
ATOM     28  O   UNL     1       4.622   6.865  -0.519  0.00  0.00    -0.153 OA
ATOM     29  O   UNL     1       5.445   8.057   1.507  0.00  0.00    -0.153 OA
BRANCH  27  30
ATOM     30  C   UNL     1       6.475   8.614  -0.770  0.00  0.00    +0.106 A 
ATOM     31  C   UNL     1       7.089   9.715  -0.202  0.00  0.00    +0.029 A 
ATOM     32  C   UNL     1       7.721  10.645  -1.006  0.00  0.00    +0.005 A 
ATOM     33  C   UNL     1       7.732  10.479  -2.378  0.00  0.00    -0.050 A 
ATOM     34  C   UNL     1       7.114   9.381  -2.946  0.00  0.00    +0.005 A 
ATOM     35  C   UNL     1       6.486   8.449  -2.143  0.00  0.00    +0.029 A 
ATOM     36  C   UNL     1       8.418  11.495  -3.254  0.00  0.00    +0.044 C 
ENDBRANCH  27  30
ENDBRANCH  26  27
ENDBRANCH   2  22
TORSDOF 7
