REMARK  Name = ZINC35560559
REMARK  5 active torsions:
REMARK  status: ('A' for Active; 'I' for Inactive)
REMARK    1  A    between atoms: C_1  and  C_2
REMARK    2  A    between atoms: C_2  and  N_3
REMARK    3  A    between atoms: N_3  and  C_4
REMARK    4  A    between atoms: C_4  and  C_6
REMARK    5  A    between atoms: C_4  and  C_13
REMARK                            x       y       z     vdW  Elec       q    Type
REMARK                         _______ _______ _______ _____ _____    ______ ____
ROOT
ATOM      1  C   UNL     1      -1.356  -1.981   0.004  0.00  0.00    -0.008 C 
ENDROOT
BRANCH   1   2
ATOM      2  C   UNL     1      -0.737  -2.482   1.284  0.00  0.00    -0.057 A 
ATOM      3  C   UNL     1      -1.031  -1.862   2.483  0.00  0.00    +0.003 A 
ATOM      4  C   UNL     1      -0.464  -2.321   3.657  0.00  0.00    +0.015 A 
ATOM      5  C   UNL     1       0.399  -3.402   3.631  0.00  0.00    +0.018 A 
ATOM      6  C   UNL     1       0.694  -4.023   2.430  0.00  0.00    +0.015 A 
ATOM      7  C   UNL     1       0.122  -3.566   1.258  0.00  0.00    +0.003 A 
ATOM      8 BR   UNL     1       1.177  -4.031   5.236  0.00  0.00    -0.050 Br
ENDBRANCH   1   2
BRANCH   1   9
ATOM      9  C   UNL     1      -2.766  -2.502  -0.109  0.00  0.00    -0.035 A 
ATOM     10  C   UNL     1      -3.841  -1.695   0.217  0.00  0.00    +0.026 A 
ATOM     11  C   UNL     1      -5.096  -2.196   0.103  0.00  0.00    +0.056 A 
ATOM     12  S   UNL     1      -4.782  -3.854  -0.478  0.00  0.00    -0.074 S 
ATOM     13  C   UNL     1      -3.000  -3.768  -0.537  0.00  0.00    +0.058 A 
ATOM     14 BR   UNL     1      -1.760  -5.097  -1.058  0.00  0.00    -0.042 Br
ATOM     15 BR   UNL     1      -6.750  -1.355   0.468  0.00  0.00    -0.043 Br
ENDBRANCH   1   9
BRANCH   1  16
ATOM     16  N   UNL     1      -1.376  -0.512   0.012  0.00  0.00    +0.386 N 
ATOM     17  H   UNL     1      -1.848  -0.187   0.843  0.00  0.00    -0.085 HD
ATOM     18  H   UNL     1      -1.864  -0.178  -0.805  0.00  0.00    -0.085 HD
BRANCH  16  20
ATOM     19  C   UNL     1      -0.019   1.526   0.010  0.00  0.00    -0.017 C 
ATOM     20  C   UNL     1       0.002  -0.004   0.002  0.00  0.00    -0.085 C 
ENDBRANCH  16  20
ENDBRANCH   1  16
TORSDOF 4
