REMARK  Name = ZINC50586238
REMARK  8 active torsions:
REMARK  status: ('A' for Active; 'I' for Inactive)
REMARK    1  A    between atoms: C_1  and  C_2
REMARK    2  A    between atoms: C_2  and  C_3
REMARK    3  A    between atoms: C_3  and  C_5
REMARK    4  A    between atoms: C_3  and  N_22
REMARK    5  A    between atoms: C_5  and  C_7
REMARK    6  A    between atoms: C_5  and  N_14
REMARK    7  A    between atoms: C_15  and  C_21
REMARK    8  A    between atoms: C_17  and  C_19
REMARK                            x       y       z     vdW  Elec       q    Type
REMARK                         _______ _______ _______ _____ _____    ______ ____
ROOT
ATOM      1  C   UNL     1       0.630  -2.023  -1.329  0.00  0.00    +0.124 C 
ENDROOT
BRANCH   1   2
ATOM      2  N   UNL     1       1.316  -2.496  -2.534  0.00  0.00    -0.261 N 
ATOM      3  C   UNL     1       2.369  -3.341  -2.569  0.00  0.00    +0.055 A 
ATOM      4  C   UNL     1       2.705  -3.526  -3.868  0.00  0.00    +0.084 A 
ATOM      5  C   UNL     1       1.828  -2.769  -4.652  0.00  0.00    +0.078 A 
ATOM      6  N   UNL     1       0.992  -2.155  -3.853  0.00  0.00    -0.174 NA
ATOM      7  C   UNL     1       1.840  -2.680  -6.156  0.00  0.00    +0.069 C 
ATOM      8 CL   UNL     1       3.996  -4.527  -4.455  0.00  0.00    -0.080 Cl
ATOM      9  C   UNL     1       3.048  -3.965  -1.378  0.00  0.00    +0.067 C 
ENDBRANCH   1   2
BRANCH   1  10
ATOM     10  C   UNL     1      -0.817  -2.441  -1.377  0.00  0.00    -0.011 A 
ATOM     11  C   UNL     1      -1.625  -2.016  -2.415  0.00  0.00    +0.007 A 
ATOM     12  C   UNL     1      -2.952  -2.400  -2.460  0.00  0.00    +0.000 A 
ATOM     13  C   UNL     1      -3.472  -3.209  -1.468  0.00  0.00    +0.001 A 
ATOM     14  C   UNL     1      -2.665  -3.635  -0.430  0.00  0.00    +0.015 A 
ATOM     15  C   UNL     1      -1.335  -3.255  -0.387  0.00  0.00    +0.023 A 
ATOM     16 BR   UNL     1      -0.229  -3.844   1.030  0.00  0.00    -0.050 Br
ENDBRANCH   1  10
BRANCH   1  17
ATOM     17  C   UNL     1       0.718  -0.497  -1.257  0.00  0.00    -0.046 C 
BRANCH  17  18
ATOM     18  N   UNL     1       2.129  -0.090  -1.209  0.00  0.00    +0.382 N 
ATOM     19  H   UNL     1       2.567  -0.491  -0.394  0.00  0.00    -0.090 HD
ATOM     20  H   UNL     1       2.601  -0.415  -2.039  0.00  0.00    -0.090 HD
ATOM     21  H   UNL     1       2.187   0.916  -1.162  0.00  0.00    -0.090 HD
ENDBRANCH  17  18
BRANCH  17  23
ATOM     22  C   UNL     1      -0.019   1.526   0.010  0.00  0.00    +0.002 C 
ATOM     23  C   UNL     1       0.002  -0.004   0.002  0.00  0.00    -0.017 C 
ENDBRANCH  17  23
ENDBRANCH   1  17
TORSDOF 5
