REMARK  Name = ZINC57709865
REMARK  5 active torsions:
REMARK  status: ('A' for Active; 'I' for Inactive)
REMARK    1  A    between atoms: C_3  and  N_19
REMARK    2  A    between atoms: C_4  and  N_13
REMARK    3  A    between atoms: C_6  and  N_7
REMARK    4  A    between atoms: N_19  and  C_20
REMARK    5  A    between atoms: C_20  and  C_21
REMARK                            x       y       z     vdW  Elec       q    Type
REMARK                         _______ _______ _______ _____ _____    ______ ____
ROOT
ATOM      1  C   UNL     1      -0.028   1.364   0.030  0.00  0.00    +0.025 A 
ATOM      2  C   UNL     1       1.147   2.090   0.024  0.00  0.00    +0.026 A 
ATOM      3  C   UNL     1       2.369   1.433  -0.012  0.00  0.00    +0.047 A 
ATOM      4  C   UNL     1       2.411   0.045  -0.041  0.00  0.00    +0.036 A 
ATOM      5  C   UNL     1       1.237  -0.681  -0.035  0.00  0.00    +0.046 A 
ATOM      6  C   UNL     1       0.014  -0.024   0.001  0.00  0.00    +0.032 A 
ENDROOT
BRANCH   4   7
ATOM      7  N   UNL     1       3.642  -0.617  -0.077  0.00  0.00    -0.392 NA
ATOM      8  C   UNL     1       3.774  -1.332  -1.352  0.00  0.00    +0.085 C 
ATOM      9  C   UNL     1       5.153  -1.991  -1.431  0.00  0.00    +0.017 C 
ATOM     10  C   UNL     1       5.307  -2.979  -0.271  0.00  0.00    +0.003 C 
ATOM     11  C   UNL     1       5.093  -2.237   1.051  0.00  0.00    +0.017 C 
ATOM     12  C   UNL     1       3.717  -1.568   1.038  0.00  0.00    +0.085 C 
ATOM     13  H   UNL     1       4.388   0.058   0.007  0.00  0.00    +0.126 HD
ENDBRANCH   4   7
BRANCH   6  14
ATOM     14  N   UNL     1      -1.177  -0.760   0.008  0.00  0.00    -0.330 N 
ATOM     15  C   UNL     1      -2.477  -0.082  -0.088  0.00  0.00    +0.105 C 
ATOM     16  C   UNL     1      -3.269  -0.697  -1.246  0.00  0.00    +0.019 C 
ATOM     17  C   UNL     1      -3.363  -2.212  -1.046  0.00  0.00    +0.003 C 
ATOM     18  C   UNL     1      -1.957  -2.817  -1.048  0.00  0.00    +0.019 C 
ATOM     19  C   UNL     1      -1.150  -2.226   0.106  0.00  0.00    +0.105 C 
ENDBRANCH   6  14
BRANCH   3  20
ATOM     20  N   UNL     1       3.560   2.169  -0.019  0.00  0.00    -0.338 N 
ATOM     21  H   UNL     1       4.414   1.711   0.031  0.00  0.00    +0.146 HD
BRANCH  20  22
ATOM     22  C   UNL     1       3.517   3.631  -0.102  0.00  0.00    +0.142 C 
BRANCH  22  23
ATOM     23  C   UNL     1       4.922   4.177  -0.093  0.00  0.00    +0.034 A 
ATOM     24  C   UNL     1       5.546   4.457  -1.265  0.00  0.00    +0.020 A 
ATOM     25  C   UNL     1       6.909   4.985  -1.222  0.00  0.00    +0.003 A 
ATOM     26  C   UNL     1       7.603   5.290  -2.400  0.00  0.00    +0.059 A 
ATOM     27  C   UNL     1       8.886   5.785  -2.328  0.00  0.00    +0.167 A 
ATOM     28  C   UNL     1       9.497   5.984  -1.084  0.00  0.00    +0.168 A 
ATOM     29  C   UNL     1       8.819   5.686   0.084  0.00  0.00    +0.075 A 
ATOM     30  C   UNL     1       7.525   5.185   0.029  0.00  0.00    +0.053 A 
ATOM     31  N   UNL     1       6.834   4.881   1.184  0.00  0.00    -0.322 N 
ATOM     32  H   UNL     1       7.258   5.019   2.045  0.00  0.00    +0.169 HD
ATOM     33  C   UNL     1       5.580   4.400   1.134  0.00  0.00    +0.254 A 
ATOM     34  O   UNL     1       4.998   4.146   2.175  0.00  0.00    -0.268 OA
ATOM     35  O   UNL     1      10.752   6.478  -1.292  0.00  0.00    -0.453 OA
ATOM     36  C   UNL     1      11.055   6.192  -2.670  0.00  0.00    +0.466 C 
ATOM     37  O   UNL     1       9.764   6.155  -3.307  0.00  0.00    -0.453 OA
ENDBRANCH  22  23
ENDBRANCH  20  22
ENDBRANCH   3  20
TORSDOF 5
