REMARK  Name = ZINC48892666
REMARK  8 active torsions:
REMARK  status: ('A' for Active; 'I' for Inactive)
REMARK    1  A    between atoms: C_1  and  C_2
REMARK    2  A    between atoms: C_3  and  C_18
REMARK    3  A    between atoms: C_4  and  N_8
REMARK    4  A    between atoms: N_5  and  C_7
REMARK    5  A    between atoms: N_8  and  C_9
REMARK    6  A    between atoms: N_8  and  C_10
REMARK    7  A    between atoms: C_10  and  C_11
REMARK    8  A    between atoms: C_18  and  N_19
REMARK                            x       y       z     vdW  Elec       q    Type
REMARK                         _______ _______ _______ _____ _____    ______ ____
ROOT
ATOM      1  C   UNL     1      -0.191   1.614   0.093  0.00  0.00    +0.068 C 
ATOM      2  C   UNL     1      -0.077   0.111   0.113  0.00  0.00    +0.063 A 
ATOM      3  C   UNL     1      -0.080  -0.725  -1.008  0.00  0.00    -0.003 A 
ATOM      4  C   UNL     1       0.043  -2.008  -0.570  0.00  0.00    +0.121 A 
ATOM      5  N   UNL     1       0.120  -1.973   0.780  0.00  0.00    -0.253 N 
ATOM      6  N   UNL     1       0.048  -0.633   1.181  0.00  0.00    -0.175 NA
ATOM      7  C   UNL     1       0.259  -3.132   1.665  0.00  0.00    +0.174 C 
ENDROOT
BRANCH   4   8
ATOM      8  N   UNL     1       0.081  -3.149  -1.367  0.00  0.00    -0.314 N 
ATOM      9  C   UNL     1       1.368  -3.741  -1.737  0.00  0.00    +0.131 C 
BRANCH   8  10
ATOM     10  C   UNL     1      -1.167  -3.757  -1.836  0.00  0.00    +0.142 C 
BRANCH  10  11
ATOM     11  C   UNL     1      -1.699  -4.691  -0.779  0.00  0.00    -0.016 A 
ATOM     12  C   UNL     1      -1.409  -6.041  -0.841  0.00  0.00    +0.006 A 
ATOM     13  C   UNL     1      -1.897  -6.898   0.128  0.00  0.00    +0.000 A 
ATOM     14  C   UNL     1      -2.673  -6.404   1.161  0.00  0.00    +0.001 A 
ATOM     15  C   UNL     1      -2.962  -5.054   1.223  0.00  0.00    +0.015 A 
ATOM     16  C   UNL     1      -2.471  -4.196   0.256  0.00  0.00    +0.023 A 
ATOM     17 BR   UNL     1      -2.861  -2.348   0.345  0.00  0.00    -0.050 Br
ENDBRANCH  10  11
ENDBRANCH   8  10
ENDBRANCH   4   8
BRANCH   3  18
ATOM     18  C   UNL     1      -0.198  -0.284  -2.444  0.00  0.00    -0.045 C 
BRANCH  18  19
ATOM     19  N   UNL     1       1.130   0.078  -2.956  0.00  0.00    +0.381 N 
ATOM     20  H   UNL     1       1.051   0.373  -3.918  0.00  0.00    -0.090 HD
ATOM     21  H   UNL     1       1.510   0.832  -2.403  0.00  0.00    -0.090 HD
ATOM     22  H   UNL     1       1.742  -0.723  -2.899  0.00  0.00    -0.090 HD
ENDBRANCH  18  19
ENDBRANCH   3  18
TORSDOF 5
