REMARK  Name = ZINC00066442
REMARK  3 active torsions:
REMARK  status: ('A' for Active; 'I' for Inactive)
REMARK    1  A    between atoms: C_4  and  C_7
REMARK    2  A    between atoms: C_12  and  N_16
REMARK    3  A    between atoms: C_19  and  C_21
REMARK                            x       y       z     vdW  Elec       q    Type
REMARK                         _______ _______ _______ _____ _____    ______ ____
ROOT
ATOM      1  C   UNL     1       4.057   2.578   0.899  0.00  0.00    +0.002 A 
ATOM      2  C   UNL     1       5.120   3.171   1.493  0.00  0.00    +0.056 A 
ATOM      3  S   UNL     1       4.892   4.900   1.126  0.00  0.00    -0.076 S 
ATOM      4  C   UNL     1       3.389   4.794   0.191  0.00  0.00    +0.114 A 
ATOM      5  C   UNL     1       3.097   3.413   0.185  0.00  0.00    +0.059 A 
ATOM      6  C   UNL     1       1.918   3.043  -0.512  0.00  0.00    +0.166 A 
ATOM      7  N   UNL     1       1.193   3.980  -1.097  0.00  0.00    -0.216 NA
ATOM      8  C   UNL     1       1.523   5.258  -1.047  0.00  0.00    +0.224 A 
ATOM      9  N   UNL     1       2.607   5.664  -0.415  0.00  0.00    -0.228 NA
ENDROOT
BRANCH   1  13
ATOM     10  C   UNL     1       3.529  -1.634   1.113  0.00  0.00    +0.000 A 
ATOM     11  C   UNL     1       4.686  -1.112   0.561  0.00  0.00    +0.001 A 
ATOM     12  C   UNL     1       4.862   0.255   0.489  0.00  0.00    +0.008 A 
ATOM     13  C   UNL     1       3.873   1.110   0.973  0.00  0.00    -0.017 A 
ATOM     14  C   UNL     1       2.712   0.577   1.533  0.00  0.00    +0.008 A 
ATOM     15  C   UNL     1       2.544  -0.791   1.595  0.00  0.00    +0.001 A 
ENDBRANCH   1  13
BRANCH   6  16
ATOM     16  N   UNL     1       1.532   1.705  -0.583  0.00  0.00    -0.221 N 
ATOM     17  C   UNL     1       0.427   1.159  -0.011  0.00  0.00    +0.117 A 
ATOM     18  C   UNL     1       0.417  -0.158  -0.316  0.00  0.00    +0.054 A 
ATOM     19  C   UNL     1       1.546  -0.429  -1.098  0.00  0.00    +0.166 A 
ATOM     20  N   UNL     1       2.214   0.684  -1.258  0.00  0.00    -0.161 NA
BRANCH  19  21
ATOM     21  C   UNL     1       1.928  -1.775  -1.659  0.00  0.00    +0.436 C 
ATOM     22  F   UNL     1       1.256  -1.983  -2.868  0.00  0.00    -0.164 F 
ATOM     23  F   UNL     1       3.309  -1.813  -1.881  0.00  0.00    -0.164 F 
ATOM     24  F   UNL     1       1.574  -2.777  -0.750  0.00  0.00    -0.164 F 
ENDBRANCH  19  21
ENDBRANCH   6  16
TORSDOF 3
