REMARK  Name = ZINC39482532
REMARK  10 active torsions:
REMARK  status: ('A' for Active; 'I' for Inactive)
REMARK    1  A    between atoms: C_1  and  C_2
REMARK    2  A    between atoms: C_2  and  O_3
REMARK    3  A    between atoms: O_3  and  C_4
REMARK    4  A    between atoms: N_7  and  C_11
REMARK    5  A    between atoms: C_13  and  C_28
REMARK    6  A    between atoms: C_16  and  N_17
REMARK    7  A    between atoms: N_17  and  S_18
REMARK    8  A    between atoms: S_18  and  C_21
REMARK    9  A    between atoms: C_26  and  O_27
REMARK   10  A    between atoms: C_33  and  O_34
REMARK                            x       y       z     vdW  Elec       q    Type
REMARK                         _______ _______ _______ _____ _____    ______ ____
ROOT
ATOM      1  C   UNL     1       1.508  -5.033   3.337  0.00  0.00    +0.053 A 
ATOM      2  C   UNL     1       0.446  -5.791   2.873  0.00  0.00    +0.033 A 
ATOM      3  C   UNL     1      -0.219  -6.658   3.739  0.00  0.00    -0.013 A 
ATOM      4  C   UNL     1       0.187  -6.759   5.069  0.00  0.00    +0.010 A 
ATOM      5  C   UNL     1       1.246  -6.003   5.529  0.00  0.00    +0.027 A 
ATOM      6  C   UNL     1       1.913  -5.143   4.668  0.00  0.00    +0.069 A 
ENDROOT
BRANCH   1   9
ATOM      7  C   UNL     1       1.576  -2.463   0.828  0.00  0.00    +0.203 C 
ATOM      8  C   UNL     1       1.745  -2.764   2.321  0.00  0.00    +0.153 C 
ATOM      9  N   UNL     1       2.178  -4.162   2.470  0.00  0.00    -0.323 N 
ATOM     10  C   UNL     1       3.334  -4.620   1.684  0.00  0.00    +0.120 C 
ATOM     11  C   UNL     1       3.103  -4.245   0.216  0.00  0.00    +0.102 C 
ATOM     12  N   UNL     1       2.816  -2.808   0.119  0.00  0.00    -0.289 NA
ATOM     13  H   UNL     1       2.775  -2.511  -0.845  0.00  0.00    +0.124 HD
BRANCH   7  14
ATOM     14  O   UNL     1       1.296  -1.073   0.650  0.00  0.00    -0.361 OA
BRANCH  14  16
ATOM     15  C   UNL     1       0.531   0.763  -0.722  0.00  0.00    +0.034 C 
ATOM     16  C   UNL     1       0.793  -0.742  -0.645  0.00  0.00    +0.158 C 
ENDBRANCH  14  16
ENDBRANCH   7  14
ENDBRANCH   1   9
BRANCH   3  17
ATOM     17  C   UNL     1      -1.357  -7.471   3.246  0.00  0.00    +0.024 A 
ATOM     18  C   UNL     1      -2.391  -6.868   2.534  0.00  0.00    +0.012 A 
ATOM     19  C   UNL     1      -3.448  -7.629   2.077  0.00  0.00    +0.001 A 
ATOM     20  C   UNL     1      -3.484  -8.990   2.324  0.00  0.00    +0.004 A 
ATOM     21  C   UNL     1      -2.464  -9.598   3.030  0.00  0.00    +0.046 A 
ATOM     22  C   UNL     1      -1.394  -8.847   3.489  0.00  0.00    +0.125 A 
BRANCH  22  23
ATOM     23  O   UNL     1      -0.387  -9.445   4.178  0.00  0.00    -0.506 OA
ATOM     24  H   UNL     1      -0.527  -9.473   5.135  0.00  0.00    +0.292 HD
ENDBRANCH  22  23
ENDBRANCH   3  17
BRANCH   6  25
ATOM     25  N   UNL     1       2.990  -4.382   5.136  0.00  0.00    -0.214 N 
ATOM     26  H   UNL     1       3.135  -3.486   4.795  0.00  0.00    +0.174 HD
BRANCH  25  27
ATOM     27  S   UNL     1       4.018  -5.012   6.272  0.00  0.00    +0.076 S 
ATOM     28  O   UNL     1       4.336  -6.330   5.845  0.00  0.00    -0.150 OA
ATOM     29  O   UNL     1       5.013  -4.027   6.510  0.00  0.00    -0.150 OA
BRANCH  27  30
ATOM     30  C   UNL     1       3.102  -5.175   7.769  0.00  0.00    +0.150 A 
ATOM     31  C   UNL     1       2.886  -6.426   8.314  0.00  0.00    +0.032 A 
ATOM     32  C   UNL     1       2.168  -6.555   9.488  0.00  0.00    +0.002 A 
ATOM     33  C   UNL     1       1.664  -5.432  10.120  0.00  0.00    +0.004 A 
ATOM     34  C   UNL     1       1.877  -4.180   9.579  0.00  0.00    +0.047 A 
ATOM     35  C   UNL     1       2.603  -4.047   8.403  0.00  0.00    +0.143 A 
BRANCH  35  36
ATOM     36  O   UNL     1       2.818  -2.815   7.871  0.00  0.00    -0.505 OA
ATOM     37  H   UNL     1       2.123  -2.520   7.269  0.00  0.00    +0.292 HD
ENDBRANCH  35  36
ENDBRANCH  27  30
ENDBRANCH  25  27
ENDBRANCH   6  25
TORSDOF 9
