REMARK  Name = ZINC63502776
REMARK  8 active torsions:
REMARK  status: ('A' for Active; 'I' for Inactive)
REMARK    1  A    between atoms: C_1  and  C_2
REMARK    2  A    between atoms: C_7  and  C_8
REMARK    3  A    between atoms: C_8  and  N_9
REMARK    4  A    between atoms: C_17  and  N_19
REMARK    5  A    between atoms: C_22  and  C_25
REMARK    6  A    between atoms: N_27  and  C_28
REMARK    7  A    between atoms: C_28  and  C_29
REMARK    8  A    between atoms: C_29  and  C_30
REMARK                            x       y       z     vdW  Elec       q    Type
REMARK                         _______ _______ _______ _____ _____    ______ ____
ROOT
ATOM      1  N   UNL     1      -1.588  -0.954   5.180  0.00  0.00    -0.269 NA
ATOM      2  C   UNL     1      -2.270  -1.997   5.956  0.00  0.00    +0.088 C 
ATOM      3  C   UNL     1      -1.511  -2.241   7.262  0.00  0.00    +0.028 C 
ATOM      4  C   UNL     1      -1.453  -0.938   8.064  0.00  0.00    +0.077 C 
ATOM      5  C   UNL     1      -0.781   0.145   7.215  0.00  0.00    +0.028 C 
ATOM      6  C   UNL     1      -1.561   0.320   5.910  0.00  0.00    +0.088 C 
ENDROOT
BRANCH   1  15
ATOM      7  N   UNL     1      -1.388   0.091   3.019  0.00  0.00    -0.293 N 
ATOM      8  C   UNL     1      -2.177   1.200   2.683  0.00  0.00    +0.054 A 
ATOM      9  C   UNL     1      -1.882   2.316   1.908  0.00  0.00    +0.025 A 
ATOM     10  C   UNL     1      -2.835   3.297   1.714  0.00  0.00    +0.002 A 
ATOM     11  C   UNL     1      -4.087   3.173   2.289  0.00  0.00    +0.002 A 
ATOM     12  C   UNL     1      -4.389   2.067   3.060  0.00  0.00    +0.025 A 
ATOM     13  C   UNL     1      -3.437   1.075   3.261  0.00  0.00    +0.051 A 
ATOM     14  N   UNL     1      -3.507  -0.119   3.991  0.00  0.00    -0.312 N 
ATOM     15  C   UNL     1      -2.209  -0.790   3.858  0.00  0.00    +0.236 C 
ATOM     16  H   UNL     1      -4.274  -0.444   4.490  0.00  0.00    +0.149 HD
BRANCH   7  17
ATOM     17  C   UNL     1      -0.004  -0.147   2.604  0.00  0.00    +0.143 C 
BRANCH  17  24
ATOM     18  C   UNL     1       2.502  -0.991   1.440  0.00  0.00    +0.044 C 
ATOM     19  C   UNL     1       1.206  -1.270   0.723  0.00  0.00    -0.046 A 
ATOM     20  C   UNL     1       1.216  -1.934  -0.489  0.00  0.00    +0.003 A 
ATOM     21  C   UNL     1       0.028  -2.190  -1.147  0.00  0.00    +0.000 A 
ATOM     22  C   UNL     1      -1.171  -1.782  -0.592  0.00  0.00    +0.000 A 
ATOM     23  C   UNL     1      -1.181  -1.118   0.620  0.00  0.00    +0.005 A 
ATOM     24  C   UNL     1       0.008  -0.866   1.280  0.00  0.00    -0.027 A 
ENDBRANCH  17  24
ENDBRANCH   7  17
ENDBRANCH   1  15
BRANCH   4  25
ATOM     25  C   UNL     1      -0.655  -1.157   9.324  0.00  0.00    +0.216 C 
ATOM     26  O   UNL     1      -0.179  -2.248   9.558  0.00  0.00    -0.276 OA
ATOM     27  N   UNL     1      -0.470  -0.141  10.190  0.00  0.00    -0.315 N 
ATOM     28  H   UNL     1      -0.851   0.731  10.002  0.00  0.00    +0.149 HD
BRANCH  27  29
ATOM     29  C   UNL     1       0.305  -0.354  11.414  0.00  0.00    +0.108 C 
BRANCH  29  30
ATOM     30  C   UNL     1       0.363   0.949  12.214  0.00  0.00    +0.052 C 
BRANCH  30  31
ATOM     31  C   UNL     1       1.161   0.730  13.474  0.00  0.00    -0.040 C 
ATOM     32  C   UNL     1       2.476   0.987  13.659  0.00  0.00    -0.001 A 
ATOM     33  C   UNL     1       3.517   1.526  12.776  0.00  0.00    +0.010 A 
ATOM     34  C   UNL     1       4.773   1.671  13.256  0.00  0.00    +0.001 A 
ATOM     35  C   UNL     1       5.104   1.321  14.572  0.00  0.00    +0.002 A 
ATOM     36  C   UNL     1       4.202   0.821  15.442  0.00  0.00    +0.026 A 
ATOM     37  C   UNL     1       2.851   0.625  15.044  0.00  0.00    +0.043 A 
ATOM     38  N   UNL     1       1.809   0.163  15.691  0.00  0.00    -0.380 N 
ATOM     39  C   UNL     1       0.651   0.184  14.789  0.00  0.00    +0.144 C 
ATOM     40  H   UNL     1       1.803  -0.139  16.613  0.00  0.00    +0.160 HD
ENDBRANCH  30  31
ENDBRANCH  29  30
ENDBRANCH  27  29
ENDBRANCH   4  25
TORSDOF 7
