REMARK  Name = ZINC06197916
REMARK  14 active torsions:
REMARK  status: ('A' for Active; 'I' for Inactive)
REMARK    1  A    between atoms: C_1  and  C_2
REMARK    2  A    between atoms: C_2  and  C_3
REMARK    3  A    between atoms: C_10  and  C_15
REMARK    4  A    between atoms: C_15  and  C_17
REMARK    5  A    between atoms: C_15  and  N_72
REMARK    6  A    between atoms: N_21  and  C_22
REMARK    7  A    between atoms: C_22  and  C_23
REMARK    8  A    between atoms: C_22  and  C_24
REMARK    9  A    between atoms: C_22  and  C_25
REMARK   10  A    between atoms: C_25  and  C_26
REMARK   11  A    between atoms: C_27  and  C_28
REMARK   12  A    between atoms: C_27  and  N_72
REMARK   13  A    between atoms: C_35  and  C_36
REMARK   14  A    between atoms: C_35  and  N_72
REMARK                            x       y       z     vdW  Elec       q    Type
REMARK                         _______ _______ _______ _____ _____    ______ ____
ROOT
ATOM      1  C   UNL     1       6.206  -1.061   0.082  0.00  0.00    +0.040 C 
ENDROOT
BRANCH   1   9
ATOM      2  C   UNL     1       1.441   1.212  -3.145  0.00  0.00    -0.047 A 
ATOM      3  C   UNL     1       0.488   1.054  -2.147  0.00  0.00    +0.005 A 
ATOM      4  C   UNL     1       0.833   0.522  -0.924  0.00  0.00    +0.026 A 
ATOM      5  C   UNL     1       2.148   0.137  -0.684  0.00  0.00    +0.049 A 
ATOM      6  C   UNL     1       3.111   0.298  -1.698  0.00  0.00    -0.001 A 
ATOM      7  C   UNL     1       2.738   0.841  -2.932  0.00  0.00    +0.013 A 
ATOM      8  C   UNL     1       4.492  -0.110  -1.435  0.00  0.00    +0.017 A 
ATOM      9  C   UNL     1       4.794  -0.631  -0.220  0.00  0.00    +0.011 A 
ATOM     10  C   UNL     1       3.791  -0.771   0.762  0.00  0.00    +0.251 A 
ATOM     11  O   UNL     1       4.084  -1.242   1.848  0.00  0.00    -0.268 OA
ATOM     12  N   UNL     1       2.520  -0.399   0.531  0.00  0.00    -0.322 N 
ATOM     13  H   UNL     1       1.834  -0.513   1.250  0.00  0.00    +0.169 HD
BRANCH   2  15
ATOM     14  C   UNL     1       1.201   3.317  -4.433  0.00  0.00    +0.009 C 
ATOM     15  C   UNL     1       1.040   1.796  -4.475  0.00  0.00    +0.032 C 
ENDBRANCH   2  15
ENDBRANCH   1   9
BRANCH   1  16
ATOM     16  C   UNL     1       7.054  -0.905  -1.154  0.00  0.00    +0.143 A 
ATOM     17  N   UNL     1       7.511   0.217  -1.654  0.00  0.00    -0.115 NA
ATOM     18  N   UNL     1       8.193  -0.065  -2.709  0.00  0.00    -0.023 NA
ATOM     19  N   UNL     1       8.178  -1.338  -2.900  0.00  0.00    -0.043 NA
ATOM     20  N   UNL     1       7.486  -1.891  -1.962  0.00  0.00    -0.225 N 
BRANCH  20  21
ATOM     21  C   UNL     1       7.220  -3.323  -1.806  0.00  0.00    +0.061 C 
ATOM     22  C   UNL     1       7.881  -3.828  -0.522  0.00  0.00    +0.036 C 
ATOM     23  C   UNL     1       5.709  -3.555  -1.727  0.00  0.00    +0.036 C 
BRANCH  21  24
ATOM     24  C   UNL     1       7.790  -4.082  -3.006  0.00  0.00    +0.026 C 
ATOM     25  C   UNL     1       7.512  -5.577  -2.844  0.00  0.00    +0.006 C 
ENDBRANCH  21  24
ENDBRANCH  20  21
ENDBRANCH   1  16
BRANCH   1  26
ATOM     26  N   UNL     1       6.737  -0.230   1.183  0.00  0.00    +0.397 N 
ATOM     27  H   UNL     1       6.167  -0.385   2.023  0.00  0.00    -0.079 HD
BRANCH  26  28
ATOM     28  C   UNL     1       8.135  -0.610   1.475  0.00  0.00    -0.041 C 
BRANCH  28  29
ATOM     29  C   UNL     1       8.532  -0.015   2.801  0.00  0.00    -0.064 A 
ATOM     30  C   UNL     1       9.160   1.216   2.846  0.00  0.00    +0.004 A 
ATOM     31  C   UNL     1       9.520   1.764   4.062  0.00  0.00    +0.038 A 
ATOM     32  C   UNL     1       9.262   1.076   5.235  0.00  0.00    +0.123 A 
ATOM     33  C   UNL     1       8.638  -0.159   5.189  0.00  0.00    +0.038 A 
ATOM     34  C   UNL     1       8.274  -0.703   3.972  0.00  0.00    +0.004 A 
ATOM     35  F   UNL     1       9.618   1.610   6.424  0.00  0.00    -0.205 F 
ENDBRANCH  28  29
ENDBRANCH  26  28
BRANCH  26  36
ATOM     36  C   UNL     1       6.669   1.200   0.814  0.00  0.00    -0.001 C 
BRANCH  36  37
ATOM     37  C   UNL     1       5.324   1.738   1.228  0.00  0.00    +0.089 A 
ATOM     38  C   UNL     1       4.992   2.164   2.460  0.00  0.00    +0.042 A 
ATOM     39  C   UNL     1       3.642   2.581   2.400  0.00  0.00    +0.041 A 
ATOM     40  C   UNL     1       3.230   2.386   1.134  0.00  0.00    +0.195 A 
ATOM     41  O   UNL     1       4.254   1.880   0.428  0.00  0.00    -0.470 OA
ENDBRANCH  36  37
ENDBRANCH  26  36
ENDBRANCH   1  26
TORSDOF 10
