REMARK  Name = ZINC36535766
REMARK  16 active torsions:
REMARK  status: ('A' for Active; 'I' for Inactive)
REMARK    1  A    between atoms: C_1  and  C_2
REMARK    2  A    between atoms: C_2  and  C_3
REMARK    3  A    between atoms: C_2  and  C_4
REMARK    4  A    between atoms: C_2  and  C_5
REMARK    5  A    between atoms: C_5  and  C_6
REMARK    6  A    between atoms: C_6  and  C_7
REMARK    7  A    between atoms: C_6  and  C_8
REMARK    8  A    between atoms: C_6  and  N_9
REMARK    9  A    between atoms: C_10  and  C_12
REMARK   10  A    between atoms: C_12  and  C_14
REMARK   11  A    between atoms: C_12  and  N_23
REMARK   12  A    between atoms: C_15  and  O_22
REMARK   13  A    between atoms: C_17  and  O_21
REMARK   14  A    between atoms: C_19  and  O_20
REMARK   15  A    between atoms: N_23  and  C_24
REMARK   16  A    between atoms: C_25  and  C_27
REMARK                            x       y       z     vdW  Elec       q    Type
REMARK                         _______ _______ _______ _____ _____    ______ ____
ROOT
ATOM      1  C   UNL     1       5.262  -0.562  -4.238  0.00  0.00    +0.199 C 
ENDROOT
BRANCH   1   2
ATOM      2  C   UNL     1       5.557  -2.032  -4.386  0.00  0.00    +0.065 A 
ATOM      3  C   UNL     1       6.587  -2.610  -3.658  0.00  0.00    +0.129 A 
ATOM      4  C   UNL     1       6.858  -3.962  -3.795  0.00  0.00    +0.091 A 
ATOM      5  C   UNL     1       6.100  -4.739  -4.658  0.00  0.00    +0.124 A 
ATOM      6  C   UNL     1       5.070  -4.162  -5.385  0.00  0.00    +0.091 A 
ATOM      7  C   UNL     1       4.795  -2.809  -5.246  0.00  0.00    +0.129 A 
BRANCH   7   8
ATOM      8  O   UNL     1       3.783  -2.245  -5.955  0.00  0.00    -0.506 OA
ATOM      9  H   UNL     1       4.051  -1.903  -6.819  0.00  0.00    +0.292 HD
ENDBRANCH   7   8
BRANCH   5  10
ATOM     10  O   UNL     1       6.367  -6.064  -4.792  0.00  0.00    -0.507 OA
ATOM     11  H   UNL     1       5.880  -6.628  -4.175  0.00  0.00    +0.292 HD
ENDBRANCH   5  10
BRANCH   3  12
ATOM     12  O   UNL     1       7.330  -1.849  -2.812  0.00  0.00    -0.506 OA
ATOM     13  H   UNL     1       7.026  -1.870  -1.895  0.00  0.00    +0.292 HD
ENDBRANCH   3  12
ENDBRANCH   1   2
BRANCH   1  15
ATOM     14  N   UNL     1       3.622  -0.537  -2.386  0.00  0.00    -0.308 N 
ATOM     15  C   UNL     1       4.873  -0.269  -2.812  0.00  0.00    +0.239 C 
ATOM     16  O   UNL     1       5.684   0.209  -2.048  0.00  0.00    -0.273 OA
ATOM     17  H   UNL     1       2.973  -0.919  -2.998  0.00  0.00    +0.149 HD
BRANCH  14  18
ATOM     18  C   UNL     1       3.244  -0.252  -1.000  0.00  0.00    +0.030 C 
ATOM     19  C   UNL     1       3.697   1.161  -0.628  0.00  0.00    +0.031 C 
ATOM     20  C   UNL     1       3.915  -1.264  -0.070  0.00  0.00    +0.031 C 
BRANCH  18  21
ATOM     21  C   UNL     1       1.724  -0.355  -0.855  0.00  0.00    +0.031 C 
BRANCH  21  23
ATOM     22  C   UNL     1       1.020  -0.617  -3.238  0.00  0.00    +0.010 C 
ATOM     23  C   UNL     1       1.050   0.337  -2.041  0.00  0.00    -0.036 C 
ATOM     24  C   UNL     1       1.837   1.595  -2.412  0.00  0.00    +0.010 C 
ATOM     25  C   UNL     1      -0.381   0.723  -1.661  0.00  0.00    +0.010 C 
ENDBRANCH  21  23
ENDBRANCH  18  21
ENDBRANCH  14  18
ENDBRANCH   1  15
BRANCH   1  26
ATOM     26  N   UNL     1       6.455   0.213  -4.588  0.00  0.00    -0.288 N 
ATOM     27  C   UNL     1       7.695  -0.476  -4.954  0.00  0.00    +0.133 C 
ATOM     28  C   UNL     1       6.412   1.560  -4.573  0.00  0.00    +0.231 C 
ATOM     29  O   UNL     1       7.394   2.202  -4.880  0.00  0.00    -0.274 OA
BRANCH  28  30
ATOM     30  C   UNL     1       5.143   2.269  -4.174  0.00  0.00    +0.204 C 
ATOM     31 CL   UNL     1       5.428   4.049  -4.160  0.00  0.00    -0.116 Cl
ENDBRANCH  28  30
ENDBRANCH   1  26
TORSDOF 10
