REMARK  Name = ZINC21239715
REMARK  5 active torsions:
REMARK  status: ('A' for Active; 'I' for Inactive)
REMARK    1  A    between atoms: C_1  and  C_2
REMARK    2  A    between atoms: C_2  and  O_3
REMARK    3  A    between atoms: O_3  and  C_4
REMARK    4  A    between atoms: C_7  and  C_10
REMARK    5  A    between atoms: C_15  and  C_25
REMARK                            x       y       z     vdW  Elec       q    Type
REMARK                         _______ _______ _______ _____ _____    ______ ____
ROOT
ATOM      1  C   UNL     1       1.455  -6.063   1.352  0.00  0.00    +0.032 C 
ATOM      2  C   UNL     1       0.025  -6.581   1.489  0.00  0.00    +0.059 C 
ATOM      3  C   UNL     1       0.039  -8.073   1.777  0.00  0.00    +0.017 C 
ATOM      4  C   UNL     1       1.010  -8.854   1.273  0.00  0.00    +0.037 C 
ATOM      5  C   UNL     1       1.142 -10.345   1.476  0.00  0.00    +0.139 C 
ATOM      6  N   UNL     1      -0.021 -10.977   2.063  0.00  0.00    -0.331 N 
ATOM      7  C   UNL     1      -0.427 -10.669   3.361  0.00  0.00    +0.049 A 
ATOM      8  C   UNL     1      -0.342 -11.599   4.384  0.00  0.00    +0.025 A 
ATOM      9  C   UNL     1      -0.651 -11.215   5.678  0.00  0.00    +0.002 A 
ATOM     10  C   UNL     1      -1.041  -9.917   5.949  0.00  0.00    +0.002 A 
ATOM     11  C   UNL     1      -1.148  -8.991   4.925  0.00  0.00    +0.025 A 
ATOM     12  C   UNL     1      -0.857  -9.378   3.628  0.00  0.00    +0.052 A 
ATOM     13  N   UNL     1      -0.988  -8.514   2.547  0.00  0.00    -0.316 N 
ATOM     14  C   UNL     1       2.039  -8.291   0.483  0.00  0.00    +0.163 C 
ATOM     15  O   UNL     1       2.890  -9.025   0.019  0.00  0.00    -0.292 OA
ATOM     16  C   UNL     1       2.119  -6.822   0.197  0.00  0.00    +0.088 C 
ATOM     17  H   UNL     1      -0.598 -11.712   1.484  0.00  0.00    +0.147 HD
ATOM     18  H   UNL     1      -2.016  -8.188   2.332  0.00  0.00    +0.152 HD
ENDROOT
BRANCH   5  19
ATOM     19  C   UNL     1       2.326 -10.598   2.373  0.00  0.00    +0.015 A 
ATOM     20  C   UNL     1       2.792  -9.596   3.202  0.00  0.00    +0.047 A 
ATOM     21  C   UNL     1       3.880  -9.829   4.026  0.00  0.00    +0.124 A 
ATOM     22  C   UNL     1       4.501 -11.066   4.019  0.00  0.00    +0.041 A 
ATOM     23  C   UNL     1       4.036 -12.069   3.189  0.00  0.00    +0.041 A 
ATOM     24  C   UNL     1       2.945 -11.837   2.369  0.00  0.00    +0.129 A 
ATOM     25  F   UNL     1       2.486 -12.819   1.562  0.00  0.00    -0.205 F 
ATOM     26  F   UNL     1       4.335  -8.849   4.837  0.00  0.00    -0.205 F 
ENDBRANCH   5  19
BRANCH   1  30
ATOM     27  C   UNL     1       1.404  -1.876   0.495  0.00  0.00    +0.121 A 
ATOM     28  C   UNL     1       0.771  -2.768  -0.358  0.00  0.00    +0.046 A 
ATOM     29  C   UNL     1       0.793  -4.122  -0.082  0.00  0.00    +0.007 A 
ATOM     30  C   UNL     1       1.437  -4.586   1.050  0.00  0.00    -0.043 A 
ATOM     31  C   UNL     1       2.064  -3.699   1.905  0.00  0.00    +0.007 A 
ATOM     32  C   UNL     1       2.049  -2.345   1.630  0.00  0.00    +0.046 A 
BRANCH  27  33
ATOM     33  O   UNL     1       1.388  -0.545   0.223  0.00  0.00    -0.492 OA
BRANCH  33  35
ATOM     34  C   UNL     1       0.793   1.387  -1.101  0.00  0.00    +0.048 C 
ATOM     35  C   UNL     1       0.705  -0.134  -0.963  0.00  0.00    +0.225 C 
ENDBRANCH  33  35
ENDBRANCH  27  33
ENDBRANCH   1  30
TORSDOF 4
