REMARK  Name = ZINC52634598
REMARK  6 active torsions:
REMARK  status: ('A' for Active; 'I' for Inactive)
REMARK    1  A    between atoms: C_1  and  O_2
REMARK    2  A    between atoms: O_2  and  C_3
REMARK    3  A    between atoms: C_6  and  C_9
REMARK    4  A    between atoms: C_9  and  C_11
REMARK    5  A    between atoms: C_9  and  N_22
REMARK    6  A    between atoms: C_11  and  N_12
REMARK                            x       y       z     vdW  Elec       q    Type
REMARK                         _______ _______ _______ _____ _____    ______ ____
ROOT
ATOM      1  C   UNL     1      -4.732  -2.597  -0.009  0.00  0.00    -0.020 C 
ENDROOT
BRANCH   1   5
ATOM      2  C   UNL     1      -1.061  -0.420  -0.215  0.00  0.00    +0.120 A 
ATOM      3  C   UNL     1      -2.267   0.259  -0.130  0.00  0.00    +0.046 A 
ATOM      4  C   UNL     1      -3.453  -0.447  -0.064  0.00  0.00    +0.005 A 
ATOM      5  C   UNL     1      -3.438  -1.829  -0.082  0.00  0.00    -0.059 A 
ATOM      6  C   UNL     1      -2.236  -2.508  -0.167  0.00  0.00    +0.005 A 
ATOM      7  C   UNL     1      -1.048  -1.807  -0.239  0.00  0.00    +0.046 A 
BRANCH   2   9
ATOM      8  C   UNL     1       0.018   1.698  -0.251  0.00  0.00    +0.277 C 
ATOM      9  O   UNL     1       0.107   0.272  -0.281  0.00  0.00    -0.495 OA
ENDBRANCH   2   9
ENDBRANCH   1   5
BRANCH   1  10
ATOM     10  N   UNL     1      -4.558  -3.770   0.857  0.00  0.00    +0.385 N 
ATOM     11  C   UNL     1      -4.181  -3.343   2.228  0.00  0.00    -0.078 C 
ATOM     12  C   UNL     1      -4.584  -4.558   3.101  0.00  0.00    -0.020 C 
ATOM     13  C   UNL     1      -5.893  -5.043   2.436  0.00  0.00    -0.020 C 
ATOM     14  C   UNL     1      -5.840  -4.495   0.998  0.00  0.00    -0.078 C 
ATOM     15  H   UNL     1      -3.852  -4.382   0.476  0.00  0.00    -0.081 HD
ENDBRANCH   1  10
BRANCH   1  16
ATOM     16  C   UNL     1      -5.134  -3.054  -1.413  0.00  0.00    +0.095 C 
BRANCH  16  17
ATOM     17  N   UNL     1      -5.434  -1.883  -2.241  0.00  0.00    -0.300 N 
ATOM     18  C   UNL     1      -5.709  -2.037  -3.552  0.00  0.00    +0.302 C 
ATOM     19  O   UNL     1      -5.708  -3.148  -4.047  0.00  0.00    -0.253 OA
ATOM     20  N   UNL     1      -5.984  -0.960  -4.313  0.00  0.00    -0.286 N 
ATOM     21  C   UNL     1      -5.972   0.347  -3.696  0.00  0.00    +0.109 C 
ATOM     22  C   UNL     1      -7.379   0.672  -3.138  0.00  0.00    +0.019 C 
ATOM     23  C   UNL     1      -8.318   0.930  -4.241  0.00  0.00    +0.002 C 
ATOM     24  C   UNL     1      -8.545  -0.262  -5.165  0.00  0.00    +0.002 C 
ATOM     25  C   UNL     1      -7.463  -0.291  -6.218  0.00  0.00    +0.019 C 
ATOM     26  C   UNL     1      -6.281  -1.163  -5.745  0.00  0.00    +0.109 C 
ATOM     27  H   UNL     1      -5.434  -0.997  -1.846  0.00  0.00    +0.150 HD
ENDBRANCH  16  17
ENDBRANCH   1  16
TORSDOF 5
