REMARK  Name = ZINC33002087
REMARK  6 active torsions:
REMARK  status: ('A' for Active; 'I' for Inactive)
REMARK    1  A    between atoms: C_7  and  C_14
REMARK    2  A    between atoms: N_16  and  C_17
REMARK    3  A    between atoms: C_17  and  C_18
REMARK    4  A    between atoms: C_18  and  C_19
REMARK    5  A    between atoms: C_22  and  S_25
REMARK    6  A    between atoms: S_25  and  N_28
REMARK                            x       y       z     vdW  Elec       q    Type
REMARK                         _______ _______ _______ _____ _____    ______ ____
ROOT
ATOM      1  C   UNL     1      -4.317   2.928  -1.303  0.00  0.00    +0.245 C 
ATOM      2  O   UNL     1      -4.519   4.072  -0.944  0.00  0.00    -0.270 OA
ATOM      3  N   UNL     1      -5.332   2.042  -1.332  0.00  0.00    -0.311 N 
ATOM      4  H   UNL     1      -5.149   1.007  -1.657  0.00  0.00    +0.149 HD
ENDROOT
BRANCH   1  11
ATOM      5  C   UNL     1      -2.921   3.220  -5.333  0.00  0.00    +0.001 A 
ATOM      6  C   UNL     1      -1.631   2.812  -5.667  0.00  0.00    +0.002 A 
ATOM      7  C   UNL     1      -0.787   2.312  -4.724  0.00  0.00    +0.028 A 
ATOM      8  C   UNL     1      -1.217   2.204  -3.388  0.00  0.00    +0.072 A 
ATOM      9  C   UNL     1      -2.530   2.620  -3.054  0.00  0.00    +0.013 A 
ATOM     10  C   UNL     1      -3.373   3.129  -4.050  0.00  0.00    +0.011 A 
ATOM     11  C   UNL     1      -2.957   2.509  -1.708  0.00  0.00    +0.051 A 
ATOM     12  C   UNL     1      -2.060   1.995  -0.779  0.00  0.00    -0.013 A 
ATOM     13  C   UNL     1      -0.785   1.608  -1.188  0.00  0.00    +0.046 A 
ATOM     14  N   UNL     1      -0.410   1.719  -2.444  0.00  0.00    -0.251 NA
ATOM     15  C   UNL     1      -0.013   1.086   0.008  0.00  0.00    +0.056 C 
ATOM     16  C   UNL     1      -0.775   1.603   1.245  0.00  0.00    +0.011 C 
ATOM     17  C   UNL     1      -2.216   1.759   0.707  0.00  0.00    +0.038 C 
ENDBRANCH   1  11
BRANCH   3  18
ATOM     18  C   UNL     1      -6.678   2.457  -0.931  0.00  0.00    +0.109 C 
BRANCH  18  19
ATOM     19  C   UNL     1      -7.636   1.270  -1.056  0.00  0.00    +0.054 C 
BRANCH  19  20
ATOM     20  C   UNL     1      -9.021   1.697  -0.644  0.00  0.00    -0.046 A 
ATOM     21  C   UNL     1      -9.418   1.575   0.675  0.00  0.00    +0.005 A 
ATOM     22  C   UNL     1     -10.687   1.970   1.054  0.00  0.00    +0.029 A 
ATOM     23  C   UNL     1     -11.562   2.480   0.113  0.00  0.00    +0.105 A 
ATOM     24  C   UNL     1     -11.167   2.597  -1.207  0.00  0.00    +0.029 A 
ATOM     25  C   UNL     1      -9.896   2.205  -1.585  0.00  0.00    +0.005 A 
BRANCH  23  26
ATOM     26  S   UNL     1     -13.182   2.980   0.595  0.00  0.00    +0.056 S 
ATOM     27  O   UNL     1     -13.118   3.277   1.983  0.00  0.00    -0.153 OA
ATOM     28  O   UNL     1     -13.617   3.929  -0.368  0.00  0.00    -0.153 OA
BRANCH  26  29
ATOM     29  N   UNL     1     -14.169   1.660   0.438  0.00  0.00    -0.204 NA
ATOM     30  H   UNL     1     -15.194   1.931   0.731  0.00  0.00    +0.144 HD
ATOM     31  H   UNL     1     -13.804   0.850   1.088  0.00  0.00    +0.144 HD
ENDBRANCH  26  29
ENDBRANCH  23  26
ENDBRANCH  19  20
ENDBRANCH  18  19
ENDBRANCH   3  18
TORSDOF 6
