REMARK  Name = ZINC63111002
REMARK  7 active torsions:
REMARK  status: ('A' for Active; 'I' for Inactive)
REMARK    1  A    between atoms: C_1  and  O_2
REMARK    2  A    between atoms: O_2  and  C_3
REMARK    3  A    between atoms: C_6  and  C_9
REMARK    4  A    between atoms: C_9  and  C_11
REMARK    5  A    between atoms: C_9  and  C_26
REMARK    6  A    between atoms: C_11  and  N_12
REMARK    7  A    between atoms: C_13  and  C_15
REMARK                            x       y       z     vdW  Elec       q    Type
REMARK                         _______ _______ _______ _____ _____    ______ ____
ROOT
ATOM      1  C   UNL     1      -4.981  -2.629   0.035  0.00  0.00    +0.064 C 
ENDROOT
BRANCH   1   2
ATOM      2  C   UNL     1      -5.103  -3.490  -1.196  0.00  0.00    -0.033 C 
ATOM      3  C   UNL     1      -6.039  -3.392  -2.167  0.00  0.00    -0.000 A 
ATOM      4  C   UNL     1      -7.180  -2.489  -2.362  0.00  0.00    +0.010 A 
ATOM      5  C   UNL     1      -7.956  -2.639  -3.459  0.00  0.00    +0.001 A 
ATOM      6  C   UNL     1      -7.699  -3.633  -4.413  0.00  0.00    +0.002 A 
ATOM      7  C   UNL     1      -6.670  -4.500  -4.304  0.00  0.00    +0.026 A 
ATOM      8  C   UNL     1      -5.789  -4.433  -3.190  0.00  0.00    +0.043 A 
ATOM      9  N   UNL     1      -4.739  -5.147  -2.862  0.00  0.00    -0.380 N 
ATOM     10  C   UNL     1      -4.201  -4.636  -1.597  0.00  0.00    +0.145 C 
ATOM     11  H   UNL     1      -4.377  -5.888  -3.374  0.00  0.00    +0.160 HD
ENDBRANCH   1   2
BRANCH   1  15
ATOM     12  C   UNL     1      -1.200  -0.637   0.010  0.00  0.00    +0.120 A 
ATOM     13  C   UNL     1      -2.375   0.101   0.019  0.00  0.00    +0.046 A 
ATOM     14  C   UNL     1      -3.596  -0.545   0.027  0.00  0.00    +0.008 A 
ATOM     15  C   UNL     1      -3.648  -1.927   0.026  0.00  0.00    -0.038 A 
ATOM     16  C   UNL     1      -2.479  -2.665   0.017  0.00  0.00    +0.008 A 
ATOM     17  C   UNL     1      -1.255  -2.024   0.003  0.00  0.00    +0.046 A 
BRANCH  12  19
ATOM     18  C   UNL     1      -0.017   1.425   0.010  0.00  0.00    +0.277 C 
ATOM     19  O   UNL     1       0.002  -0.004   0.002  0.00  0.00    -0.495 OA
ENDBRANCH  12  19
ENDBRANCH   1  15
BRANCH   1  20
ATOM     20  C   UNL     1      -5.087  -3.506   1.284  0.00  0.00    +0.117 C 
BRANCH  20  21
ATOM     21  N   UNL     1      -6.427  -4.096   1.355  0.00  0.00    -0.310 N 
ATOM     22  C   UNL     1      -6.751  -4.910   2.378  0.00  0.00    +0.244 C 
ATOM     23  O   UNL     1      -5.932  -5.157   3.243  0.00  0.00    -0.270 OA
ATOM     24  H   UNL     1      -7.080  -3.899   0.665  0.00  0.00    +0.149 HD
BRANCH  22  25
ATOM     25  C   UNL     1      -8.101  -5.504   2.450  0.00  0.00    +0.039 A 
ATOM     26  C   UNL     1      -9.041  -5.226   1.454  0.00  0.00    +0.017 A 
ATOM     27  C   UNL     1     -10.301  -5.780   1.519  0.00  0.00    +0.048 A 
ATOM     28  C   UNL     1     -10.640  -6.615   2.574  0.00  0.00    +0.142 A 
ATOM     29  C   UNL     1      -9.705  -6.896   3.573  0.00  0.00    +0.076 A 
ATOM     30  C   UNL     1      -8.439  -6.349   3.510  0.00  0.00    +0.040 A 
ATOM     31  N   UNL     1     -10.067  -7.742   4.632  0.00  0.00    -0.280 N 
ATOM     32  C   UNL     1     -11.173  -8.508   4.509  0.00  0.00    +0.255 C 
ATOM     33  O   UNL     1     -11.523  -9.224   5.423  0.00  0.00    -0.272 OA
ATOM     34  C   UNL     1     -11.971  -8.468   3.230  0.00  0.00    +0.325 C 
ATOM     35  O   UNL     1     -11.880  -7.166   2.647  0.00  0.00    -0.481 OA
ATOM     36  H   UNL     1      -9.532  -7.776   5.440  0.00  0.00    +0.155 HD
ENDBRANCH  22  25
ENDBRANCH  20  21
ENDBRANCH   1  20
TORSDOF 6
