REMARK  Name = ZINC23430501
REMARK  6 active torsions:
REMARK  status: ('A' for Active; 'I' for Inactive)
REMARK    1  A    between atoms: C_1  and  C_2
REMARK    2  A    between atoms: C_3  and  C_12
REMARK    3  A    between atoms: C_4  and  C_7
REMARK    4  A    between atoms: N_14  and  C_15
REMARK    5  A    between atoms: C_15  and  C_17
REMARK    6  A    between atoms: C_15  and  C_18
REMARK                            x       y       z     vdW  Elec       q    Type
REMARK                         _______ _______ _______ _____ _____    ______ ____
ROOT
ATOM      1  C   UNL     1       0.783  -2.395   0.677  0.00  0.00    +0.250 C 
ATOM      2  O   UNL     1       0.209  -3.418   0.355  0.00  0.00    -0.270 OA
ATOM      3  N   UNL     1       2.070  -2.440   1.076  0.00  0.00    -0.305 N 
ATOM      4  H   UNL     1       2.589  -1.515   1.366  0.00  0.00    +0.150 HD
ENDROOT
BRANCH   1   7
ATOM      5  C   UNL     1      -0.933  -1.007   3.046  0.00  0.00    +0.070 C 
ATOM      6  C   UNL     1      -0.685  -0.480   1.656  0.00  0.00    +0.093 A 
ATOM      7  C   UNL     1       0.075  -1.110   0.630  0.00  0.00    +0.107 A 
ATOM      8  C   UNL     1      -0.018  -0.204  -0.438  0.00  0.00    +0.186 A 
ATOM      9  O   UNL     1      -0.772   0.812   0.017  0.00  0.00    -0.353 OA
ATOM     10  N   UNL     1      -1.122   0.637   1.159  0.00  0.00    -0.082 NA
BRANCH   8  11
ATOM     11  C   UNL     1       0.581  -0.337  -1.768  0.00  0.00    +0.058 A 
ATOM     12  C   UNL     1       0.509   0.529  -2.849  0.00  0.00    +0.019 A 
ATOM     13  C   UNL     1       1.177   0.158  -3.991  0.00  0.00    +0.008 A 
ATOM     14  C   UNL     1       1.852  -1.021  -4.012  0.00  0.00    +0.046 A 
ATOM     15  S   UNL     1       1.586  -1.658  -2.421  0.00  0.00    -0.093 S 
ENDBRANCH   8  11
ENDBRANCH   1   7
BRANCH   3  16
ATOM     16  C   UNL     1       2.777  -3.723   1.123  0.00  0.00    +0.101 C 
ATOM     17  C   UNL     1       4.277  -3.485   0.935  0.00  0.00    +0.033 C 
BRANCH  16  18
ATOM     18  C   UNL     1       2.536  -4.380   2.457  0.00  0.00    -0.020 A 
ATOM     19  C   UNL     1       2.162  -3.633   3.531  0.00  0.00    +0.006 A 
ATOM     20  C   UNL     1       1.930  -4.224   4.771  0.00  0.00    +0.001 A 
ATOM     21  C   UNL     1       2.080  -5.565   4.947  0.00  0.00    +0.008 A 
ATOM     22  C   UNL     1       2.470  -6.369   3.863  0.00  0.00    -0.018 A 
ATOM     23  C   UNL     1       2.702  -5.768   2.600  0.00  0.00    -0.013 A 
ATOM     24  C   UNL     1       3.091  -6.573   1.516  0.00  0.00    +0.009 A 
ATOM     25  C   UNL     1       3.241  -7.914   1.692  0.00  0.00    +0.001 A 
ATOM     26  C   UNL     1       3.014  -8.505   2.934  0.00  0.00    +0.001 A 
ATOM     27  C   UNL     1       2.635  -7.758   4.006  0.00  0.00    +0.008 A 
ENDBRANCH  16  18
ENDBRANCH   3  16
TORSDOF 4
