REMARK  Name = ZINC13272364
REMARK  6 active torsions:
REMARK  status: ('A' for Active; 'I' for Inactive)
REMARK    1  A    between atoms: C_1  and  N_2
REMARK    2  A    between atoms: C_11  and  S_12
REMARK    3  A    between atoms: S_12  and  C_13
REMARK    4  A    between atoms: C_13  and  C_14
REMARK    5  A    between atoms: N_16  and  C_17
REMARK    6  A    between atoms: C_18  and  C_25
REMARK                            x       y       z     vdW  Elec       q    Type
REMARK                         _______ _______ _______ _____ _____    ______ ____
ROOT
ATOM      1  C   UNL     1       2.412  -2.728  -0.212  0.00  0.00    +0.228 C 
ATOM      2  O   UNL     1       3.448  -2.107  -0.309  0.00  0.00    -0.275 OA
ATOM      3  N   UNL     1       1.251  -2.076  -0.003  0.00  0.00    -0.283 N 
ATOM      4  H   UNL     1       0.435  -2.575   0.153  0.00  0.00    +0.155 HD
ENDROOT
BRANCH   3   5
ATOM      5  C   UNL     1       1.224  -0.682  -0.013  0.00  0.00    +0.066 A 
ATOM      6  C   UNL     1       0.274  -0.001  -0.787  0.00  0.00    +0.087 A 
ATOM      7  C   UNL     1       0.257   1.396  -0.789  0.00  0.00    +0.037 A 
ATOM      8  C   UNL     1       1.173   2.096  -0.030  0.00  0.00    +0.043 A 
ATOM      9  C   UNL     1       2.110   1.419   0.734  0.00  0.00    +0.042 A 
ATOM     10  C   UNL     1       2.139   0.038   0.745  0.00  0.00    +0.064 A 
ATOM     11 CL   UNL     1       3.318  -0.797   1.706  0.00  0.00    -0.082 Cl
ATOM     12 CL   UNL     1       1.150   3.832  -0.034  0.00  0.00    -0.083 Cl
BRANCH   6  13
ATOM     13  C   UNL     1      -0.702  -0.754  -1.596  0.00  0.00    +0.388 C 
ATOM     14  O   UNL     1      -0.622  -1.964  -1.672  0.00  0.00    -0.241 OA
ATOM     15  O   UNL     1      -1.682  -0.101  -2.251  0.00  0.00    -0.241 OA
ENDBRANCH   6  13
ENDBRANCH   3   5
BRANCH   1  16
ATOM     16  C   UNL     1       2.421  -4.231  -0.323  0.00  0.00    +0.173 C 
BRANCH  16  17
ATOM     17  S   UNL     1       4.115  -4.805  -0.599  0.00  0.00    -0.078 S 
BRANCH  17  28
ATOM     18  C   UNL     1       6.255  -6.804  -1.053  0.00  0.00    +0.154 C 
ATOM     19  N   UNL     1       4.909  -7.364  -0.902  0.00  0.00    -0.290 N 
ATOM     20  C   UNL     1       4.713  -8.703  -0.968  0.00  0.00    +0.269 A 
ATOM     21  O   UNL     1       5.648  -9.464  -1.154  0.00  0.00    -0.266 OA
ATOM     22  C   UNL     1       3.415  -9.187  -0.824  0.00  0.00    +0.102 A 
ATOM     23  C   UNL     1       2.326  -8.322  -0.610  0.00  0.00    +0.086 A 
ATOM     24  C   UNL     1       1.077  -8.946  -0.482  0.00  0.00    +0.036 A 
ATOM     25  C   UNL     1       0.977 -10.290  -0.567  0.00  0.00    +0.048 A 
ATOM     26  S   UNL     1       2.667 -10.795  -0.838  0.00  0.00    -0.090 S 
ATOM     27  N   UNL     1       2.619  -6.989  -0.552  0.00  0.00    -0.223 NA
ATOM     28  C   UNL     1       3.839  -6.543  -0.688  0.00  0.00    +0.172 A 
ENDBRANCH  17  28
ENDBRANCH  16  17
ENDBRANCH   1  16
TORSDOF 5
