REMARK  Name = ZINC20355925
REMARK  5 active torsions:
REMARK  status: ('A' for Active; 'I' for Inactive)
REMARK    1  A    between atoms: C_1  and  C_2
REMARK    2  A    between atoms: C_5  and  S_8
REMARK    3  A    between atoms: S_8  and  C_11
REMARK    4  A    between atoms: N_24  and  C_25
REMARK    5  A    between atoms: C_25  and  C_26
REMARK                            x       y       z     vdW  Elec       q    Type
REMARK                         _______ _______ _______ _____ _____    ______ ____
ROOT
ATOM      1  C   UNL     1       1.295  -7.301  -0.033  0.00  0.00    +0.249 A 
ATOM      2  C   UNL     1       1.273  -6.218  -0.894  0.00  0.00    +0.204 A 
ATOM      3  N   UNL     1       1.258  -4.891  -0.675  0.00  0.00    -0.209 NA
ATOM      4  C   UNL     1       1.237  -4.023  -1.663  0.00  0.00    +0.131 A 
ATOM      5  C   UNL     1       1.224  -4.517  -3.048  0.00  0.00    +0.040 A 
ATOM      6  C   UNL     1       1.210  -3.646  -4.137  0.00  0.00    +0.013 A 
ATOM      7  C   UNL     1       1.206  -4.158  -5.416  0.00  0.00    +0.001 A 
ATOM      8  C   UNL     1       1.222  -5.530  -5.625  0.00  0.00    +0.002 A 
ATOM      9  C   UNL     1       1.242  -6.403  -4.557  0.00  0.00    +0.028 A 
ATOM     10  C   UNL     1       1.247  -5.908  -3.261  0.00  0.00    +0.080 A 
ATOM     11  N   UNL     1       1.268  -6.744  -2.160  0.00  0.00    -0.192 N 
ATOM     12  N   UNL     1       1.288  -8.136  -2.012  0.00  0.00    -0.057 NA
ATOM     13  N   UNL     1       1.303  -8.414  -0.756  0.00  0.00    -0.108 NA
ATOM     14  N   UNL     1       1.222  -2.667  -1.404  0.00  0.00    -0.324 N 
ATOM     15  H   UNL     1       1.204  -1.948  -2.236  0.00  0.00    +0.148 HD
ENDROOT
BRANCH   1  16
ATOM     16  S   UNL     1       1.310  -7.215   1.727  0.00  0.00    +0.047 S 
ATOM     17  O   UNL     1       1.881  -8.432   2.187  0.00  0.00    -0.163 OA
ATOM     18  O   UNL     1       1.847  -5.945   2.067  0.00  0.00    -0.163 OA
BRANCH  16  23
ATOM     19  C   UNL     1      -4.438  -7.206   3.560  0.00  0.00    +0.044 C 
ATOM     20  C   UNL     1      -3.002  -7.209   3.103  0.00  0.00    -0.050 A 
ATOM     21  C   UNL     1      -2.328  -8.405   2.950  0.00  0.00    +0.005 A 
ATOM     22  C   UNL     1      -1.010  -8.407   2.530  0.00  0.00    +0.028 A 
ATOM     23  C   UNL     1      -0.368  -7.213   2.262  0.00  0.00    +0.095 A 
ATOM     24  C   UNL     1      -1.042  -6.016   2.420  0.00  0.00    +0.028 A 
ATOM     25  C   UNL     1      -2.360  -6.014   2.836  0.00  0.00    +0.005 A 
ENDBRANCH  16  23
ENDBRANCH   1  16
BRANCH  14  26
ATOM     26  C   UNL     1       1.228  -2.186  -0.020  0.00  0.00    +0.138 C 
BRANCH  26  27
ATOM     27  C   UNL     1       1.208  -0.679  -0.013  0.00  0.00    -0.030 A 
ATOM     28  C   UNL     1       0.002  -0.004   0.002  0.00  0.00    +0.006 A 
ATOM     29  C   UNL     1      -0.017   1.378   0.010  0.00  0.00    +0.020 A 
ATOM     30  C   UNL     1       1.172   2.086   0.002  0.00  0.00    +0.041 A 
ATOM     31  C   UNL     1       2.379   1.409  -0.013  0.00  0.00    +0.020 A 
ATOM     32  C   UNL     1       2.397   0.027  -0.020  0.00  0.00    +0.006 A 
ATOM     33 CL   UNL     1       1.149   3.821   0.011  0.00  0.00    -0.084 Cl
ENDBRANCH  26  27
ENDBRANCH  14  26
TORSDOF 4
