REMARK  Name = ZINC35134528
REMARK  5 active torsions:
REMARK  status: ('A' for Active; 'I' for Inactive)
REMARK    1  A    between atoms: C_1  and  C_2
REMARK    2  A    between atoms: C_3  and  N_9
REMARK    3  A    between atoms: C_4  and  C_8
REMARK    4  A    between atoms: C_10  and  C_12
REMARK    5  A    between atoms: C_14  and  N_20
REMARK                            x       y       z     vdW  Elec       q    Type
REMARK                         _______ _______ _______ _____ _____    ______ ____
ROOT
ATOM      1  N   UNL     1      -0.053  -0.149  -2.374  0.00  0.00    -0.279 N 
ATOM      2  C   UNL     1       0.356  -0.884  -3.426  0.00  0.00    +0.248 C 
ATOM      3  O   UNL     1       0.673  -2.048  -3.268  0.00  0.00    -0.270 OA
ATOM      4  H   UNL     1      -0.378   0.755  -2.511  0.00  0.00    +0.155 HD
ENDROOT
BRANCH   1   7
ATOM      5  C   UNL     1       2.041   0.586  -0.241  0.00  0.00    +0.067 C 
ATOM      6  C   UNL     1       0.899  -0.389  -0.114  0.00  0.00    +0.054 A 
ATOM      7  C   UNL     1      -0.009  -0.691  -1.077  0.00  0.00    +0.077 A 
ATOM      8  C   UNL     1      -0.897  -1.640  -0.548  0.00  0.00    +0.081 A 
ATOM      9  N   UNL     1      -0.537  -1.899   0.683  0.00  0.00    -0.177 NA
ATOM     10  N   UNL     1       0.595  -1.130   0.983  0.00  0.00    -0.280 N 
ATOM     11  H   UNL     1       1.075  -1.126   1.826  0.00  0.00    +0.189 HD
ATOM     12  C   UNL     1      -2.065  -2.256  -1.273  0.00  0.00    +0.069 C 
ENDBRANCH   1   7
BRANCH   2  13
ATOM     13  C   UNL     1       0.420  -0.278  -4.772  0.00  0.00    +0.041 A 
ATOM     14  C   UNL     1       0.838  -1.039  -5.865  0.00  0.00    +0.047 A 
ATOM     15  C   UNL     1       0.896  -0.468  -7.119  0.00  0.00    +0.147 A 
ATOM     16  C   UNL     1       0.540   0.859  -7.296  0.00  0.00    +0.089 A 
ATOM     17  C   UNL     1       0.124   1.620  -6.215  0.00  0.00    +0.062 A 
ATOM     18  C   UNL     1       0.057   1.058  -4.957  0.00  0.00    +0.034 A 
ATOM     19 CL   UNL     1      -0.319   3.283  -6.446  0.00  0.00    -0.082 Cl
ATOM     20 CL   UNL     1       0.616   1.571  -8.878  0.00  0.00    -0.080 Cl
BRANCH  15  21
ATOM     21  N   UNL     1       1.340  -1.274  -8.278  0.00  0.00    +0.058 N 
ATOM     22  O   UNL     1       1.651  -2.433  -8.125  0.00  0.00    -0.126 OA
ATOM     23  O   UNL     1       1.391  -0.775  -9.378  0.00  0.00    -0.126 OA
ENDBRANCH  15  21
ENDBRANCH   2  13
TORSDOF 3
