REMARK  Name = ZINC18130361
REMARK  8 active torsions:
REMARK  status: ('A' for Active; 'I' for Inactive)
REMARK    1  A    between atoms: C_1  and  C_2
REMARK    2  A    between atoms: C_9  and  O_33
REMARK    3  A    between atoms: N_11  and  N_12
REMARK    4  A    between atoms: N_12  and  C_13
REMARK    5  A    between atoms: C_16  and  S_22
REMARK    6  A    between atoms: C_18  and  N_19
REMARK    7  A    between atoms: S_22  and  N_25
REMARK    8  A    between atoms: N_25  and  C_26
REMARK                            x       y       z     vdW  Elec       q    Type
REMARK                         _______ _______ _______ _____ _____    ______ ____
ROOT
ATOM      1  C   UNL     1      -0.154  -5.307   4.865  0.00  0.00    +0.079 A 
ATOM      2  C   UNL     1      -0.242  -6.385   3.991  0.00  0.00    +0.029 A 
ATOM      3  C   UNL     1       0.027  -7.662   4.443  0.00  0.00    +0.031 A 
ATOM      4  C   UNL     1       0.382  -7.869   5.764  0.00  0.00    +0.113 A 
ATOM      5  C   UNL     1       0.470  -6.799   6.636  0.00  0.00    +0.063 A 
ATOM      6  C   UNL     1       0.209  -5.519   6.190  0.00  0.00    +0.150 A 
ENDROOT
BRANCH   6   7
ATOM      7  N   UNL     1       0.310  -4.374   7.122  0.00  0.00    +0.058 N 
ATOM      8  O   UNL     1       0.744  -3.314   6.734  0.00  0.00    -0.126 OA
ATOM      9  O   UNL     1      -0.041  -4.498   8.273  0.00  0.00    -0.126 OA
ENDBRANCH   6   7
BRANCH   4  10
ATOM     10  S   UNL     1       0.722  -9.500   6.337  0.00  0.00    +0.092 S 
ATOM     11  O   UNL     1       0.501  -9.492   7.740  0.00  0.00    -0.148 OA
ATOM     12  O   UNL     1       0.039 -10.388   5.462  0.00  0.00    -0.148 OA
BRANCH  10  13
ATOM     13  N   UNL     1       2.341  -9.769   6.114  0.00  0.00    -0.098 NA
BRANCH  13  14
ATOM     14  C   UNL     1       2.903 -10.995   6.482  0.00  0.00    +0.074 A 
ATOM     15  C   UNL     1       2.103 -11.990   7.030  0.00  0.00    +0.028 A 
ATOM     16  C   UNL     1       2.661 -13.201   7.392  0.00  0.00    +0.022 A 
ATOM     17  C   UNL     1       4.015 -13.422   7.211  0.00  0.00    +0.041 A 
ATOM     18  C   UNL     1       4.814 -12.432   6.666  0.00  0.00    +0.022 A 
ATOM     19  C   UNL     1       4.260 -11.222   6.297  0.00  0.00    +0.028 A 
ATOM     20 CL   UNL     1       4.713 -14.944   7.669  0.00  0.00    -0.084 Cl
ENDBRANCH  13  14
ENDBRANCH  10  13
ENDBRANCH   4  10
BRANCH   1  21
ATOM     21  N   UNL     1      -0.424  -4.016   4.412  0.00  0.00    -0.235 N 
ATOM     22  H   UNL     1      -0.440  -3.275   5.038  0.00  0.00    +0.174 HD
BRANCH  21  33
ATOM     23  C   UNL     1      -1.908   1.436   0.300  0.00  0.00    +0.046 C 
ATOM     24  C   UNL     1      -1.686  -0.054   0.250  0.00  0.00    -0.024 A 
ATOM     25  C   UNL     1      -1.770  -0.723  -0.951  0.00  0.00    +0.005 A 
ATOM     26  C   UNL     1      -1.568  -2.093  -1.017  0.00  0.00    +0.001 A 
ATOM     27  C   UNL     1      -1.279  -2.809   0.128  0.00  0.00    +0.012 A 
ATOM     28  C   UNL     1      -1.190  -2.151   1.347  0.00  0.00    +0.033 A 
ATOM     29  C   UNL     1      -1.388  -0.757   1.423  0.00  0.00    +0.080 A 
ATOM     30  N   UNL     1      -1.242  -0.355   2.711  0.00  0.00    -0.211 NA
ATOM     31  C   UNL     1      -0.959  -1.345   3.520  0.00  0.00    +0.241 C 
ATOM     32  C   UNL     1      -0.906  -2.587   2.732  0.00  0.00    +0.152 C 
ATOM     33  N   UNL     1      -0.652  -3.806   3.159  0.00  0.00    -0.177 NA
BRANCH  31  34
ATOM     34  O   UNL     1      -0.759  -1.244   4.857  0.00  0.00    -0.491 OA
ATOM     35  H   UNL     1      -0.844  -0.345   5.201  0.00  0.00    +0.294 HD
ENDBRANCH  31  34
ENDBRANCH  21  33
ENDBRANCH   1  21
TORSDOF 7
