REMARK  Name = ZINC34749755
REMARK  9 active torsions:
REMARK  status: ('A' for Active; 'I' for Inactive)
REMARK    1  A    between atoms: C_1  and  C_2
REMARK    2  A    between atoms: C_5  and  C_35
REMARK    3  A    between atoms: C_6  and  C_8
REMARK    4  A    between atoms: C_8  and  N_9
REMARK    5  A    between atoms: C_19  and  C_22
REMARK    6  A    between atoms: N_30  and  C_31
REMARK    7  A    between atoms: C_31  and  C_32
REMARK    8  A    between atoms: C_32  and  C_33
REMARK    9  A    between atoms: C_32  and  C_34
REMARK                            x       y       z     vdW  Elec       q    Type
REMARK                         _______ _______ _______ _____ _____    ______ ____
ROOT
ATOM      1  N   UNL     1       3.006  -3.559   1.537  0.00  0.00    +0.384 N 
ATOM      2  C   UNL     1       4.409  -3.957   1.708  0.00  0.00    -0.059 C 
ATOM      3  C   UNL     1       4.574  -4.681   3.049  0.00  0.00    +0.089 C 
ATOM      4  N   UNL     1       4.054  -3.811   4.115  0.00  0.00    -0.304 N 
ATOM      5  C   UNL     1       2.712  -3.233   3.947  0.00  0.00    +0.089 C 
ATOM      6  C   UNL     1       2.635  -2.578   2.564  0.00  0.00    -0.059 C 
ATOM      7  C   UNL     1       4.802  -3.546   5.236  0.00  0.00    +0.202 A 
ATOM      8  N   UNL     1       5.696  -2.580   5.207  0.00  0.00    -0.208 NA
ATOM      9  C   UNL     1       6.433  -2.300   6.276  0.00  0.00    +0.118 A 
ATOM     10  C   UNL     1       6.299  -3.012   7.480  0.00  0.00    +0.080 A 
ATOM     11  C   UNL     1       7.185  -2.577   8.556  0.00  0.00    +0.004 A 
ATOM     12  C   UNL     1       8.040  -1.555   8.322  0.00  0.00    +0.056 A 
ATOM     13  S   UNL     1       7.704  -1.113   6.628  0.00  0.00    -0.076 S 
ATOM     14  C   UNL     1       5.322  -4.054   7.481  0.00  0.00    +0.264 A 
ATOM     15  O   UNL     1       5.136  -4.725   8.482  0.00  0.00    -0.267 OA
ATOM     16  N   UNL     1       4.604  -4.282   6.366  0.00  0.00    -0.280 N 
ATOM     17  H   UNL     1       2.416  -4.372   1.622  0.00  0.00    -0.081 HD
ENDROOT
BRANCH  11  18
ATOM     18  C   UNL     1       7.147  -3.243   9.880  0.00  0.00    -0.017 A 
ATOM     19  C   UNL     1       5.930  -3.434  10.533  0.00  0.00    +0.008 A 
ATOM     20  C   UNL     1       5.901  -4.055  11.765  0.00  0.00    +0.001 A 
ATOM     21  C   UNL     1       7.077  -4.486  12.353  0.00  0.00    +0.000 A 
ATOM     22  C   UNL     1       8.288  -4.298  11.710  0.00  0.00    +0.001 A 
ATOM     23  C   UNL     1       8.328  -3.684  10.475  0.00  0.00    +0.008 A 
ENDBRANCH  11  18
BRANCH   1  24
ATOM     24  C   UNL     1       2.827  -2.963   0.206  0.00  0.00    -0.043 C 
BRANCH  24  30
ATOM     25  C   UNL     1       5.876  -5.031  -3.180  0.00  0.00    +0.044 C 
ATOM     26  C   UNL     1       4.547  -4.995  -2.471  0.00  0.00    -0.050 A 
ATOM     27  C   UNL     1       3.568  -5.917  -2.789  0.00  0.00    +0.003 A 
ATOM     28  C   UNL     1       2.349  -5.884  -2.138  0.00  0.00    +0.004 A 
ATOM     29  C   UNL     1       2.109  -4.927  -1.169  0.00  0.00    -0.049 A 
ATOM     30  C   UNL     1       3.088  -4.006  -0.850  0.00  0.00    -0.061 A 
ATOM     31  C   UNL     1       4.309  -4.042  -1.498  0.00  0.00    +0.005 A 
ATOM     32  C   UNL     1       0.780  -4.890  -0.460  0.00  0.00    +0.044 C 
ENDBRANCH  24  30
ENDBRANCH   1  24
BRANCH  16  33
ATOM     33  C   UNL     1       3.597  -5.346   6.364  0.00  0.00    +0.131 C 
BRANCH  33  34
ATOM     34  C   UNL     1       4.210  -6.628   5.796  0.00  0.00    +0.003 C 
ATOM     35  C   UNL     1       5.317  -7.121   6.730  0.00  0.00    +0.009 C 
ATOM     36  C   UNL     1       3.127  -7.702   5.678  0.00  0.00    +0.009 C 
ENDBRANCH  33  34
ENDBRANCH  16  33
TORSDOF 5
