REMARK  Name = ZINC19853416
REMARK  4 active torsions:
REMARK  status: ('A' for Active; 'I' for Inactive)
REMARK    1  A    between atoms: C_1  and  N_2
REMARK    2  A    between atoms: C_9  and  N_25
REMARK    3  A    between atoms: C_10  and  C_14
REMARK    4  A    between atoms: N_16  and  C_17
REMARK                            x       y       z     vdW  Elec       q    Type
REMARK                         _______ _______ _______ _____ _____    ______ ____
ROOT
ATOM      1  C   UNL     1       9.184  12.397  -0.665  0.00  0.00    +0.105 C 
ATOM      2  N   UNL     1       8.729  11.017  -0.446  0.00  0.00    -0.301 NA
ATOM      3  C   UNL     1       9.529  10.067  -1.234  0.00  0.00    +0.090 C 
ATOM      4  C   UNL     1       9.275   8.658  -0.698  0.00  0.00    +0.071 C 
ATOM      5  C   UNL     1       7.792   8.402  -0.607  0.00  0.00    +0.048 A 
ATOM      6  C   UNL     1       6.875   9.438  -0.635  0.00  0.00    -0.011 A 
ATOM      7  C   UNL     1       5.524   9.168  -0.542  0.00  0.00    +0.019 A 
ATOM      8  C   UNL     1       5.089   7.827  -0.423  0.00  0.00    +0.029 A 
ATOM      9  C   UNL     1       3.731   7.316  -0.321  0.00  0.00    +0.053 A 
ATOM     10  C   UNL     1       3.552   5.954  -0.209  0.00  0.00    +0.097 A 
ATOM     11  S   UNL     1       5.215   5.315  -0.252  0.00  0.00    -0.062 S 
ATOM     12  C   UNL     1       6.104   6.844  -0.407  0.00  0.00    +0.111 A 
ATOM     13  N   UNL     1       7.378   7.150  -0.496  0.00  0.00    -0.244 NA
ATOM     14  C   UNL     1       7.306  10.876  -0.771  0.00  0.00    +0.121 C 
ENDROOT
BRANCH  10  15
ATOM     15  C   UNL     1       2.337   5.234  -0.094  0.00  0.00    +0.257 C 
ATOM     16  O   UNL     1       1.275   5.830  -0.081  0.00  0.00    -0.269 OA
ATOM     17  N   UNL     1       2.356   3.890   0.000  0.00  0.00    -0.280 N 
ATOM     18  H   UNL     1       3.316   3.358   0.079  0.00  0.00    +0.155 HD
BRANCH  17  19
ATOM     19  C   UNL     1       1.156   3.171  -0.003  0.00  0.00    +0.054 A 
ATOM     20  C   UNL     1       0.023   3.711  -0.597  0.00  0.00    +0.044 A 
ATOM     21  C   UNL     1      -1.161   2.998  -0.599  0.00  0.00    +0.043 A 
ATOM     22  C   UNL     1      -1.216   1.745  -0.014  0.00  0.00    +0.021 A 
ATOM     23  C   UNL     1      -0.092   1.207   0.583  0.00  0.00    +0.023 A 
ATOM     24  C   UNL     1       1.095   1.915   0.588  0.00  0.00    +0.062 A 
ATOM     25 CL   UNL     1       2.509   1.236   1.333  0.00  0.00    -0.082 Cl
ATOM     26 CL   UNL     1      -2.578   3.672  -1.341  0.00  0.00    -0.083 Cl
ENDBRANCH  17  19
ENDBRANCH  10  15
BRANCH   9  27
ATOM     27  N   UNL     1       2.643   8.177  -0.332  0.00  0.00    -0.356 N 
ATOM     28  H   UNL     1       1.622   7.776  -0.254  0.00  0.00    +0.142 HD
ATOM     29  H   UNL     1       2.802   9.262  -0.418  0.00  0.00    +0.142 HD
ENDBRANCH   9  27
TORSDOF 3
