REMARK  Name = ZINC15730928
REMARK  7 active torsions:
REMARK  status: ('A' for Active; 'I' for Inactive)
REMARK    1  A    between atoms: C_1  and  C_2
REMARK    2  A    between atoms: C_10  and  S_15
REMARK    3  A    between atoms: S_15  and  N_18
REMARK    4  A    between atoms: N_18  and  C_19
REMARK    5  A    between atoms: C_19  and  C_20
REMARK    6  A    between atoms: C_20  and  C_21
REMARK    7  A    between atoms: C_21  and  N_56
REMARK                            x       y       z     vdW  Elec       q    Type
REMARK                         _______ _______ _______ _____ _____    ______ ____
ROOT
ATOM      1  S   UNL     1      -1.456   1.774   0.019  0.00  0.00    +0.058 S 
ATOM      2  O   UNL     1      -2.475   0.784  -0.009  0.00  0.00    -0.153 OA
ATOM      3  O   UNL     1      -1.369   2.749   1.049  0.00  0.00    -0.153 OA
ENDROOT
BRANCH   1  12
ATOM      4  C   UNL     1      -3.047   7.321  -6.074  0.00  0.00    +0.020 C 
ATOM      5  C   UNL     1      -3.154   6.170  -5.071  0.00  0.00    +0.057 C 
ATOM      6  C   UNL     1      -2.925   6.698  -3.644  0.00  0.00    +0.110 C 
ATOM      7  C   UNL     1      -1.463   6.921  -3.396  0.00  0.00    +0.218 C 
ATOM      8  O   UNL     1      -0.973   7.998  -3.661  0.00  0.00    -0.275 OA
ATOM      9  N   UNL     1      -0.689   5.955  -2.888  0.00  0.00    -0.284 N 
ATOM     10  C   UNL     1      -1.174   4.642  -2.781  0.00  0.00    +0.049 A 
ATOM     11  C   UNL     1      -1.087   3.951  -1.584  0.00  0.00    +0.053 A 
ATOM     12  C   UNL     1      -1.571   2.658  -1.502  0.00  0.00    +0.107 A 
ATOM     13  C   UNL     1      -2.149   2.056  -2.605  0.00  0.00    +0.030 A 
ATOM     14  C   UNL     1      -2.243   2.741  -3.803  0.00  0.00    +0.018 A 
ATOM     15  C   UNL     1      -1.755   4.035  -3.893  0.00  0.00    +0.029 A 
ATOM     16  S   UNL     1      -1.858   4.932  -5.408  0.00  0.00    -0.120 S 
ATOM     17  H   UNL     1       0.211   6.162  -2.591  0.00  0.00    +0.155 HD
ENDBRANCH   1  12
BRANCH   1  18
ATOM     18  N   UNL     1      -0.011   0.966   0.007  0.00  0.00    -0.190 NA
ATOM     19  H   UNL     1       0.002  -0.004   0.002  0.00  0.00    +0.148 HD
BRANCH  18  20
ATOM     20  C   UNL     1       1.248   1.716  -0.001  0.00  0.00    +0.104 C 
BRANCH  20  21
ATOM     21  C   UNL     1       2.402   0.777   0.357  0.00  0.00    -0.002 C 
BRANCH  21  22
ATOM     22  C   UNL     1       3.717   1.560   0.348  0.00  0.00    -0.078 C 
BRANCH  22  29
ATOM     23  C   UNL     1       4.648   0.093   2.047  0.00  0.00    -0.079 C 
ATOM     24  C   UNL     1       5.878  -0.613   2.550  0.00  0.00    -0.019 C 
ATOM     25  C   UNL     1       6.712   0.386   3.379  0.00  0.00    -0.002 C 
ATOM     26  C   UNL     1       7.481   1.295   2.536  0.00  0.00    -0.002 C 
ATOM     27  C   UNL     1       6.576   2.155   1.630  0.00  0.00    -0.019 C 
ATOM     28  C   UNL     1       6.132   1.316   0.463  0.00  0.00    -0.079 C 
ATOM     29  N   UNL     1       4.811   0.625   0.651  0.00  0.00    +0.380 N 
ATOM     30  H   UNL     1       4.763  -0.165  -0.003  0.00  0.00    -0.082 HD
ENDBRANCH  22  29
ENDBRANCH  21  22
ENDBRANCH  20  21
ENDBRANCH  18  20
ENDBRANCH   1  18
TORSDOF 6
