REMARK  Name = ZINC08821621
REMARK  6 active torsions:
REMARK  status: ('A' for Active; 'I' for Inactive)
REMARK    1  A    between atoms: C_1  and  C_2
REMARK    2  A    between atoms: C_2  and  C_3
REMARK    3  A    between atoms: C_3  and  C_4
REMARK    4  A    between atoms: C_4  and  C_5
REMARK    5  A    between atoms: C_8  and  N_11
REMARK    6  A    between atoms: C_25  and  C_27
REMARK                            x       y       z     vdW  Elec       q    Type
REMARK                         _______ _______ _______ _____ _____    ______ ____
ROOT
ATOM      1  N   UNL     1       2.134  -3.978   0.040  0.00  0.00    -0.224 N 
ATOM      2  C   UNL     1       1.325  -2.933   0.095  0.00  0.00    +0.263 C 
ATOM      3  O   UNL     1       0.122  -3.059   0.220  0.00  0.00    -0.269 OA
ATOM      4  C   UNL     1       1.968  -1.596  -0.009  0.00  0.00    +0.090 C 
ATOM      5  C   UNL     1       1.395  -0.339   0.012  0.00  0.00    +0.065 C 
ATOM      6  C   UNL     1      -0.045  -0.006  -0.028  0.00  0.00    +0.010 A 
ATOM      7  C   UNL     1      -1.201  -0.779  -0.093  0.00  0.00    +0.010 A 
ATOM      8  C   UNL     1      -2.436  -0.163  -0.116  0.00  0.00    +0.001 A 
ATOM      9  C   UNL     1      -2.523   1.218  -0.074  0.00  0.00    +0.002 A 
ATOM     10  C   UNL     1      -1.383   1.994  -0.004  0.00  0.00    +0.024 A 
ATOM     11  C   UNL     1      -0.130   1.393   0.015  0.00  0.00    +0.052 A 
ATOM     12  N   UNL     1       1.155   1.930   0.078  0.00  0.00    -0.206 N 
ATOM     13  C   UNL     1       2.088   0.963   0.079  0.00  0.00    +0.259 C 
ATOM     14  O   UNL     1       3.292   1.131   0.127  0.00  0.00    -0.269 OA
ATOM     15  C   UNL     1       1.426   3.249   0.130  0.00  0.00    +0.223 C 
ATOM     16  O   UNL     1       0.522   4.051   0.224  0.00  0.00    -0.275 OA
ATOM     17  C   UNL     1       2.854   3.727   0.070  0.00  0.00    +0.110 C 
ATOM     18  S   UNL     1       3.687  -2.063  -0.161  0.00  0.00    -0.060 S 
ATOM     19  C   UNL     1       3.467  -3.834  -0.091  0.00  0.00    +0.125 C 
ATOM     20  S   UNL     1       4.664  -5.055  -0.173  0.00  0.00    -0.027 S 
ENDROOT
BRANCH   1  24
ATOM     21  C   UNL     1       0.521  -7.813   0.300  0.00  0.00    -0.047 A 
ATOM     22  C   UNL     1       0.234  -7.016  -0.793  0.00  0.00    +0.005 A 
ATOM     23  C   UNL     1       0.766  -5.745  -0.882  0.00  0.00    +0.024 A 
ATOM     24  C   UNL     1       1.591  -5.267   0.128  0.00  0.00    +0.043 A 
ATOM     25  C   UNL     1       1.883  -6.072   1.221  0.00  0.00    +0.024 A 
ATOM     26  C   UNL     1       1.343  -7.340   1.307  0.00  0.00    +0.005 A 
BRANCH  21  27
ATOM     27  C   UNL     1      -0.061  -9.200   0.394  0.00  0.00    +0.035 C 
BRANCH  27  28
ATOM     28  C   UNL     1       0.892 -10.199  -0.263  0.00  0.00    +0.004 C 
BRANCH  28  30
ATOM     29  C   UNL     1       1.255 -12.607  -0.826  0.00  0.00    +0.004 C 
ATOM     30  C   UNL     1       0.301 -11.607  -0.168  0.00  0.00    -0.003 C 
ENDBRANCH  28  30
ENDBRANCH  27  28
ENDBRANCH  21  27
ENDBRANCH   1  24
TORSDOF 4
