REMARK  Name = ZINC20243816
REMARK  8 active torsions:
REMARK  status: ('A' for Active; 'I' for Inactive)
REMARK    1  A    between atoms: C_1  and  C_2
REMARK    2  A    between atoms: C_5  and  C_22
REMARK    3  A    between atoms: C_6  and  N_8
REMARK    4  A    between atoms: C_9  and  C_21
REMARK    5  A    between atoms: C_10  and  C_15
REMARK    6  A    between atoms: C_12  and  C_13
REMARK    7  A    between atoms: N_16  and  N_17
REMARK    8  A    between atoms: C_18  and  C_20
REMARK                            x       y       z     vdW  Elec       q    Type
REMARK                         _______ _______ _______ _____ _____    ______ ____
ROOT
ATOM      1  N   UNL     1       0.050  -2.798   2.395  0.00  0.00    -0.316 N 
ATOM      2  C   UNL     1       1.173  -3.174   3.065  0.00  0.00    +0.031 A 
ATOM      3  C   UNL     1       0.794  -3.843   4.194  0.00  0.00    +0.030 A 
ATOM      4  C   UNL     1      -0.672  -3.862   4.187  0.00  0.00    +0.048 A 
ATOM      5  C   UNL     1      -1.061  -3.209   3.076  0.00  0.00    +0.036 A 
ATOM      6  C   UNL     1      -2.487  -2.974   2.651  0.00  0.00    +0.065 C 
ATOM      7 BR   UNL     1      -1.798  -4.646   5.489  0.00  0.00    -0.048 Br
ATOM      8  C   UNL     1       2.591  -2.899   2.636  0.00  0.00    +0.064 C 
ENDROOT
BRANCH   1  14
ATOM      9  C   UNL     1      -0.018   1.503   0.010  0.00  0.00    +0.044 C 
ATOM     10  C   UNL     1       0.002  -0.004   0.002  0.00  0.00    -0.048 A 
ATOM     11  C   UNL     1       0.006  -0.688  -1.200  0.00  0.00    +0.004 A 
ATOM     12  C   UNL     1       0.024  -2.071  -1.212  0.00  0.00    +0.005 A 
ATOM     13  C   UNL     1       0.039  -2.773  -0.022  0.00  0.00    -0.027 A 
ATOM     14  C   UNL     1       0.035  -2.089   1.186  0.00  0.00    +0.050 A 
ATOM     15  C   UNL     1       0.023  -0.700   1.194  0.00  0.00    +0.029 A 
ATOM     16  C   UNL     1       0.059  -4.279  -0.036  0.00  0.00    +0.046 C 
ENDBRANCH   1  14
BRANCH   3  17
ATOM     17  C   UNL     1       1.681  -4.428   5.215  0.00  0.00    +0.141 C 
ATOM     18  N   UNL     1       1.174  -5.040   6.242  0.00  0.00    -0.188 NA
BRANCH  18  19
ATOM     19  N   UNL     1       2.018  -5.596   7.212  0.00  0.00    -0.207 N 
ATOM     20  C   UNL     1       1.492  -6.231   8.278  0.00  0.00    +0.229 C 
ATOM     21  O   UNL     1       0.287  -6.320   8.398  0.00  0.00    -0.274 OA
ATOM     22  C   UNL     1       2.399  -6.830   9.322  0.00  0.00    +0.111 C 
ATOM     23  H   UNL     1       2.980  -5.525   7.116  0.00  0.00    +0.177 HD
ENDBRANCH  18  19
ENDBRANCH   3  17
TORSDOF 3
