REMARK  Name = ZINC53073726
REMARK  3 active torsions:
REMARK  status: ('A' for Active; 'I' for Inactive)
REMARK    1  A    between atoms: N_10  and  C_14
REMARK    2  A    between atoms: C_14  and  C_20
REMARK    3  A    between atoms: C_20  and  O_21
REMARK                            x       y       z     vdW  Elec       q    Type
REMARK                         _______ _______ _______ _____ _____    ______ ____
ROOT
ATOM      1  C   UNL     1       0.609   1.487  -1.141  0.00  0.00    +0.000 C 
ATOM      2  C   UNL     1       2.029   1.977  -0.850  0.00  0.00    +0.001 C 
ATOM      3  C   UNL     1       2.433   1.558   0.565  0.00  0.00    +0.008 C 
ATOM      4  C   UNL     1       2.383   0.034   0.679  0.00  0.00    -0.013 C 
ATOM      5  C   UNL     1       0.966  -0.458   0.386  0.00  0.00    +0.008 C 
ATOM      6  C   UNL     1       0.562  -0.038  -1.030  0.00  0.00    +0.001 C 
ATOM      7  C   UNL     1       2.792  -0.390   2.092  0.00  0.00    +0.103 C 
ATOM      8  C   UNL     1       2.854  -1.893   2.159  0.00  0.00    +0.223 C 
ATOM      9  O   UNL     1       2.633  -2.450   3.213  0.00  0.00    -0.275 OA
ATOM     10  N   UNL     1       3.147  -2.627   1.075  0.00  0.00    -0.234 N 
ATOM     11  C   UNL     1       3.390  -2.079  -0.125  0.00  0.00    +0.223 C 
ATOM     12  O   UNL     1       3.639  -2.800  -1.067  0.00  0.00    -0.275 OA
ATOM     13  C   UNL     1       3.360  -0.587  -0.324  0.00  0.00    +0.103 C 
ENDROOT
BRANCH  10  14
ATOM     14  C   UNL     1       3.204  -4.085   1.208  0.00  0.00    +0.068 C 
ATOM     15  C   UNL     1       3.299  -4.459   2.689  0.00  0.00    +0.029 C 
ATOM     16  C   UNL     1       4.563  -3.842   3.291  0.00  0.00    +0.002 C 
ATOM     17  C   UNL     1       5.792  -4.373   2.551  0.00  0.00    +0.000 C 
ATOM     18  C   UNL     1       5.698  -3.999   1.071  0.00  0.00    +0.002 C 
ATOM     19  C   UNL     1       4.434  -4.616   0.469  0.00  0.00    +0.029 C 
BRANCH  14  20
ATOM     20  C   UNL     1       1.941  -4.702   0.606  0.00  0.00    +0.182 C 
BRANCH  20  21
ATOM     21  O   UNL     1       0.789  -4.144   1.241  0.00  0.00    -0.393 OA
ATOM     22  H   UNL     1      -0.051  -4.490   0.908  0.00  0.00    +0.209 HD
ENDBRANCH  20  21
ENDBRANCH  14  20
ENDBRANCH  10  14
TORSDOF 3
