REMARK  Name = ZINC08908173
REMARK  9 active torsions:
REMARK  status: ('A' for Active; 'I' for Inactive)
REMARK    1  A    between atoms: C_1  and  O_2
REMARK    2  A    between atoms: O_2  and  C_3
REMARK    3  A    between atoms: C_6  and  N_9
REMARK    4  A    between atoms: C_11  and  C_16
REMARK    5  A    between atoms: C_22  and  S_24
REMARK    6  A    between atoms: S_24  and  C_25
REMARK    7  A    between atoms: C_25  and  C_26
REMARK    8  A    between atoms: N_28  and  C_29
REMARK    9  A    between atoms: C_29  and  C_30
REMARK                            x       y       z     vdW  Elec       q    Type
REMARK                         _______ _______ _______ _____ _____    ______ ____
ROOT
ATOM      1  C   UNL     1       3.376  -5.329   6.384  0.00  0.00    +0.224 C 
ATOM      2  O   UNL     1       2.311  -5.901   6.282  0.00  0.00    -0.275 OA
ATOM      3  N   UNL     1       4.250  -5.698   7.340  0.00  0.00    -0.263 N 
ATOM      4  C   UNL     1       3.932  -6.737   8.211  0.00  0.00    +0.189 A 
ATOM      5  N   UNL     1       2.846  -7.491   8.275  0.00  0.00    -0.125 NA
ATOM      6  N   UNL     1       2.715  -8.402   9.137  0.00  0.00    -0.133 NA
ATOM      7  C   UNL     1       3.656  -8.661  10.032  0.00  0.00    +0.160 A 
ATOM      8  S   UNL     1       4.878  -7.439   9.560  0.00  0.00    -0.024 S 
ATOM      9  H   UNL     1       5.102  -5.241   7.421  0.00  0.00    +0.157 HD
ENDROOT
BRANCH   1  12
ATOM     10  N   UNL     1       2.540  -2.503   4.231  0.00  0.00    -0.271 N 
ATOM     11  C   UNL     1       2.575  -3.957   4.434  0.00  0.00    +0.127 C 
ATOM     12  C   UNL     1       3.720  -4.205   5.441  0.00  0.00    +0.102 C 
ATOM     13  C   UNL     1       3.781  -2.853   6.189  0.00  0.00    +0.110 C 
ATOM     14  C   UNL     1       3.210  -1.859   5.202  0.00  0.00    +0.221 C 
ATOM     15  O   UNL     1       3.336  -0.654   5.277  0.00  0.00    -0.275 OA
BRANCH  10  19
ATOM     16  C   UNL     1       0.626  -0.619   1.042  0.00  0.00    +0.120 A 
ATOM     17  C   UNL     1       1.190   0.139   2.058  0.00  0.00    +0.047 A 
ATOM     18  C   UNL     1       1.824  -0.484   3.115  0.00  0.00    +0.027 A 
ATOM     19  C   UNL     1       1.897  -1.870   3.160  0.00  0.00    +0.036 A 
ATOM     20  C   UNL     1       1.333  -2.628   2.142  0.00  0.00    +0.027 A 
ATOM     21  C   UNL     1       0.694  -2.003   1.089  0.00  0.00    +0.047 A 
BRANCH  16  23
ATOM     22  C   UNL     1      -0.030   1.425   0.018  0.00  0.00    +0.277 C 
ATOM     23  O   UNL     1       0.002  -0.004   0.002  0.00  0.00    -0.495 OA
ENDBRANCH  16  23
ENDBRANCH  10  19
ENDBRANCH   1  12
BRANCH   7  24
ATOM     24  S   UNL     1       3.698  -9.866  11.317  0.00  0.00    -0.088 S 
BRANCH  24  25
ATOM     25  C   UNL     1       2.110 -10.729  11.161  0.00  0.00    +0.172 C 
BRANCH  25  26
ATOM     26  C   UNL     1       2.015 -11.801  12.216  0.00  0.00    +0.224 C 
ATOM     27  O   UNL     1       2.928 -11.966  12.996  0.00  0.00    -0.275 OA
ATOM     28  N   UNL     1       0.914 -12.575  12.292  0.00  0.00    -0.308 N 
ATOM     29  H   UNL     1       0.184 -12.443  11.668  0.00  0.00    +0.149 HD
BRANCH  28  30
ATOM     30  C   UNL     1       0.822 -13.617  13.317  0.00  0.00    +0.178 C 
BRANCH  30  31
ATOM     31  C   UNL     1      -0.497 -14.334  13.188  0.00  0.00    +0.122 A 
ATOM     32  C   UNL     1      -0.729 -15.427  12.438  0.00  0.00    +0.046 A 
ATOM     33  C   UNL     1      -2.092 -15.760  12.610  0.00  0.00    +0.041 A 
ATOM     34  C   UNL     1      -2.612 -14.851  13.454  0.00  0.00    +0.195 A 
ATOM     35  O   UNL     1      -1.640 -13.993  13.805  0.00  0.00    -0.466 OA
ENDBRANCH  30  31
ENDBRANCH  28  30
ENDBRANCH  25  26
ENDBRANCH  24  25
ENDBRANCH   7  24
TORSDOF 8
