REMARK  Name = ZINC27578624
REMARK  13 active torsions:
REMARK  status: ('A' for Active; 'I' for Inactive)
REMARK    1  A    between atoms: C_1  and  C_2
REMARK    2  A    between atoms: C_2  and  N_3
REMARK    3  A    between atoms: N_3  and  C_4
REMARK    4  A    between atoms: N_3  and  C_6
REMARK    5  A    between atoms: C_4  and  C_5
REMARK    6  A    between atoms: C_6  and  C_8
REMARK    7  A    between atoms: C_6  and  C_28
REMARK    8  A    between atoms: C_8  and  N_9
REMARK    9  A    between atoms: C_10  and  C_12
REMARK   10  A    between atoms: C_12  and  N_13
REMARK   11  A    between atoms: C_16  and  C_20
REMARK   12  A    between atoms: C_16  and  C_21
REMARK   13  A    between atoms: C_24  and  C_27
REMARK                            x       y       z     vdW  Elec       q    Type
REMARK                         _______ _______ _______ _____ _____    ______ ____
ROOT
ATOM      1  N   UNL     1      -3.709  -7.834  -2.693  0.00  0.00    -0.315 N 
ATOM      2  C   UNL     1      -2.898  -7.172  -1.844  0.00  0.00    +0.231 C 
ATOM      3  O   UNL     1      -2.082  -7.781  -1.185  0.00  0.00    -0.274 OA
ATOM      4  H   UNL     1      -4.414  -7.277  -3.327  0.00  0.00    +0.149 HD
ENDROOT
BRANCH   1   5
ATOM      5  C   UNL     1      -3.651  -9.296  -2.771  0.00  0.00    +0.093 C 
BRANCH   5   6
ATOM      6  C   UNL     1      -4.699  -9.795  -3.767  0.00  0.00    -0.019 C 
BRANCH   6   7
ATOM      7  C   UNL     1      -5.068 -11.219  -3.437  0.00  0.00    -0.041 A 
ATOM      8  C   UNL     1      -4.127 -12.223  -3.560  0.00  0.00    +0.003 A 
ATOM      9  C   UNL     1      -4.465 -13.529  -3.258  0.00  0.00    +0.000 A 
ATOM     10  C   UNL     1      -5.745 -13.831  -2.831  0.00  0.00    +0.001 A 
ATOM     11  C   UNL     1      -6.687 -12.827  -2.707  0.00  0.00    +0.020 A 
ATOM     12  C   UNL     1      -6.348 -11.519  -3.005  0.00  0.00    +0.043 A 
ATOM     13 CL   UNL     1      -7.528 -10.257  -2.842  0.00  0.00    -0.083 Cl
ENDBRANCH   6   7
BRANCH   6  14
ATOM     14  N   UNL     1      -4.149  -9.735  -5.128  0.00  0.00    +0.385 N 
ATOM     15  H   UNL     1      -3.353 -10.490  -5.205  0.00  0.00    -0.081 HD
BRANCH  14  17
ATOM     16  C   UNL     1      -5.242 -11.576  -6.317  0.00  0.00    -0.017 C 
ATOM     17  C   UNL     1      -5.177 -10.060  -6.126  0.00  0.00    -0.081 C 
ENDBRANCH  14  17
BRANCH  14  18
ATOM     18  C   UNL     1      -3.552  -8.420  -5.397  0.00  0.00    -0.081 C 
ATOM     19  C   UNL     1      -2.115  -8.604  -5.891  0.00  0.00    -0.017 C 
ENDBRANCH  14  18
ENDBRANCH   6  14
ENDBRANCH   5   6
ENDBRANCH   1   5
BRANCH   2  20
ATOM     20  C   UNL     1      -3.006  -5.675  -1.712  0.00  0.00    +0.213 C 
BRANCH  20  21
ATOM     21  N   UNL     1      -2.111  -5.212  -0.648  0.00  0.00    -0.215 N 
ATOM     22  C   UNL     1      -0.828  -4.849  -0.843  0.00  0.00    +0.251 C 
ATOM     23  O   UNL     1      -0.220  -4.843  -1.891  0.00  0.00    -0.272 OA
ATOM     24  C   UNL     1      -0.305  -4.447   0.522  0.00  0.00    +0.135 C 
ATOM     25  N   UNL     1      -1.462  -4.651   1.410  0.00  0.00    -0.281 N 
ATOM     26  C   UNL     1      -2.468  -5.098   0.636  0.00  0.00    +0.310 C 
ATOM     27  O   UNL     1      -3.576  -5.367   1.057  0.00  0.00    -0.252 OA
ATOM     28  C   UNL     1       0.861  -5.347   0.937  0.00  0.00    +0.047 C 
ATOM     29  H   UNL     1      -1.375  -4.435   2.486  0.00  0.00    +0.152 HD
BRANCH  24  30
ATOM     30  C   UNL     1       0.117  -3.001   0.524  0.00  0.00    -0.015 A 
ATOM     31  C   UNL     1       0.032  -2.257   1.686  0.00  0.00    +0.006 A 
ATOM     32  C   UNL     1       0.419  -0.930   1.688  0.00  0.00    +0.004 A 
ATOM     33  C   UNL     1       0.891  -0.347   0.527  0.00  0.00    -0.050 A 
ATOM     34  C   UNL     1       0.972  -1.089  -0.636  0.00  0.00    +0.004 A 
ATOM     35  C   UNL     1       0.590  -2.417  -0.637  0.00  0.00    +0.006 A 
ATOM     36  C   UNL     1       1.313   1.100   0.529  0.00  0.00    +0.044 C 
ENDBRANCH  24  30
ENDBRANCH  20  21
ENDBRANCH   2  20
TORSDOF 9
