REMARK  Name = ZINC20153232
REMARK  9 active torsions:
REMARK  status: ('A' for Active; 'I' for Inactive)
REMARK    1  A    between atoms: C_4  and  N_14
REMARK    2  A    between atoms: C_6  and  C_7
REMARK    3  A    between atoms: C_10  and  C_12
REMARK    4  A    between atoms: C_12  and  O_13
REMARK    5  A    between atoms: N_14  and  C_15
REMARK    6  A    between atoms: C_15  and  N_17
REMARK    7  A    between atoms: C_18  and  C_20
REMARK    8  A    between atoms: C_22  and  N_32
REMARK    9  A    between atoms: C_25  and  N_26
REMARK                            x       y       z     vdW  Elec       q    Type
REMARK                         _______ _______ _______ _____ _____    ______ ____
ROOT
ATOM      1  C   UNL     1       3.665  -1.982   0.058  0.00  0.00    +0.141 C 
ATOM      2  S   UNL     1       2.203  -2.873   0.068  0.00  0.00    -0.018 S 
ENDROOT
BRANCH   1   3
ATOM      3  N   UNL     1       4.846  -2.624   0.144  0.00  0.00    -0.264 N 
ATOM      4  C   UNL     1       4.878  -3.968   0.238  0.00  0.00    +0.251 C 
ATOM      5  O   UNL     1       3.840  -4.601   0.246  0.00  0.00    -0.270 OA
ATOM      6  H   UNL     1       5.675  -2.119   0.139  0.00  0.00    +0.157 HD
BRANCH   4   7
ATOM      7  C   UNL     1       6.170  -4.670   0.333  0.00  0.00    +0.060 A 
ATOM      8  C   UNL     1       7.365  -3.946   0.331  0.00  0.00    +0.047 A 
ATOM      9  C   UNL     1       8.569  -4.609   0.420  0.00  0.00    +0.127 A 
ATOM     10  C   UNL     1       8.603  -5.992   0.511  0.00  0.00    +0.034 A 
ATOM     11  C   UNL     1       7.432  -6.721   0.515  0.00  0.00    +0.026 A 
ATOM     12  C   UNL     1       6.207  -6.070   0.431  0.00  0.00    +0.042 A 
BRANCH  12  13
ATOM     13  N   UNL     1       5.027  -6.801   0.440  0.00  0.00    -0.329 N 
ATOM     14  C   UNL     1       4.438  -7.288  -0.815  0.00  0.00    +0.105 C 
ATOM     15  C   UNL     1       4.208  -8.798  -0.699  0.00  0.00    +0.019 C 
ATOM     16  C   UNL     1       3.364  -9.087   0.545  0.00  0.00    +0.003 C 
ATOM     17  C   UNL     1       4.113  -8.615   1.793  0.00  0.00    +0.019 C 
ATOM     18  C   UNL     1       4.346  -7.108   1.705  0.00  0.00    +0.105 C 
ENDBRANCH  12  13
BRANCH   9  19
ATOM     19  N   UNL     1       9.834  -3.840   0.418  0.00  0.00    +0.056 N 
ATOM     20  O   UNL     1       9.809  -2.634   0.338  0.00  0.00    -0.126 OA
ATOM     21  O   UNL     1      10.893  -4.418   0.496  0.00  0.00    -0.126 OA
ENDBRANCH   9  19
ENDBRANCH   4   7
ENDBRANCH   1   3
BRANCH   1  22
ATOM     22  N   UNL     1       3.634  -0.638  -0.036  0.00  0.00    -0.295 N 
ATOM     23  H   UNL     1       4.461  -0.138  -0.122  0.00  0.00    +0.154 HD
BRANCH  22  27
ATOM     24  C   UNL     1      -0.019   1.387   0.025  0.00  0.00    +0.013 A 
ATOM     25  C   UNL     1       0.950   1.733  -0.895  0.00  0.00    +0.022 A 
ATOM     26  C   UNL     1       2.160   1.064  -0.916  0.00  0.00    +0.062 A 
ATOM     27  C   UNL     1       2.408   0.037  -0.011  0.00  0.00    +0.052 A 
ATOM     28  C   UNL     1       1.441  -0.317   0.916  0.00  0.00    +0.036 A 
ATOM     29  C   UNL     1       0.221   0.359   0.938  0.00  0.00    +0.019 A 
ATOM     30 CL   UNL     1       3.373   1.505  -2.078  0.00  0.00    -0.082 Cl
BRANCH  29  31
ATOM     31  C   UNL     1      -0.815  -0.013   1.924  0.00  0.00    +0.135 A 
ATOM     32  C   UNL     1      -2.042   0.560   2.047  0.00  0.00    +0.050 A 
ATOM     33  C   UNL     1      -2.694  -0.101   3.108  0.00  0.00    +0.047 A 
ATOM     34  C   UNL     1      -1.842  -1.034   3.575  0.00  0.00    +0.131 A 
ATOM     35  O   UNL     1      -0.710  -0.982   2.854  0.00  0.00    -0.457 OA
BRANCH  34  36
ATOM     36  C   UNL     1      -2.115  -1.982   4.714  0.00  0.00    +0.230 C 
BRANCH  36  37
ATOM     37  O   UNL     1      -2.708  -3.179   4.205  0.00  0.00    -0.387 OA
ATOM     38  H   UNL     1      -2.912  -3.836   4.884  0.00  0.00    +0.210 HD
ENDBRANCH  36  37
ENDBRANCH  34  36
ENDBRANCH  29  31
ENDBRANCH  22  27
ENDBRANCH   1  22
TORSDOF 9
