REMARK  Name = ZINC01259815
REMARK  7 active torsions:
REMARK  status: ('A' for Active; 'I' for Inactive)
REMARK    1  A    between atoms: C_1  and  C_2
REMARK    2  A    between atoms: C_2  and  O_3
REMARK    3  A    between atoms: O_3  and  C_4
REMARK    4  A    between atoms: C_6  and  C_11
REMARK    5  A    between atoms: C_9  and  O_10
REMARK    6  A    between atoms: N_15  and  C_19
REMARK    7  A    between atoms: C_23  and  O_25
REMARK                            x       y       z     vdW  Elec       q    Type
REMARK                         _______ _______ _______ _____ _____    ______ ____
ROOT
ATOM      1  C   UNL     1       6.065   1.450  -0.228  0.00  0.00    +0.028 C 
ATOM      2  C   UNL     1       4.847   1.007   0.176  0.00  0.00    +0.078 C 
ATOM      3  C   UNL     1       3.733   1.750   0.797  0.00  0.00    +0.263 C 
ATOM      4  O   UNL     1       3.810   2.943   1.027  0.00  0.00    -0.269 OA
ATOM      5  N   UNL     1       2.647   1.055   1.092  0.00  0.00    -0.223 N 
ATOM      6  C   UNL     1       2.568  -0.268   0.841  0.00  0.00    +0.125 C 
ATOM      7  S   UNL     1       1.265  -1.333   1.153  0.00  0.00    -0.027 S 
ATOM      8  S   UNL     1       4.151  -0.638   0.102  0.00  0.00    -0.061 S 
ENDROOT
BRANCH   1  11
ATOM      9  C   UNL     1       5.666   5.154  -0.665  0.00  0.00    +0.162 A 
ATOM     10  C   UNL     1       5.386   3.801  -0.665  0.00  0.00    +0.057 A 
ATOM     11  C   UNL     1       6.357   2.889  -0.234  0.00  0.00    -0.020 A 
ATOM     12  C   UNL     1       7.610   3.353   0.185  0.00  0.00    +0.012 A 
ATOM     13  C   UNL     1       7.881   4.704   0.178  0.00  0.00    +0.050 A 
ATOM     14  C   UNL     1       6.916   5.607  -0.245  0.00  0.00    +0.158 A 
BRANCH  14  15
ATOM     15  O   UNL     1       7.190   6.938  -0.251  0.00  0.00    -0.503 OA
ATOM     16  H   UNL     1       7.571   7.257  -1.081  0.00  0.00    +0.292 HD
ENDBRANCH  14  15
BRANCH   9  17
ATOM     17  O   UNL     1       4.724   6.043  -1.078  0.00  0.00    -0.489 OA
BRANCH  17  19
ATOM     18  C   UNL     1       2.542   6.651  -1.921  0.00  0.00    +0.048 C 
ATOM     19  C   UNL     1       3.466   5.508  -1.494  0.00  0.00    +0.226 C 
ENDBRANCH  17  19
ENDBRANCH   9  17
ENDBRANCH   1  11
BRANCH   5  20
ATOM     20  C   UNL     1       1.557   1.706   1.684  0.00  0.00    +0.046 A 
ATOM     21  C   UNL     1       0.356   1.819   0.995  0.00  0.00    +0.024 A 
ATOM     22  C   UNL     1      -0.718   2.461   1.578  0.00  0.00    +0.005 A 
ATOM     23  C   UNL     1      -0.602   2.993   2.848  0.00  0.00    +0.045 A 
ATOM     24  C   UNL     1       0.593   2.879   3.544  0.00  0.00    +0.119 A 
ATOM     25  C   UNL     1       1.675   2.240   2.959  0.00  0.00    +0.069 A 
BRANCH  24  26
ATOM     26  O   UNL     1       0.704   3.397   4.795  0.00  0.00    -0.507 OA
ATOM     27  H   UNL     1       1.005   4.316   4.815  0.00  0.00    +0.292 HD
ENDBRANCH  24  26
ENDBRANCH   5  20
TORSDOF 6
