REMARK  Name = ZINC66081465
REMARK  6 active torsions:
REMARK  status: ('A' for Active; 'I' for Inactive)
REMARK    1  A    between atoms: C_1  and  C_2
REMARK    2  A    between atoms: C_5  and  C_7
REMARK    3  A    between atoms: C_9  and  C_12
REMARK    4  A    between atoms: C_12  and  N_13
REMARK    5  A    between atoms: C_15  and  C_24
REMARK    6  A    between atoms: C_16  and  C_18
REMARK                            x       y       z     vdW  Elec       q    Type
REMARK                         _______ _______ _______ _____ _____    ______ ____
ROOT
ATOM      1  N   UNL     1       5.444  -3.557  -1.272  0.00  0.00    -0.264 N 
ATOM      2  C   UNL     1       6.259  -2.535  -0.970  0.00  0.00    +0.122 A 
ATOM      3  C   UNL     1       6.769  -2.036  -2.151  0.00  0.00    +0.082 A 
ATOM      4  C   UNL     1       6.191  -2.848  -3.226  0.00  0.00    +0.105 A 
ATOM      5  N   UNL     1       5.414  -3.741  -2.657  0.00  0.00    -0.170 NA
ENDROOT
BRANCH   4   6
ATOM      6  C   UNL     1       6.439  -2.692  -4.680  0.00  0.00    +0.003 A 
ATOM      7  C   UNL     1       7.735  -2.486  -5.150  0.00  0.00    +0.010 A 
ATOM      8  C   UNL     1       7.960  -2.342  -6.504  0.00  0.00    +0.001 A 
ATOM      9  C   UNL     1       6.903  -2.403  -7.394  0.00  0.00    +0.000 A 
ATOM     10  C   UNL     1       5.614  -2.607  -6.933  0.00  0.00    +0.001 A 
ATOM     11  C   UNL     1       5.378  -2.757  -5.582  0.00  0.00    +0.010 A 
ENDBRANCH   4   6
BRANCH   3  12
ATOM     12  C   UNL     1       7.707  -0.911  -2.302  0.00  0.00    +0.245 C 
ATOM     13  O   UNL     1       7.998  -0.506  -3.411  0.00  0.00    -0.270 OA
ATOM     14  N   UNL     1       8.244  -0.330  -1.210  0.00  0.00    -0.325 N 
ATOM     15  H   UNL     1       8.012  -0.654  -0.325  0.00  0.00    +0.145 HD
ATOM     16  H   UNL     1       8.862   0.411  -1.309  0.00  0.00    +0.145 HD
ENDBRANCH   3  12
BRANCH   1  17
ATOM     17  C   UNL     1       4.702  -4.360  -0.298  0.00  0.00    +0.199 C 
BRANCH  17  20
ATOM     18  C   UNL     1       1.312  -3.167  -1.092  0.00  0.00    +0.144 A 
ATOM     19  N   UNL     1       2.603  -3.206  -0.783  0.00  0.00    -0.239 NA
ATOM     20  C   UNL     1       3.236  -4.347  -0.648  0.00  0.00    +0.071 A 
ATOM     21  C   UNL     1       2.568  -5.518  -0.824  0.00  0.00    +0.072 A 
ATOM     22  S   UNL     1       0.929  -4.911  -1.201  0.00  0.00    -0.072 S 
BRANCH  18  27
ATOM     23  C   UNL     1      -0.269   1.579  -1.411  0.00  0.00    +0.086 C 
ATOM     24  C   UNL     1      -0.267   0.072  -1.427  0.00  0.00    +0.103 A 
ATOM     25  C   UNL     1      -1.332  -0.712  -1.686  0.00  0.00    +0.045 A 
ATOM     26  C   UNL     1      -0.894  -2.047  -1.598  0.00  0.00    +0.052 A 
ATOM     27  C   UNL     1       0.432  -2.004  -1.286  0.00  0.00    +0.160 A 
ATOM     28  O   UNL     1       0.798  -0.711  -1.191  0.00  0.00    -0.458 OA
ENDBRANCH  18  27
ENDBRANCH  17  20
ENDBRANCH   1  17
TORSDOF 5
