REMARK  Name = ZINC16970017
REMARK  7 active torsions:
REMARK  status: ('A' for Active; 'I' for Inactive)
REMARK    1  A    between atoms: C_1  and  C_2
REMARK    2  A    between atoms: C_2  and  C_3
REMARK    3  A    between atoms: C_3  and  C_4
REMARK    4  A    between atoms: C_4  and  N_61
REMARK    5  A    between atoms: C_5  and  C_6
REMARK    6  A    between atoms: C_5  and  N_61
REMARK    7  A    between atoms: C_8  and  O_32
REMARK                            x       y       z     vdW  Elec       q    Type
REMARK                         _______ _______ _______ _____ _____    ______ ____
ROOT
ATOM      1  C   UNL     1      -2.894   1.558   0.029  0.00  0.00    +0.004 C 
ATOM      2  C   UNL     1      -2.225   1.175  -1.290  0.00  0.00    +0.116 C 
ATOM      3  C   UNL     1      -0.791   1.711  -1.297  0.00  0.00    +0.032 C 
ATOM      4  C   UNL     1      -0.016   1.073  -0.144  0.00  0.00    +0.004 C 
ATOM      5  C   UNL     1      -0.679   1.429   1.190  0.00  0.00    -0.024 C 
ATOM      6  C   UNL     1      -2.126   0.946   1.204  0.00  0.00    -0.007 C 
ATOM      7  C   UNL     1      -2.806   1.384   2.503  0.00  0.00    -0.005 C 
ATOM      8  C   UNL     1      -1.790   1.464   3.640  0.00  0.00    -0.020 C 
ATOM      9  C   UNL     1      -2.508   1.223   4.947  0.00  0.00    +0.006 A 
ATOM     10  C   UNL     1      -2.058   0.375   5.899  0.00  0.00    -0.022 A 
ATOM     11  C   UNL     1      -3.008   0.407   6.988  0.00  0.00    +0.003 A 
ATOM     12  C   UNL     1      -3.069  -0.256   8.218  0.00  0.00    +0.010 A 
ATOM     13  C   UNL     1      -4.144   0.027   9.024  0.00  0.00    +0.001 A 
ATOM     14  C   UNL     1      -5.130   0.924   8.647  0.00  0.00    +0.002 A 
ATOM     15  C   UNL     1      -5.095   1.595   7.437  0.00  0.00    +0.026 A 
ATOM     16  C   UNL     1      -4.016   1.327   6.598  0.00  0.00    +0.047 A 
ATOM     17  N   UNL     1      -3.679   1.800   5.361  0.00  0.00    -0.359 N 
ATOM     18  H   UNL     1      -4.192   2.448   4.853  0.00  0.00    +0.166 HD
ATOM     19  C   UNL     1      -0.783  -0.417   5.761  0.00  0.00    +0.019 C 
ATOM     20  C   UNL     1       0.060   0.249   4.666  0.00  0.00    -0.073 C 
ATOM     21  C   UNL     1       0.111   0.749   2.312  0.00  0.00    -0.074 C 
ATOM     22  N   UNL     1      -0.761   0.409   3.448  0.00  0.00    +0.386 N 
ATOM     23  H   UNL     1      -1.236  -0.480   3.249  0.00  0.00    -0.081 HD
ENDROOT
BRANCH   2  24
ATOM     24  O   UNL     1      -2.953   1.743  -2.381  0.00  0.00    -0.392 OA
ATOM     25  H   UNL     1      -2.579   1.544  -3.250  0.00  0.00    +0.210 HD
ENDBRANCH   2  24
BRANCH   1  26
ATOM     26  C   UNL     1      -4.333   1.040   0.038  0.00  0.00    -0.076 C 
BRANCH  26  27
ATOM     27  N   UNL     1      -5.021   1.544   1.242  0.00  0.00    +0.379 N 
ATOM     28  H   UNL     1      -4.477   1.289   2.075  0.00  0.00    -0.086 HD
ATOM     29  H   UNL     1      -5.099   2.567   1.184  0.00  0.00    -0.086 HD
BRANCH  27  30
ATOM     30  C   UNL     1      -6.371   0.958   1.344  0.00  0.00    -0.083 C 
BRANCH  30  31
ATOM     31  C   UNL     1      -7.058   1.499   2.599  0.00  0.00    -0.019 C 
BRANCH  31  33
ATOM     32  C   UNL     1      -9.147   1.436   3.969  0.00  0.00    +0.004 C 
ATOM     33  C   UNL     1      -8.460   0.896   2.713  0.00  0.00    -0.005 C 
ENDBRANCH  31  33
ENDBRANCH  30  31
ENDBRANCH  27  30
ENDBRANCH  26  27
ENDBRANCH   1  26
TORSDOF 6
