REMARK  Name = ZINC16001845
REMARK  2 active torsions:
REMARK  status: ('A' for Active; 'I' for Inactive)
REMARK    1  A    between atoms: C_1  and  C_2
REMARK    2  A    between atoms: N_24  and  C_27
REMARK                            x       y       z     vdW  Elec       q    Type
REMARK                         _______ _______ _______ _____ _____    ______ ____
ROOT
ATOM      1  C   UNL     1      -5.180  -1.542   2.351  0.00  0.00    +0.047 C 
ATOM      2  C   UNL     1      -3.700  -1.348   2.559  0.00  0.00    -0.011 A 
ATOM      3  C   UNL     1      -3.200  -1.192   3.836  0.00  0.00    +0.046 A 
ATOM      4  C   UNL     1      -1.842  -1.015   4.036  0.00  0.00    +0.020 A 
ATOM      5  C   UNL     1      -0.984  -0.991   2.950  0.00  0.00    +0.006 A 
ATOM      6  C   UNL     1      -1.479  -1.143   1.675  0.00  0.00    -0.027 A 
ATOM      7  C   UNL     1      -2.842  -1.327   1.462  0.00  0.00    +0.040 A 
ATOM      8  N   UNL     1      -3.104  -1.463   0.098  0.00  0.00    -0.286 N 
ATOM      9  C   UNL     1      -1.985  -1.382  -0.645  0.00  0.00    +0.212 C 
ATOM     10  O   UNL     1      -1.911  -1.468  -1.853  0.00  0.00    -0.277 OA
ATOM     11  C   UNL     1      -0.841  -1.163   0.313  0.00  0.00    +0.053 C 
ATOM     12  C   UNL     1       0.002  -0.004   0.002  0.00  0.00    +0.089 C 
ATOM     13  C   UNL     1       1.283  -0.307   0.879  0.00  0.00    +0.074 C 
ATOM     14  C   UNL     1       1.493  -1.762   0.444  0.00  0.00    -0.054 C 
ATOM     15  N   UNL     1       0.120  -2.303   0.214  0.00  0.00    +0.395 N 
ATOM     16  C   UNL     1       0.059  -2.869  -1.144  0.00  0.00    -0.076 C 
ATOM     17  C   UNL     1       1.530  -3.070  -1.583  0.00  0.00    -0.020 C 
ATOM     18  C   UNL     1       2.231  -1.863  -0.904  0.00  0.00    -0.016 C 
ATOM     19  C   UNL     1       2.146   0.766   0.275  0.00  0.00    +0.228 C 
ATOM     20  O   UNL     1       3.341   0.718   0.075  0.00  0.00    -0.275 OA
ATOM     21  N   UNL     1       1.305   1.807  -0.001  0.00  0.00    -0.210 N 
ATOM     22  C   UNL     1      -0.018   1.438   0.010  0.00  0.00    +0.229 C 
ATOM     23  O   UNL     1      -0.988   2.165   0.019  0.00  0.00    -0.275 OA
ATOM     24 CL   UNL     1      -4.277  -1.220   5.197  0.00  0.00    -0.083 Cl
ATOM     25  H   UNL     1      -4.136  -1.616  -0.252  0.00  0.00    +0.155 HD
ATOM     26  H   UNL     1      -0.128  -3.091   0.941  0.00  0.00    -0.079 HD
ENDROOT
BRANCH  21  27
ATOM     27  C   UNL     1       1.745   3.111  -0.266  0.00  0.00    +0.044 A 
ATOM     28  C   UNL     1       0.825   4.113  -0.543  0.00  0.00    +0.024 A 
ATOM     29  C   UNL     1       1.261   5.398  -0.799  0.00  0.00    +0.002 A 
ATOM     30  C   UNL     1       2.614   5.685  -0.790  0.00  0.00    +0.000 A 
ATOM     31  C   UNL     1       3.533   4.688  -0.520  0.00  0.00    +0.002 A 
ATOM     32  C   UNL     1       3.103   3.403  -0.258  0.00  0.00    +0.024 A 
ENDBRANCH  21  27
TORSDOF 1
