REMARK  Name = ZINC00797593
REMARK  6 active torsions:
REMARK  status: ('A' for Active; 'I' for Inactive)
REMARK    1  A    between atoms: C_4  and  C_7
REMARK    2  A    between atoms: C_7  and  N_8
REMARK    3  A    between atoms: C_9  and  N_30
REMARK    4  A    between atoms: C_10  and  C_21
REMARK    5  A    between atoms: C_14  and  C_19
REMARK    6  A    between atoms: C_15  and  C_17
REMARK                            x       y       z     vdW  Elec       q    Type
REMARK                         _______ _______ _______ _____ _____    ______ ____
ROOT
ATOM      1  N   UNL     1       2.144   5.581   0.010  0.00  0.00    -0.308 N 
ATOM      2  C   UNL     1       2.421   4.245   0.001  0.00  0.00    +0.110 A 
ATOM      3  C   UNL     1       1.234   3.529   0.009  0.00  0.00    +0.074 A 
ATOM      4  C   UNL     1       0.151   4.522   0.017  0.00  0.00    +0.121 A 
ATOM      5  C   UNL     1       0.782   5.790   0.023  0.00  0.00    +0.163 A 
ATOM      6  N   UNL     1       0.044   6.887   0.035  0.00  0.00    -0.214 NA
ATOM      7  C   UNL     1      -1.283   6.798   0.046  0.00  0.00    +0.178 A 
ATOM      8  C   UNL     1      -1.909   5.535   0.046  0.00  0.00    +0.177 A 
ATOM      9  N   UNL     1      -1.172   4.430   0.035  0.00  0.00    -0.230 NA
ENDROOT
BRANCH   3  10
ATOM     10  C   UNL     1       1.088   2.066   0.003  0.00  0.00    +0.115 A 
ATOM     11  N   UNL     1      -0.016   1.345   0.009  0.00  0.00    -0.239 NA
ATOM     12  C   UNL     1       0.002  -0.004   0.002  0.00  0.00    +0.079 A 
ATOM     13  C   UNL     1      -1.100  -0.892   0.007  0.00  0.00    +0.029 A 
ATOM     14  C   UNL     1      -0.906  -2.248  -0.001  0.00  0.00    +0.002 A 
ATOM     15  C   UNL     1       0.367  -2.799  -0.017  0.00  0.00    +0.001 A 
ATOM     16  C   UNL     1       1.468  -1.961  -0.022  0.00  0.00    +0.017 A 
ATOM     17  C   UNL     1       1.284  -0.601  -0.013  0.00  0.00    +0.040 A 
ATOM     18  S   UNL     1       2.361   0.812  -0.016  0.00  0.00    -0.067 S 
ENDBRANCH   3  10
BRANCH   2  19
ATOM     19  N   UNL     1       3.682   3.695  -0.013  0.00  0.00    -0.344 N 
ATOM     20  H   UNL     1       3.790   2.731  -0.018  0.00  0.00    +0.144 HD
ATOM     21  H   UNL     1       4.462   4.271  -0.017  0.00  0.00    +0.144 HD
ENDBRANCH   2  19
BRANCH   8  22
ATOM     22  C   UNL     1      -3.338   5.444   0.059  0.00  0.00    +0.122 C 
ATOM     23  N   UNL     1      -4.472   5.372   0.069  0.00  0.00    -0.189 NA
ENDBRANCH   8  22
BRANCH   7  24
ATOM     24  C   UNL     1      -2.079   7.988   0.059  0.00  0.00    +0.122 C 
ATOM     25  N   UNL     1      -2.709   8.933   0.069  0.00  0.00    -0.189 NA
ENDBRANCH   7  24
BRANCH   1  26
ATOM     26  C   UNL     1       3.152   6.643   0.005  0.00  0.00    +0.160 C 
BRANCH  26  30
ATOM     27  C   UNL     1       4.096   7.695  -4.027  0.00  0.00    +0.000 A 
ATOM     28  C   UNL     1       3.074   8.349  -3.362  0.00  0.00    +0.000 A 
ATOM     29  C   UNL     1       2.769   8.008  -2.058  0.00  0.00    +0.005 A 
ATOM     30  C   UNL     1       3.485   7.014  -1.417  0.00  0.00    -0.028 A 
ATOM     31  C   UNL     1       4.509   6.364  -2.080  0.00  0.00    +0.005 A 
ATOM     32  C   UNL     1       4.811   6.701  -3.386  0.00  0.00    +0.000 A 
ENDBRANCH  26  30
ENDBRANCH   1  26
TORSDOF 6
