REMARK  Name = ZINC43726404
REMARK  2 active torsions:
REMARK  status: ('A' for Active; 'I' for Inactive)
REMARK    1  A    between atoms: C_16  and  C_18
REMARK    2  A    between atoms: N_23  and  C_26
REMARK                            x       y       z     vdW  Elec       q    Type
REMARK                         _______ _______ _______ _____ _____    ______ ____
ROOT
ATOM      1  C   UNL     1      -0.094   0.835  -0.272  0.00  0.00    +0.001 A 
ATOM      2  C   UNL     1       1.058   1.583  -0.438  0.00  0.00    +0.000 A 
ATOM      3  C   UNL     1       2.301   0.984  -0.329  0.00  0.00    +0.006 A 
ATOM      4  C   UNL     1       2.394  -0.362  -0.055  0.00  0.00    -0.019 A 
ATOM      5  C   UNL     1       1.235  -1.128   0.112  0.00  0.00    -0.019 A 
ATOM      6  C   UNL     1      -0.015  -0.514   0.003  0.00  0.00    +0.008 A 
ATOM      7  C   UNL     1       1.329  -2.575   0.393  0.00  0.00    +0.023 C 
ATOM      8  C   UNL     1       2.497  -3.089   0.826  0.00  0.00    +0.072 C 
ATOM      9  N   UNL     1       3.555  -2.202   0.957  0.00  0.00    -0.316 N 
ATOM     10  C   UNL     1       3.735  -1.037   0.073  0.00  0.00    +0.117 C 
ATOM     11  C   UNL     1       4.764  -0.110   0.722  0.00  0.00    +0.115 C 
ATOM     12  C   UNL     1       5.041  -0.726   2.124  0.00  0.00    +0.119 C 
ATOM     13  C   UNL     1       4.610  -2.199   1.968  0.00  0.00    +0.172 C 
ATOM     14  C   UNL     1       6.555  -0.665   2.205  0.00  0.00    +0.232 C 
ATOM     15  O   UNL     1       7.214  -0.760   3.218  0.00  0.00    -0.274 OA
ATOM     16  N   UNL     1       7.042  -0.489   0.968  0.00  0.00    -0.210 N 
ATOM     17  C   UNL     1       6.101  -0.253   0.023  0.00  0.00    +0.232 C 
ATOM     18  O   UNL     1       6.286  -0.176  -1.173  0.00  0.00    -0.274 OA
ENDROOT
BRANCH  16  19
ATOM     19  C   UNL     1       8.413  -0.534   0.676  0.00  0.00    +0.047 A 
ATOM     20  C   UNL     1       9.109  -1.729   0.792  0.00  0.00    +0.044 A 
ATOM     21  C   UNL     1      10.460  -1.772   0.504  0.00  0.00    +0.044 A 
ATOM     22  C   UNL     1      11.119  -0.624   0.100  0.00  0.00    +0.040 A 
ATOM     23  C   UNL     1      10.427   0.569  -0.017  0.00  0.00    +0.044 A 
ATOM     24  C   UNL     1       9.074   0.615   0.265  0.00  0.00    +0.044 A 
ATOM     25 CL   UNL     1      11.257   2.007  -0.524  0.00  0.00    -0.083 Cl
ATOM     26 CL   UNL     1      11.332  -3.266   0.649  0.00  0.00    -0.083 Cl
ENDBRANCH  16  19
BRANCH  13  27
ATOM     27  C   UNL     1       4.078  -2.727   3.275  0.00  0.00    +0.232 C 
ATOM     28  O   UNL     1       2.882  -2.760   3.475  0.00  0.00    -0.274 OA
ATOM     29  N   UNL     1       4.932  -3.162   4.223  0.00  0.00    -0.328 N 
ATOM     30  H   UNL     1       5.888  -3.135   4.064  0.00  0.00    +0.145 HD
ATOM     31  H   UNL     1       4.590  -3.501   5.065  0.00  0.00    +0.145 HD
ENDBRANCH  13  27
TORSDOF 2
