REMARK  Name = ZINC66689452
REMARK  5 active torsions:
REMARK  status: ('A' for Active; 'I' for Inactive)
REMARK    1  A    between atoms: C_1  and  C_2
REMARK    2  A    between atoms: C_2  and  C_3
REMARK    3  A    between atoms: C_2  and  C_4
REMARK    4  A    between atoms: C_2  and  C_14
REMARK    5  A    between atoms: C_20  and  C_23
REMARK                            x       y       z     vdW  Elec       q    Type
REMARK                         _______ _______ _______ _____ _____    ______ ____
ROOT
ATOM      1  C   UNL     1       0.835  -0.403  -1.133  0.00  0.00    +0.226 C 
ATOM      2  O   UNL     1       0.443  -1.228  -1.931  0.00  0.00    -0.275 OA
ATOM      3  N   UNL     1       2.043   0.172  -1.298  0.00  0.00    -0.296 N 
ATOM      4  C   UNL     1       2.579   1.108  -0.297  0.00  0.00    +0.136 C 
ATOM      5  C   UNL     1       3.039   2.378  -1.021  0.00  0.00    +0.179 C 
ATOM      6  O   UNL     1       3.918   2.020  -2.089  0.00  0.00    -0.369 OA
ATOM      7  C   UNL     1       3.311   1.212  -3.100  0.00  0.00    +0.168 C 
ATOM      8  C   UNL     1       2.868  -0.123  -2.480  0.00  0.00    +0.144 C 
ENDROOT
BRANCH   7   9
ATOM      9  C   UNL     1       4.307   0.949  -4.200  0.00  0.00    +0.018 A 
ATOM     10  C   UNL     1       5.662   0.989  -3.929  0.00  0.00    +0.009 A 
ATOM     11  C   UNL     1       6.576   0.748  -4.938  0.00  0.00    +0.001 A 
ATOM     12  C   UNL     1       6.136   0.466  -6.218  0.00  0.00    +0.003 A 
ATOM     13  C   UNL     1       4.782   0.425  -6.491  0.00  0.00    +0.039 A 
ATOM     14  C   UNL     1       3.866   0.661  -5.480  0.00  0.00    +0.129 A 
ATOM     15  F   UNL     1       2.542   0.617  -5.745  0.00  0.00    -0.205 F 
ENDBRANCH   7   9
BRANCH   1  17
ATOM     16  C   UNL     1       0.691  -0.381   1.342  0.00  0.00    +0.025 C 
ATOM     17  C   UNL     1      -0.028  -0.020   0.041  0.00  0.00    +0.066 C 
ATOM     18  C   UNL     1      -1.357  -0.775  -0.035  0.00  0.00    +0.025 C 
BRANCH  17  19
ATOM     19  C   UNL     1      -0.292   1.464   0.008  0.00  0.00    -0.029 A 
ATOM     20  C   UNL     1       0.070   2.204  -1.103  0.00  0.00    +0.008 A 
ATOM     21  C   UNL     1      -0.169   3.565  -1.136  0.00  0.00    +0.050 A 
ATOM     22  C   UNL     1      -0.772   4.191  -0.056  0.00  0.00    +0.162 A 
ATOM     23  C   UNL     1      -1.138   3.447   1.059  0.00  0.00    +0.162 A 
ATOM     24  C   UNL     1      -0.900   2.081   1.085  0.00  0.00    +0.054 A 
ATOM     25  O   UNL     1      -1.739   4.040   2.127  0.00  0.00    -0.485 OA
ATOM     26  C   UNL     1      -1.629   5.465   2.217  0.00  0.00    +0.270 C 
ATOM     27  C   UNL     1      -1.941   6.060   0.837  0.00  0.00    +0.270 C 
ATOM     28  O   UNL     1      -0.998   5.533  -0.102  0.00  0.00    -0.485 OA
ENDBRANCH  17  19
ENDBRANCH   1  17
TORSDOF 3
