REMARK  Name = ZINC20687244
REMARK  5 active torsions:
REMARK  status: ('A' for Active; 'I' for Inactive)
REMARK    1  A    between atoms: C_1  and  N_2
REMARK    2  A    between atoms: N_2  and  C_3
REMARK    3  A    between atoms: N_2  and  C_4
REMARK    4  A    between atoms: C_7  and  C_10
REMARK    5  A    between atoms: C_21  and  C_26
REMARK                            x       y       z     vdW  Elec       q    Type
REMARK                         _______ _______ _______ _____ _____    ______ ____
ROOT
ATOM      1  C   UNL     1      -4.052   5.949   6.473  0.00  0.00    +0.105 C 
ATOM      2  C   UNL     1      -4.170   7.028   5.412  0.00  0.00    +0.029 C 
ATOM      3  C   UNL     1      -5.002   8.269   5.763  0.00  0.00    +0.033 C 
ATOM      4  C   UNL     1      -5.528   8.676   4.371  0.00  0.00    -0.030 C 
ATOM      5  C   UNL     1      -5.548   7.627   3.558  0.00  0.00    -0.023 C 
ATOM      6  C   UNL     1      -5.104   6.430   4.316  0.00  0.00    +0.049 C 
ATOM      7  C   UNL     1      -4.380   5.315   3.666  0.00  0.00    -0.019 A 
ATOM      8  C   UNL     1      -4.525   5.023   2.332  0.00  0.00    +0.019 A 
ATOM      9  C   UNL     1      -3.843   3.940   1.771  0.00  0.00    +0.037 A 
ATOM     10  C   UNL     1      -3.017   3.150   2.577  0.00  0.00    +0.015 A 
ATOM     11  C   UNL     1      -2.865   3.451   3.909  0.00  0.00    +0.024 A 
ATOM     12  C   UNL     1      -3.538   4.534   4.471  0.00  0.00    +0.031 A 
ATOM     13  N   UNL     1      -3.349   4.823   5.822  0.00  0.00    -0.336 N 
ATOM     14  H   UNL     1      -2.662   4.193   6.405  0.00  0.00    +0.147 HD
ENDROOT
BRANCH   9  15
ATOM     15  C   UNL     1      -4.000   3.627   0.338  0.00  0.00    +0.247 C 
ATOM     16  O   UNL     1      -3.972   4.520  -0.486  0.00  0.00    -0.270 OA
ATOM     17  N   UNL     1      -4.174   2.350  -0.058  0.00  0.00    -0.298 N 
ATOM     18  C   UNL     1      -4.001   1.294   0.914  0.00  0.00    +0.108 C 
ATOM     19  C   UNL     1      -2.522   0.843   0.929  0.00  0.00    +0.019 C 
ATOM     20  C   UNL     1      -2.198   0.100  -0.298  0.00  0.00    +0.002 C 
ATOM     21  C   UNL     1      -2.328   0.919  -1.579  0.00  0.00    +0.002 C 
ATOM     22  C   UNL     1      -3.762   0.890  -2.048  0.00  0.00    +0.019 C 
ATOM     23  C   UNL     1      -4.533   2.088  -1.465  0.00  0.00    +0.108 C 
ENDBRANCH   9  15
BRANCH   1  27
ATOM     24  C   UNL     1      -7.935   4.717   7.766  0.00  0.00    +0.029 A 
ATOM     25  C   UNL     1      -7.314   4.065   6.709  0.00  0.00    +0.023 A 
ATOM     26  C   UNL     1      -6.059   4.466   6.294  0.00  0.00    +0.007 A 
ATOM     27  C   UNL     1      -5.421   5.515   6.929  0.00  0.00    -0.027 A 
ATOM     28  C   UNL     1      -6.034   6.163   7.986  0.00  0.00    +0.007 A 
ATOM     29  C   UNL     1      -7.291   5.771   8.402  0.00  0.00    +0.023 A 
BRANCH  24  31
ATOM     30  C   UNL     1      -9.882   3.204   7.516  0.00  0.00    +0.129 C 
ATOM     31  N   UNL     1      -9.204   4.315   8.188  0.00  0.00    -0.336 N 
ATOM     32  C   UNL     1      -9.858   5.004   9.303  0.00  0.00    +0.129 C 
ENDBRANCH  24  31
ENDBRANCH   1  27
TORSDOF 3
