REMARK  Name = ZINC65311644
REMARK  7 active torsions:
REMARK  status: ('A' for Active; 'I' for Inactive)
REMARK    1  A    between atoms: C_1  and  C_2
REMARK    2  A    between atoms: C_2  and  N_3
REMARK    3  A    between atoms: N_6  and  C_9
REMARK    4  A    between atoms: C_11  and  C_31
REMARK    5  A    between atoms: C_16  and  C_18
REMARK    6  A    between atoms: C_18  and  N_19
REMARK    7  A    between atoms: N_22  and  C_25
REMARK                            x       y       z     vdW  Elec       q    Type
REMARK                         _______ _______ _______ _____ _____    ______ ____
ROOT
ATOM      1  C   UNL     1      -4.335  -2.837  -1.657  0.00  0.00    +0.128 A 
ATOM      2  C   UNL     1      -5.143  -2.339  -2.661  0.00  0.00    +0.067 A 
ATOM      3  C   UNL     1      -5.898  -3.228  -3.423  0.00  0.00    +0.045 A 
ATOM      4  N   UNL     1      -5.841  -4.522  -3.189  0.00  0.00    -0.216 NA
ATOM      5  C   UNL     1      -5.063  -5.018  -2.221  0.00  0.00    +0.255 A 
ATOM      6  N   UNL     1      -4.300  -4.186  -1.451  0.00  0.00    -0.182 N 
ATOM      7  N   UNL     1      -3.608  -5.003  -0.549  0.00  0.00    -0.146 NA
ATOM      8  C   UNL     1      -3.960  -6.240  -0.803  0.00  0.00    +0.167 A 
ATOM      9  N   UNL     1      -4.838  -6.258  -1.798  0.00  0.00    -0.193 NA
ATOM     10  C   UNL     1      -6.786  -2.704  -4.522  0.00  0.00    +0.066 C 
ENDROOT
BRANCH   1  14
ATOM     11  N   UNL     1      -1.452  -0.352  -0.089  0.00  0.00    +0.382 N 
ATOM     12  C   UNL     1      -2.333   0.089  -1.178  0.00  0.00    -0.060 C 
ATOM     13  C   UNL     1      -3.722  -0.529  -0.992  0.00  0.00    +0.088 C 
ATOM     14  N   UNL     1      -3.574  -1.988  -0.884  0.00  0.00    -0.319 N 
ATOM     15  C   UNL     1      -2.588  -2.516   0.072  0.00  0.00    +0.088 C 
ATOM     16  C   UNL     1      -1.252  -1.805  -0.164  0.00  0.00    -0.060 C 
ATOM     17  H   UNL     1      -1.874  -0.117   0.797  0.00  0.00    -0.082 HD
BRANCH  11  19
ATOM     18  C   UNL     1      -0.344   1.830  -0.003  0.00  0.00    -0.017 C 
ATOM     19  C   UNL     1      -0.154   0.326  -0.206  0.00  0.00    -0.082 C 
ENDBRANCH  11  19
ENDBRANCH   1  14
BRANCH   8  20
ATOM     20  C   UNL     1      -3.455  -7.455  -0.068  0.00  0.00    +0.162 C 
BRANCH  20  21
ATOM     21  N   UNL     1      -4.335  -7.738   1.073  0.00  0.00    -0.299 NA
ATOM     22  C   UNL     1      -4.253  -6.669   2.079  0.00  0.00    +0.066 C 
ATOM     23  C   UNL     1      -5.226  -6.971   3.221  0.00  0.00    -0.063 C 
ATOM     24  N   UNL     1      -4.884  -8.264   3.827  0.00  0.00    +0.383 N 
ATOM     25  C   UNL     1      -4.994  -9.325   2.817  0.00  0.00    -0.063 C 
ATOM     26  C   UNL     1      -4.019  -9.042   1.672  0.00  0.00    +0.066 C 
ATOM     27  H   UNL     1      -3.938  -8.231   4.178  0.00  0.00    -0.081 HD
BRANCH  24  28
ATOM     28  C   UNL     1      -5.807  -8.545   4.935  0.00  0.00    -0.068 C 
ATOM     29  C   UNL     1      -5.691  -7.441   5.988  0.00  0.00    -0.015 C 
ATOM     30  C   UNL     1      -6.652  -7.734   7.141  0.00  0.00    -0.002 C 
ATOM     31  C   UNL     1      -6.296  -9.081   7.773  0.00  0.00    -0.000 C 
ATOM     32  C   UNL     1      -6.412 -10.185   6.720  0.00  0.00    -0.002 C 
ATOM     33  C   UNL     1      -5.450  -9.892   5.566  0.00  0.00    -0.015 C 
ENDBRANCH  24  28
ENDBRANCH  20  21
ENDBRANCH   8  20
TORSDOF 5
