REMARK  Name = ZINC64538919
REMARK  10 active torsions:
REMARK  status: ('A' for Active; 'I' for Inactive)
REMARK    1  A    between atoms: C_1  and  C_2
REMARK    2  A    between atoms: C_8  and  C_11
REMARK    3  A    between atoms: C_11  and  C_12
REMARK    4  A    between atoms: C_12  and  N_13
REMARK    5  A    between atoms: C_14  and  C_16
REMARK    6  A    between atoms: C_16  and  C_17
REMARK    7  A    between atoms: C_17  and  C_18
REMARK    8  A    between atoms: C_18  and  C_19
REMARK    9  A    between atoms: C_23  and  C_26
REMARK   10  A    between atoms: N_28  and  C_29
REMARK                            x       y       z     vdW  Elec       q    Type
REMARK                         _______ _______ _______ _____ _____    ______ ____
ROOT
ATOM      1  C   UNL     1      -2.537  -2.355   7.795  0.00  0.00    +0.096 C 
ENDROOT
BRANCH   1   3
ATOM      2  N   UNL     1      -1.372  -2.618   5.628  0.00  0.00    -0.315 N 
ATOM      3  C   UNL     1      -2.535  -2.612   6.309  0.00  0.00    +0.213 C 
ATOM      4  O   UNL     1      -3.580  -2.813   5.727  0.00  0.00    -0.276 OA
ATOM      5  H   UNL     1      -0.537  -2.456   6.094  0.00  0.00    +0.149 HD
BRANCH   2   6
ATOM      6  C   UNL     1      -1.370  -2.867   4.185  0.00  0.00    +0.108 C 
BRANCH   6   7
ATOM      7  C   UNL     1       0.067  -2.819   3.661  0.00  0.00    +0.052 C 
BRANCH   7  15
ATOM      8  C   UNL     1       0.033   1.493   0.042  0.00  0.00    +0.044 C 
ATOM      9  C   UNL     1       0.044  -0.014   0.030  0.00  0.00    -0.050 A 
ATOM     10  C   UNL     1       0.049  -0.686  -1.200  0.00  0.00    +0.005 A 
ATOM     11  C   UNL     1       0.060  -2.033  -1.295  0.00  0.00    +0.026 A 
ATOM     12  C   UNL     1       0.067  -2.836  -0.121  0.00  0.00    +0.043 A 
ATOM     13  N   UNL     1       0.076  -4.136   0.047  0.00  0.00    -0.380 N 
ATOM     14  C   UNL     1       0.079  -4.422   1.486  0.00  0.00    +0.144 C 
ATOM     15  C   UNL     1       0.069  -3.076   2.176  0.00  0.00    -0.040 C 
ATOM     16  C   UNL     1       0.062  -2.150   1.191  0.00  0.00    -0.001 A 
ATOM     17  C   UNL     1       0.056  -0.682   1.206  0.00  0.00    +0.013 A 
ATOM     18  H   UNL     1       0.081  -4.798  -0.662  0.00  0.00    +0.160 HD
ENDBRANCH   7  15
ENDBRANCH   6   7
ENDBRANCH   2   6
ENDBRANCH   1   3
BRANCH   1  19
ATOM     19  C   UNL     1      -3.974  -2.403   8.318  0.00  0.00    +0.012 C 
BRANCH  19  20
ATOM     20  C   UNL     1      -3.976  -2.142   9.826  0.00  0.00    +0.040 C 
BRANCH  20  21
ATOM     21  C   UNL     1      -5.413  -2.190  10.349  0.00  0.00    +0.187 C 
ATOM     22  N   UNL     1      -5.479  -1.813  11.780  0.00  0.00    -0.177 NA
ATOM     23  N   UNL     1      -6.290  -0.996  12.170  0.00  0.00    -0.167 NA
ATOM     24  C   UNL     1      -7.233  -0.356  11.224  0.00  0.00    +0.272 C 
ATOM     25  S   UNL     1      -6.440  -0.835   9.623  0.00  0.00    -0.095 S 
BRANCH  24  26
ATOM     26  C   UNL     1      -7.256   1.140  11.401  0.00  0.00    +0.254 C 
ATOM     27  O   UNL     1      -6.760   1.858  10.558  0.00  0.00    -0.272 OA
ATOM     28  N   UNL     1      -7.829   1.681  12.494  0.00  0.00    -0.283 N 
ATOM     29  H   UNL     1      -8.285   1.112  13.135  0.00  0.00    +0.155 HD
BRANCH  28  30
ATOM     30  C   UNL     1      -7.766   3.063  12.707  0.00  0.00    +0.036 A 
ATOM     31  C   UNL     1      -7.647   3.564  13.996  0.00  0.00    +0.023 A 
ATOM     32  C   UNL     1      -7.585   4.928  14.204  0.00  0.00    +0.005 A 
ATOM     33  C   UNL     1      -7.642   5.796  13.129  0.00  0.00    +0.038 A 
ATOM     34  C   UNL     1      -7.761   5.300  11.841  0.00  0.00    +0.125 A 
ATOM     35  C   UNL     1      -7.818   3.935  11.628  0.00  0.00    +0.061 A 
ATOM     36  F   UNL     1      -7.817   6.151  10.793  0.00  0.00    -0.205 F 
ENDBRANCH  28  30
ENDBRANCH  24  26
ENDBRANCH  20  21
ENDBRANCH  19  20
ENDBRANCH   1  19
TORSDOF 9
