REMARK  Name = ZINC12181378
REMARK  7 active torsions:
REMARK  status: ('A' for Active; 'I' for Inactive)
REMARK    1  A    between atoms: C_1  and  C_2
REMARK    2  A    between atoms: C_2  and  C_4
REMARK    3  A    between atoms: C_2  and  N_17
REMARK    4  A    between atoms: N_6  and  C_7
REMARK    5  A    between atoms: C_12  and  C_13
REMARK    6  A    between atoms: C_20  and  N_29
REMARK    7  A    between atoms: C_22  and  C_24
REMARK                            x       y       z     vdW  Elec       q    Type
REMARK                         _______ _______ _______ _____ _____    ______ ____
ROOT
ATOM      1  C   UNL     1      -1.177  -4.899  -1.262  0.00  0.00    +0.043 C 
ATOM      2  C   UNL     1      -1.942  -4.503   0.003  0.00  0.00    +0.194 C 
ENDROOT
BRANCH   2   3
ATOM      3  N   UNL     1      -2.147  -3.053   0.017  0.00  0.00    -0.216 N 
ATOM      4  C   UNL     1      -3.399  -2.553   0.041  0.00  0.00    +0.289 A 
ATOM      5  O   UNL     1      -4.360  -3.305   0.052  0.00  0.00    -0.264 OA
ATOM      6  C   UNL     1      -3.591  -1.148   0.053  0.00  0.00    +0.094 A 
ATOM      7  C   UNL     1      -2.501  -0.327   0.046  0.00  0.00    +0.061 A 
ATOM      8  C   UNL     1      -1.205  -0.887   0.015  0.00  0.00    +0.128 A 
ATOM      9  N   UNL     1      -1.043  -2.193   0.004  0.00  0.00    -0.164 NA
BRANCH   8  10
ATOM     10  C   UNL     1      -0.023  -0.001   0.002  0.00  0.00    +0.155 A 
ATOM     11  C   UNL     1       1.276  -0.403  -0.022  0.00  0.00    +0.051 A 
ATOM     12  C   UNL     1       2.062   0.766  -0.028  0.00  0.00    +0.042 A 
ATOM     13  C   UNL     1       1.214   1.813  -0.008  0.00  0.00    +0.196 A 
ATOM     14  O   UNL     1      -0.045   1.346   0.010  0.00  0.00    -0.461 OA
ENDBRANCH   8  10
BRANCH   6  15
ATOM     15  N   UNL     1      -4.878  -0.612   0.078  0.00  0.00    -0.354 N 
ATOM     16  H   UNL     1      -5.649  -1.201   0.087  0.00  0.00    +0.142 HD
ATOM     17  H   UNL     1      -5.003   0.350   0.086  0.00  0.00    +0.142 HD
ENDBRANCH   6  15
ENDBRANCH   2   3
BRANCH   2  18
ATOM     18  C   UNL     1      -1.147  -4.910   1.218  0.00  0.00    +0.242 C 
ATOM     19  O   UNL     1      -0.788  -4.070   2.016  0.00  0.00    -0.273 OA
ATOM     20  N   UNL     1      -0.836  -6.206   1.417  0.00  0.00    -0.283 N 
ATOM     21  H   UNL     1      -1.178  -6.885   0.815  0.00  0.00    +0.155 HD
BRANCH  20  22
ATOM     22  C   UNL     1      -0.019  -6.572   2.493  0.00  0.00    +0.045 A 
ATOM     23  C   UNL     1      -0.098  -5.878   3.693  0.00  0.00    +0.024 A 
ATOM     24  C   UNL     1       0.706  -6.245   4.755  0.00  0.00    +0.002 A 
ATOM     25  C   UNL     1       1.596  -7.295   4.620  0.00  0.00    +0.001 A 
ATOM     26  C   UNL     1       1.680  -7.984   3.424  0.00  0.00    +0.014 A 
ATOM     27  C   UNL     1       0.875  -7.625   2.360  0.00  0.00    +0.076 A 
BRANCH  27  28
ATOM     28  C   UNL     1       0.968  -8.376   1.057  0.00  0.00    +0.419 C 
ATOM     29  F   UNL     1       1.931  -9.385   1.168  0.00  0.00    -0.166 F 
ATOM     30  F   UNL     1      -0.273  -8.948   0.758  0.00  0.00    -0.166 F 
ATOM     31  F   UNL     1       1.333  -7.493   0.035  0.00  0.00    -0.166 F 
ENDBRANCH  27  28
ENDBRANCH  20  22
ENDBRANCH   2  18
TORSDOF 6
