REMARK  Name = ZINC43224090
REMARK  9 active torsions:
REMARK  status: ('A' for Active; 'I' for Inactive)
REMARK    1  A    between atoms: C_1  and  C_2
REMARK    2  A    between atoms: C_3  and  C_31
REMARK    3  A    between atoms: C_5  and  C_17
REMARK    4  A    between atoms: N_6  and  C_7
REMARK    5  A    between atoms: C_7  and  C_8
REMARK    6  A    between atoms: C_23  and  C_29
REMARK    7  A    between atoms: C_23  and  C_30
REMARK    8  A    between atoms: C_26  and  C_27
REMARK    9  A    between atoms: C_26  and  C_28
REMARK                            x       y       z     vdW  Elec       q    Type
REMARK                         _______ _______ _______ _____ _____    ______ ____
ROOT
ATOM      1  C   UNL     1       0.955   1.317  -0.260  0.00  0.00    +0.064 C 
ATOM      2  C   UNL     1       0.432  -0.089  -0.116  0.00  0.00    +0.029 A 
ATOM      3  C   UNL     1      -0.367  -0.750  -1.023  0.00  0.00    +0.057 A 
ATOM      4  C   UNL     1      -0.619  -2.041  -0.490  0.00  0.00    +0.041 A 
ATOM      5  C   UNL     1       0.028  -2.112   0.702  0.00  0.00    +0.050 A 
ATOM      6  N   UNL     1       0.671  -0.918   0.919  0.00  0.00    -0.339 N 
ENDROOT
BRANCH   5   7
ATOM      7  C   UNL     1       0.041  -3.279   1.610  0.00  0.00    -0.001 A 
ATOM      8  C   UNL     1       0.038  -3.095   2.993  0.00  0.00    +0.010 A 
ATOM      9  C   UNL     1       0.054  -4.190   3.826  0.00  0.00    +0.005 A 
ATOM     10  C   UNL     1       0.070  -5.479   3.304  0.00  0.00    -0.038 A 
ATOM     11  C   UNL     1       0.067  -5.668   1.939  0.00  0.00    -0.037 A 
ATOM     12  C   UNL     1       0.050  -4.571   1.091  0.00  0.00    +0.014 A 
ATOM     13  C   UNL     1       0.067  -7.037   1.310  0.00  0.00    -0.010 C 
ATOM     14  C   UNL     1       0.509  -8.093   2.321  0.00  0.00    +0.012 C 
ATOM     15  C   UNL     1      -0.329  -7.925   3.594  0.00  0.00    +0.012 C 
ATOM     16  C   UNL     1       0.093  -6.627   4.280  0.00  0.00    -0.010 C 
ATOM     17  C   UNL     1      -0.868  -6.330   5.433  0.00  0.00    +0.016 C 
ATOM     18  C   UNL     1       1.510  -6.788   4.835  0.00  0.00    +0.016 C 
ATOM     19  C   UNL     1      -1.344  -7.368   0.820  0.00  0.00    +0.016 C 
ATOM     20  C   UNL     1       1.028  -7.046   0.120  0.00  0.00    +0.016 C 
ENDBRANCH   5   7
BRANCH   3  21
ATOM     21  C   UNL     1      -0.866  -0.218  -2.303  0.00  0.00    +0.243 C 
ATOM     22  O   UNL     1      -0.576   0.912  -2.646  0.00  0.00    -0.270 OA
ATOM     23  N   UNL     1      -1.644  -0.983  -3.094  0.00  0.00    -0.325 N 
ATOM     24  H   UNL     1      -1.876  -1.885  -2.820  0.00  0.00    +0.145 HD
ATOM     25  H   UNL     1      -1.973  -0.633  -3.937  0.00  0.00    +0.145 HD
ENDBRANCH   3  21
BRANCH   6  26
ATOM     26  C   UNL     1       1.486  -0.596   2.093  0.00  0.00    +0.157 C 
BRANCH  26  27
ATOM     27  C   UNL     1       2.938  -0.856   1.784  0.00  0.00    -0.024 A 
ATOM     28  C   UNL     1       3.457  -2.129   1.927  0.00  0.00    +0.009 A 
ATOM     29  C   UNL     1       4.788  -2.372   1.644  0.00  0.00    +0.050 A 
ATOM     30  C   UNL     1       5.606  -1.339   1.216  0.00  0.00    +0.166 A 
ATOM     31  C   UNL     1       5.083  -0.056   1.071  0.00  0.00    +0.167 A 
ATOM     32  C   UNL     1       3.747   0.179   1.352  0.00  0.00    +0.055 A 
ATOM     33  O   UNL     1       6.078   0.774   0.642  0.00  0.00    -0.453 OA
ATOM     34  C   UNL     1       7.307   0.077   0.917  0.00  0.00    +0.466 C 
ATOM     35  O   UNL     1       6.928  -1.312   0.877  0.00  0.00    -0.453 OA
ENDBRANCH  26  27
ENDBRANCH   6  26
TORSDOF 4
