REMARK  Name = ZINC40687720
REMARK  5 active torsions:
REMARK  status: ('A' for Active; 'I' for Inactive)
REMARK    1  A    between atoms: C_1  and  C_2
REMARK    2  A    between atoms: C_7  and  N_8
REMARK    3  A    between atoms: C_10  and  N_26
REMARK    4  A    between atoms: C_11  and  O_15
REMARK    5  A    between atoms: O_15  and  C_16
REMARK                            x       y       z     vdW  Elec       q    Type
REMARK                         _______ _______ _______ _____ _____    ______ ____
ROOT
ATOM      1  N   UNL     1      -0.437  -0.065   2.400  0.00  0.00    -0.298 N 
ATOM      2  C   UNL     1      -0.529  -0.744   3.610  0.00  0.00    +0.151 A 
ATOM      3  C   UNL     1      -0.387  -0.060   4.820  0.00  0.00    +0.128 A 
ATOM      4  C   UNL     1      -0.488  -0.789   6.004  0.00  0.00    +0.246 A 
ATOM      5  N   UNL     1      -0.714  -2.098   5.938  0.00  0.00    -0.199 NA
ATOM      6  C   UNL     1      -0.842  -2.705   4.776  0.00  0.00    +0.227 A 
ATOM      7  N   UNL     1      -0.759  -2.054   3.633  0.00  0.00    -0.218 NA
ATOM      8  H   UNL     1      -0.365   0.903   2.391  0.00  0.00    +0.154 HD
ENDROOT
BRANCH   1  15
ATOM      9  C   UNL     1      -1.439   1.241   0.079  0.00  0.00    +0.046 C 
ATOM     10  C   UNL     1      -0.929  -0.177   0.039  0.00  0.00    -0.028 A 
ATOM     11  C   UNL     1      -0.934  -0.880  -1.149  0.00  0.00    +0.025 A 
ATOM     12  C   UNL     1      -0.466  -2.182  -1.187  0.00  0.00    +0.041 A 
ATOM     13  C   UNL     1       0.009  -2.783  -0.034  0.00  0.00    +0.022 A 
ATOM     14  C   UNL     1       0.016  -2.084   1.157  0.00  0.00    +0.025 A 
ATOM     15  C   UNL     1      -0.449  -0.776   1.197  0.00  0.00    +0.035 A 
ATOM     16 CL   UNL     1      -0.474  -3.062  -2.683  0.00  0.00    -0.084 Cl
ENDBRANCH   1  15
BRANCH   3  17
ATOM     17  N   UNL     1      -0.148   1.323   4.843  0.00  0.00    -0.351 N 
ATOM     18  H   UNL     1      -0.080   1.817   4.012  0.00  0.00    +0.143 HD
ATOM     19  H   UNL     1      -0.052   1.784   5.691  0.00  0.00    +0.143 HD
ENDBRANCH   3  17
BRANCH   4  20
ATOM     20  O   UNL     1      -0.357  -0.172   7.205  0.00  0.00    -0.436 OA
BRANCH  20  21
ATOM     21  C   UNL     1      -0.329  -0.948   8.321  0.00  0.00    +0.131 A 
ATOM     22  C   UNL     1       0.836  -1.653   8.642  0.00  0.00    +0.047 A 
ATOM     23  C   UNL     1       0.895  -2.438   9.751  0.00  0.00    +0.012 A 
ATOM     24  C   UNL     1      -0.229  -2.545  10.590  0.00  0.00    -0.018 A 
ATOM     25  C   UNL     1      -0.202  -3.346  11.744  0.00  0.00    +0.008 A 
ATOM     26  C   UNL     1      -1.307  -3.426  12.534  0.00  0.00    +0.001 A 
ATOM     27  C   UNL     1      -2.469  -2.725  12.216  0.00  0.00    +0.001 A 
ATOM     28  C   UNL     1      -2.532  -1.940  11.106  0.00  0.00    +0.008 A 
ATOM     29  C   UNL     1      -1.410  -1.831  10.266  0.00  0.00    -0.014 A 
ATOM     30  C   UNL     1      -1.436  -1.025   9.117  0.00  0.00    +0.054 A 
ENDBRANCH  20  21
ENDBRANCH   4  20
TORSDOF 4
