REMARK  Name = ZINC15225468
REMARK  6 active torsions:
REMARK  status: ('A' for Active; 'I' for Inactive)
REMARK    1  A    between atoms: C_1  and  O_2
REMARK    2  A    between atoms: O_2  and  C_3
REMARK    3  A    between atoms: C_6  and  N_12
REMARK    4  A    between atoms: C_7  and  N_9
REMARK    5  A    between atoms: C_13  and  C_14
REMARK    6  A    between atoms: C_19  and  O_20
REMARK                            x       y       z     vdW  Elec       q    Type
REMARK                         _______ _______ _______ _____ _____    ______ ____
ROOT
ATOM      1  N   UNL     1       2.587  -2.145  -4.262  0.00  0.00    -0.253 NA
ATOM      2  C   UNL     1       3.436  -1.343  -4.840  0.00  0.00    +0.124 C 
ENDROOT
BRANCH   2   3
ATOM      3  C   UNL     1       4.051  -1.723  -6.120  0.00  0.00    +0.050 A 
ATOM      4  C   UNL     1       3.647  -2.892  -6.776  0.00  0.00    +0.030 A 
ATOM      5  C   UNL     1       4.229  -3.242  -7.976  0.00  0.00    +0.017 A 
ATOM      6  C   UNL     1       5.211  -2.442  -8.537  0.00  0.00    +0.020 A 
ATOM      7  C   UNL     1       5.620  -1.285  -7.899  0.00  0.00    +0.060 A 
ATOM      8  C   UNL     1       5.042  -0.913  -6.695  0.00  0.00    +0.140 A 
ATOM      9 BR   UNL     1       6.963  -0.203  -8.676  0.00  0.00    -0.047 Br
ATOM     10 BR   UNL     1       2.308  -3.989  -6.017  0.00  0.00    -0.050 Br
BRANCH   8  11
ATOM     11  O   UNL     1       5.438   0.226  -6.072  0.00  0.00    -0.505 OA
ATOM     12  H   UNL     1       6.174   0.103  -5.457  0.00  0.00    +0.292 HD
ENDBRANCH   8  11
ENDBRANCH   2   3
BRANCH   1  16
ATOM     13  C   UNL     1       0.694  -0.987  -0.767  0.00  0.00    +0.122 A 
ATOM     14  C   UNL     1       0.772  -0.105  -1.837  0.00  0.00    +0.048 A 
ATOM     15  C   UNL     1       1.401  -0.486  -3.002  0.00  0.00    +0.033 A 
ATOM     16  C   UNL     1       1.961  -1.762  -3.106  0.00  0.00    +0.094 A 
ATOM     17  C   UNL     1       1.881  -2.646  -2.027  0.00  0.00    +0.155 A 
ATOM     18  C   UNL     1       1.254  -2.254  -0.864  0.00  0.00    +0.080 A 
BRANCH  17  19
ATOM     19  N   UNL     1       2.472  -3.998  -2.131  0.00  0.00    +0.059 N 
ATOM     20  O   UNL     1       2.324  -4.793  -1.232  0.00  0.00    -0.126 OA
ATOM     21  O   UNL     1       3.103  -4.309  -3.115  0.00  0.00    -0.126 OA
ENDBRANCH  17  19
BRANCH  13  23
ATOM     22  C   UNL     1      -0.481   0.711   0.412  0.00  0.00    +0.277 C 
ATOM     23  O   UNL     1       0.073  -0.606   0.380  0.00  0.00    -0.495 OA
ENDBRANCH  13  23
ENDBRANCH   1  16
TORSDOF 5
