REMARK  Name = ZINC14535818
REMARK  14 active torsions:
REMARK  status: ('A' for Active; 'I' for Inactive)
REMARK    1  A    between atoms: C_1  and  C_2
REMARK    2  A    between atoms: C_2  and  C_3
REMARK    3  A    between atoms: C_6  and  C_10
REMARK    4  A    between atoms: C_7  and  C_9
REMARK    5  A    between atoms: C_10  and  N_69
REMARK    6  A    between atoms: C_15  and  C_23
REMARK    7  A    between atoms: C_17  and  C_18
REMARK    8  A    between atoms: C_18  and  C_19
REMARK    9  A    between atoms: C_19  and  C_20
REMARK   10  A    between atoms: C_19  and  C_21
REMARK   11  A    between atoms: C_19  and  C_22
REMARK   12  A    between atoms: C_23  and  C_24
REMARK   13  A    between atoms: C_27  and  O_30
REMARK   14  A    between atoms: O_30  and  C_31
REMARK                            x       y       z     vdW  Elec       q    Type
REMARK                         _______ _______ _______ _____ _____    ______ ____
ROOT
ATOM      1  C   UNL     1      -0.203   1.511   0.072  0.00  0.00    -0.056 C 
ATOM      2  C   UNL     1      -1.010   2.270  -0.989  0.00  0.00    +0.105 C 
ATOM      3  N   UNL     1      -1.110   3.671  -0.570  0.00  0.00    -0.335 N 
ATOM      4  C   UNL     1      -0.852   4.097   0.710  0.00  0.00    +0.025 A 
ATOM      5  C   UNL     1      -1.036   5.421   0.728  0.00  0.00    +0.065 A 
ATOM      6  N   UNL     1      -1.401   5.801  -0.510  0.00  0.00    -0.237 NA
ATOM      7  C   UNL     1      -1.447   4.751  -1.290  0.00  0.00    +0.111 A 
ATOM      8  C   UNL     1      -0.444   3.173   1.828  0.00  0.00    -0.022 C 
ATOM      9  N   UNL     1      -0.776   1.789   1.407  0.00  0.00    +0.388 N 
ATOM     10  H   UNL     1      -1.798   1.693   1.357  0.00  0.00    -0.081 HD
ENDROOT
BRANCH   9  11
ATOM     11  C   UNL     1      -0.251   0.823   2.393  0.00  0.00    -0.022 C 
BRANCH  11  15
ATOM     12  C   UNL     1       3.162   1.655   3.402  0.00  0.00    +0.107 A 
ATOM     13  N   UNL     1       1.829   1.733   3.598  0.00  0.00    -0.347 N 
ATOM     14  H   UNL     1       1.365   2.220   4.339  0.00  0.00    +0.167 HD
ATOM     15  C   UNL     1       1.229   1.022   2.594  0.00  0.00    +0.022 A 
ATOM     16  C   UNL     1       2.217   0.530   1.822  0.00  0.00    +0.057 A 
ATOM     17  N   UNL     1       3.387   0.937   2.336  0.00  0.00    -0.238 NA
ATOM     18  C   UNL     1       2.039  -0.325   0.594  0.00  0.00    +0.067 C 
BRANCH  12  20
ATOM     19  C   UNL     1       5.205   1.224   4.741  0.00  0.00    +0.012 C 
ATOM     20  C   UNL     1       4.216   2.293   4.270  0.00  0.00    +0.071 C 
ENDBRANCH  12  20
ENDBRANCH  11  15
ENDBRANCH   9  11
BRANCH   7  21
ATOM     21  C   UNL     1      -1.815   4.756  -2.751  0.00  0.00    +0.080 C 
BRANCH  21  22
ATOM     22  C   UNL     1      -3.325   4.558  -2.897  0.00  0.00    -0.031 C 
ATOM     23  C   UNL     1      -4.060   5.694  -2.183  0.00  0.00    +0.011 C 
ATOM     24  C   UNL     1      -3.699   4.563  -4.381  0.00  0.00    +0.011 C 
ATOM     25  C   UNL     1      -3.727   3.220  -2.274  0.00  0.00    +0.011 C 
ENDBRANCH  21  22
ENDBRANCH   7  21
BRANCH   5  26
ATOM     26  C   UNL     1      -0.866   6.325   1.921  0.00  0.00    +0.092 C 
BRANCH  26  27
ATOM     27  C   UNL     1       0.556   6.822   1.976  0.00  0.00    -0.041 A 
ATOM     28  C   UNL     1       1.510   6.108   2.678  0.00  0.00    +0.007 A 
ATOM     29  C   UNL     1       2.815   6.558   2.726  0.00  0.00    +0.046 A 
ATOM     30  C   UNL     1       3.167   7.733   2.077  0.00  0.00    +0.120 A 
ATOM     31  C   UNL     1       2.207   8.450   1.377  0.00  0.00    +0.046 A 
ATOM     32  C   UNL     1       0.904   7.993   1.329  0.00  0.00    +0.007 A 
BRANCH  30  33
ATOM     33  O   UNL     1       4.449   8.180   2.126  0.00  0.00    -0.495 OA
ATOM     34  C   UNL     1       5.383   7.390   2.865  0.00  0.00    +0.277 C 
ENDBRANCH  30  33
ENDBRANCH  26  27
ENDBRANCH   5  26
TORSDOF 8
