REMARK  Name = ZINC00359544
REMARK  4 active torsions:
REMARK  status: ('A' for Active; 'I' for Inactive)
REMARK    1  A    between atoms: C_1  and  C_2
REMARK    2  A    between atoms: C_3  and  N_16
REMARK    3  A    between atoms: C_4  and  C_7
REMARK    4  A    between atoms: C_8  and  C_9
REMARK                            x       y       z     vdW  Elec       q    Type
REMARK                         _______ _______ _______ _____ _____    ______ ____
ROOT
ATOM      1  C   UNL     1      -3.532  -3.625   0.018  0.00  0.00    +0.071 C 
ATOM      2  C   UNL     1      -2.801  -2.307   0.017  0.00  0.00    +0.111 A 
ATOM      3  C   UNL     1      -1.406  -2.120   0.004  0.00  0.00    +0.195 A 
ATOM      4  C   UNL     1      -1.257  -0.754   0.010  0.00  0.00    +0.190 A 
ATOM      5  O   UNL     1      -2.503  -0.244   0.031  0.00  0.00    -0.353 OA
ATOM      6  N   UNL     1      -3.338  -1.119   0.029  0.00  0.00    -0.081 NA
ENDROOT
BRANCH   3   7
ATOM      7  N   UNL     1      -0.346  -3.154  -0.012  0.00  0.00    +0.062 N 
ATOM      8  O   UNL     1       0.101  -3.585   1.036  0.00  0.00    -0.126 OA
ATOM      9  O   UNL     1       0.080  -3.573  -1.073  0.00  0.00    -0.126 OA
ENDBRANCH   3   7
BRANCH   4  10
ATOM     10  C   UNL     1       0.002  -0.004   0.002  0.00  0.00    +0.052 C 
ATOM     11  C   UNL     1      -0.016   1.343   0.009  0.00  0.00    +0.011 C 
BRANCH  11  12
ATOM     12  C   UNL     1       1.249   2.096   0.001  0.00  0.00    -0.025 A 
ATOM     13  C   UNL     1       2.471   1.417  -0.008  0.00  0.00    +0.009 A 
ATOM     14  C   UNL     1       3.651   2.129  -0.020  0.00  0.00    +0.016 A 
ATOM     15  C   UNL     1       3.629   3.514  -0.012  0.00  0.00    +0.018 A 
ATOM     16  C   UNL     1       2.422   4.193   0.002  0.00  0.00    +0.016 A 
ATOM     17  C   UNL     1       1.234   3.494   0.009  0.00  0.00    +0.009 A 
ATOM     18 BR   UNL     1       5.253   4.481  -0.021  0.00  0.00    -0.050 Br
ENDBRANCH  11  12
ENDBRANCH   4  10
TORSDOF 3
