REMARK  Name = ZINC44171717
REMARK  6 active torsions:
REMARK  status: ('A' for Active; 'I' for Inactive)
REMARK    1  A    between atoms: C_1  and  C_2
REMARK    2  A    between atoms: C_2  and  N_3
REMARK    3  A    between atoms: C_4  and  C_6
REMARK    4  A    between atoms: C_6  and  O_7
REMARK    5  A    between atoms: O_7  and  C_8
REMARK    6  A    between atoms: C_12  and  N_14
REMARK                            x       y       z     vdW  Elec       q    Type
REMARK                         _______ _______ _______ _____ _____    ______ ____
ROOT
ATOM      1  C   UNL     1      -4.267  -4.469   0.727  0.00  0.00    +0.123 A 
ATOM      2  C   UNL     1      -5.339  -3.695   0.305  0.00  0.00    +0.046 A 
ATOM      3  C   UNL     1      -6.471  -4.299  -0.208  0.00  0.00    +0.005 A 
ATOM      4  C   UNL     1      -6.540  -5.676  -0.302  0.00  0.00    +0.023 A 
ATOM      5  C   UNL     1      -5.470  -6.456   0.118  0.00  0.00    +0.038 A 
ATOM      6  C   UNL     1      -4.330  -5.850   0.628  0.00  0.00    +0.069 A 
ENDROOT
BRANCH   5   7
ATOM      7  N   UNL     1      -5.540  -7.850   0.023  0.00  0.00    -0.269 N 
ATOM      8  C   UNL     1      -6.729  -8.475   0.133  0.00  0.00    +0.307 C 
ATOM      9  O   UNL     1      -7.758  -7.826   0.142  0.00  0.00    -0.252 OA
ATOM     10  N   UNL     1      -6.778  -9.818   0.234  0.00  0.00    -0.281 N 
ATOM     11  C   UNL     1      -8.062 -10.539   0.239  0.00  0.00    +0.114 C 
ATOM     12  C   UNL     1      -8.112 -11.417  -1.010  0.00  0.00    +0.054 C 
ATOM     13  C   UNL     1      -6.830 -12.190  -1.174  0.00  0.00    -0.041 A 
ATOM     14  C   UNL     1      -6.859 -13.323  -1.978  0.00  0.00    +0.004 A 
ATOM     15  C   UNL     1      -5.718 -14.071  -2.178  0.00  0.00    +0.000 A 
ATOM     16  C   UNL     1      -4.533 -13.692  -1.575  0.00  0.00    +0.000 A 
ATOM     17  C   UNL     1      -4.502 -12.569  -0.773  0.00  0.00    +0.005 A 
ATOM     18  C   UNL     1      -5.652 -11.819  -0.567  0.00  0.00    -0.027 A 
ATOM     19  C   UNL     1      -5.555 -10.620   0.336  0.00  0.00    +0.144 C 
ATOM     20  H   UNL     1      -4.732  -8.367  -0.123  0.00  0.00    +0.156 HD
ENDBRANCH   5   7
BRANCH   1  21
ATOM     21  O   UNL     1      -3.155  -3.874   1.230  0.00  0.00    -0.483 OA
BRANCH  21  22
ATOM     22  C   UNL     1      -3.159  -2.446   1.303  0.00  0.00    +0.324 C 
BRANCH  22  24
ATOM     23  N   UNL     1      -1.630  -0.649   2.046  0.00  0.00    -0.313 N 
ATOM     24  C   UNL     1      -1.853  -1.969   1.882  0.00  0.00    +0.251 C 
ATOM     25  O   UNL     1      -1.002  -2.771   2.202  0.00  0.00    -0.272 OA
ATOM     26  H   UNL     1      -2.311  -0.007   1.790  0.00  0.00    +0.149 HD
BRANCH  23  28
ATOM     27  C   UNL     1      -0.365   1.343   2.686  0.00  0.00    +0.024 C 
ATOM     28  C   UNL     1      -0.360  -0.185   2.609  0.00  0.00    +0.101 C 
ENDBRANCH  23  28
ENDBRANCH  22  24
ENDBRANCH  21  22
ENDBRANCH   1  21
TORSDOF 5
