REMARK  Name = ZINC03128095
REMARK  9 active torsions:
REMARK  status: ('A' for Active; 'I' for Inactive)
REMARK    1  A    between atoms: C_1  and  C_2
REMARK    2  A    between atoms: C_3  and  C_23
REMARK    3  A    between atoms: C_4  and  S_7
REMARK    4  A    between atoms: S_7  and  C_8
REMARK    5  A    between atoms: C_8  and  C_9
REMARK    6  A    between atoms: N_11  and  N_12
REMARK    7  A    between atoms: C_13  and  C_14
REMARK    8  A    between atoms: C_14  and  O_15
REMARK    9  A    between atoms: O_15  and  C_16
REMARK                            x       y       z     vdW  Elec       q    Type
REMARK                         _______ _______ _______ _____ _____    ______ ____
ROOT
ATOM      1  N   UNL     1      -5.938   0.226   0.059  0.00  0.00    -0.251 N 
ATOM      2  C   UNL     1      -7.253   0.607   0.074  0.00  0.00    +0.120 C 
ATOM      3  H   UNL     1      -5.706  -0.716   0.052  0.00  0.00    +0.171 HD
ATOM      4  H   UNL     1      -8.465   2.233   0.094  0.00  0.00    +0.157 HD
ATOM      5  N   UNL     1      -7.501   1.898   0.083  0.00  0.00    -0.387 N 
ATOM      6  H   UNL     1      -6.725   2.570   0.080  0.00  0.00    +0.157 HD
ENDROOT
BRANCH   1   9
ATOM      7  C   UNL     1      -3.632   0.820   0.041  0.00  0.00    +0.239 C 
ATOM      8  O   UNL     1      -3.343  -0.357   0.032  0.00  0.00    -0.273 OA
ATOM      9  N   UNL     1      -4.927   1.196   0.055  0.00  0.00    -0.235 N 
ATOM     10  H   UNL     1      -5.159   2.138   0.063  0.00  0.00    +0.173 HD
BRANCH   7  11
ATOM     11  C   UNL     1      -2.545   1.864   0.037  0.00  0.00    +0.173 C 
BRANCH  11  12
ATOM     12  S   UNL     1      -0.925   1.049   0.017  0.00  0.00    -0.095 S 
BRANCH  12  16
ATOM     13  C   UNL     1       3.911   3.359  -0.016  0.00  0.00    +0.054 C 
ATOM     14  C   UNL     1       2.406   3.271  -0.002  0.00  0.00    +0.025 A 
ATOM     15  C   UNL     1       1.601   2.142  -0.001  0.00  0.00    +0.095 A 
ATOM     16  C   UNL     1       0.224   2.385   0.014  0.00  0.00    +0.124 A 
ATOM     17  N   UNL     1      -0.194   3.627   0.024  0.00  0.00    -0.203 NA
ATOM     18  S   UNL     1       1.241   4.552   0.016  0.00  0.00    +0.009 S 
BRANCH  15  19
ATOM     19  C   UNL     1       2.142   0.816  -0.013  0.00  0.00    +0.103 C 
ATOM     20  N   UNL     1       2.572  -0.235  -0.023  0.00  0.00    -0.191 NA
ENDBRANCH  15  19
ENDBRANCH  12  16
ENDBRANCH  11  12
ENDBRANCH   7  11
ENDBRANCH   1   9
BRANCH   2  21
ATOM     21  C   UNL     1      -8.340  -0.436   0.078  0.00  0.00    +0.299 C 
BRANCH  21  22
ATOM     22  O   UNL     1      -9.617   0.206   0.094  0.00  0.00    -0.485 OA
BRANCH  22  23
ATOM     23  C   UNL     1     -10.713  -0.599   0.099  0.00  0.00    +0.121 A 
ATOM     24  C   UNL     1     -10.561  -1.978   0.084  0.00  0.00    +0.048 A 
ATOM     25  C   UNL     1     -11.675  -2.795   0.096  0.00  0.00    +0.042 A 
ATOM     26  C   UNL     1     -12.943  -2.237   0.111  0.00  0.00    +0.124 A 
ATOM     27  C   UNL     1     -13.095  -0.861   0.120  0.00  0.00    +0.042 A 
ATOM     28  C   UNL     1     -11.983  -0.042   0.114  0.00  0.00    +0.048 A 
ATOM     29  F   UNL     1     -14.032  -3.037   0.118  0.00  0.00    -0.205 F 
ENDBRANCH  22  23
ENDBRANCH  21  22
ENDBRANCH   2  21
TORSDOF 8
