REMARK  Name = ZINC32091745
REMARK  9 active torsions:
REMARK  status: ('A' for Active; 'I' for Inactive)
REMARK    1  A    between atoms: C_1  and  C_2
REMARK    2  A    between atoms: C_2  and  C_3
REMARK    3  A    between atoms: C_2  and  C_4
REMARK    4  A    between atoms: C_4  and  N_5
REMARK    5  A    between atoms: C_16  and  O_27
REMARK    6  A    between atoms: N_22  and  C_23
REMARK    7  A    between atoms: C_23  and  C_24
REMARK    8  A    between atoms: C_23  and  C_25
REMARK    9  A    between atoms: C_23  and  C_26
REMARK                            x       y       z     vdW  Elec       q    Type
REMARK                         _______ _______ _______ _____ _____    ______ ____
ROOT
ATOM      1  N   UNL     1      -1.416  -1.993  -0.116  0.00  0.00    -0.270 N 
ATOM      2  C   UNL     1      -1.448  -2.664  -1.326  0.00  0.00    +0.041 A 
ATOM      3  C   UNL     1      -1.498  -2.150  -2.623  0.00  0.00    +0.025 A 
ATOM      4  C   UNL     1      -1.520  -3.062  -3.666  0.00  0.00    +0.022 A 
ATOM      5  C   UNL     1      -1.494  -4.425  -3.446  0.00  0.00    +0.041 A 
ATOM      6  C   UNL     1      -1.444  -4.950  -2.159  0.00  0.00    +0.026 A 
ATOM      7  C   UNL     1      -1.421  -4.048  -1.116  0.00  0.00    -0.005 A 
ATOM      8  C   UNL     1      -1.368  -4.244   0.365  0.00  0.00    +0.112 C 
ATOM      9  C   UNL     1      -1.363  -2.842   0.932  0.00  0.00    +0.235 C 
ATOM     10  O   UNL     1      -1.321  -2.539   2.106  0.00  0.00    -0.274 OA
ATOM     11  C   UNL     1      -2.584  -5.020   0.867  0.00  0.00    +0.121 C 
ATOM     12  C   UNL     1      -2.404  -6.500   0.690  0.00  0.00    +0.191 C 
ATOM     13  N   UNL     1      -1.252  -7.097   0.759  0.00  0.00    -0.198 NA
ATOM     14  C   UNL     1      -0.123  -6.357   0.955  0.00  0.00    +0.159 A 
ATOM     15  C   UNL     1      -0.123  -4.978   0.777  0.00  0.00    +0.036 A 
ATOM     16  C   UNL     1       1.153  -4.517   1.044  0.00  0.00    +0.141 A 
ATOM     17  N   UNL     1       1.909  -5.544   1.357  0.00  0.00    -0.177 NA
ATOM     18  N   UNL     1       1.132  -6.713   1.299  0.00  0.00    -0.241 N 
ATOM     19 CL   UNL     1      -1.525  -5.506  -4.804  0.00  0.00    -0.084 Cl
ENDROOT
BRANCH  18  20
ATOM     20  C   UNL     1       1.601  -8.075   1.565  0.00  0.00    +0.057 C 
ATOM     21  C   UNL     1       1.394  -8.938   0.318  0.00  0.00    +0.036 C 
ATOM     22  C   UNL     1       3.088  -8.043   1.921  0.00  0.00    +0.036 C 
ATOM     23  C   UNL     1       0.809  -8.668   2.732  0.00  0.00    +0.036 C 
ENDBRANCH  18  20
BRANCH  12  24
ATOM     24  O   UNL     1      -3.498  -7.251   0.446  0.00  0.00    -0.495 OA
ATOM     25  H   UNL     1      -3.312  -8.194   0.342  0.00  0.00    +0.293 HD
ENDBRANCH  12  24
BRANCH   1  26
ATOM     26  C   UNL     1      -1.433  -0.534   0.013  0.00  0.00    +0.116 C 
BRANCH  26  28
ATOM     27  C   UNL     1      -0.019   1.526   0.010  0.00  0.00    +0.009 C 
ATOM     28  C   UNL     1       0.002  -0.004   0.002  0.00  0.00    +0.001 C 
ATOM     29  C   UNL     1       0.742  -0.511   1.242  0.00  0.00    +0.009 C 
ENDBRANCH  26  28
ENDBRANCH   1  26
TORSDOF 4
