REMARK  Name = ZINC44122868
REMARK  13 active torsions:
REMARK  status: ('A' for Active; 'I' for Inactive)
REMARK    1  A    between atoms: C_1  and  C_2
REMARK    2  A    between atoms: C_2  and  C_4
REMARK    3  A    between atoms: C_2  and  C_10
REMARK    4  A    between atoms: C_4  and  C_5
REMARK    5  A    between atoms: C_5  and  C_6
REMARK    6  A    between atoms: C_6  and  C_7
REMARK    7  A    between atoms: C_7  and  C_8
REMARK    8  A    between atoms: C_7  and  C_9
REMARK    9  A    between atoms: C_16  and  C_37
REMARK   10  A    between atoms: C_24  and  O_36
REMARK   11  A    between atoms: C_26  and  O_35
REMARK   12  A    between atoms: C_27  and  C_34
REMARK   13  A    between atoms: C_30  and  O_33
REMARK                            x       y       z     vdW  Elec       q    Type
REMARK                         _______ _______ _______ _____ _____    ______ ____
ROOT
ATOM      1  C   UNL     1       0.606  -0.500  -1.313  0.00  0.00    -0.002 C 
ATOM      2  C   UNL     1       0.468  -2.031  -1.414  0.00  0.00    +0.004 C 
ATOM      3  C   UNL     1      -0.353  -2.317  -2.692  0.00  0.00    +0.004 C 
ATOM      4  C   UNL     1      -0.138  -1.054  -3.547  0.00  0.00    -0.001 C 
ATOM      5  C   UNL     1      -0.179   0.089  -2.516  0.00  0.00    -0.026 C 
ATOM      6  C   UNL     1      -1.611   0.328  -2.030  0.00  0.00    +0.007 C 
ATOM      7  C   UNL     1      -2.551   0.564  -3.209  0.00  0.00    +0.005 C 
ATOM      8  C   UNL     1      -2.568  -0.697  -4.081  0.00  0.00    +0.001 C 
ATOM      9  C   UNL     1      -1.175  -0.906  -4.634  0.00  0.00    -0.001 C 
ATOM     10  C   UNL     1      -1.184  -2.143  -5.536  0.00  0.00    +0.038 C 
ATOM     11  C   UNL     1      -2.184  -1.938  -6.675  0.00  0.00    +0.147 C 
ATOM     12  C   UNL     1      -3.582  -1.722  -6.091  0.00  0.00    +0.100 C 
ATOM     13  C   UNL     1      -3.571  -0.508  -5.221  0.00  0.00    +0.002 C 
ATOM     14  C   UNL     1      -3.179   0.718  -6.048  0.00  0.00    +0.012 C 
ATOM     15  C   UNL     1      -4.182   0.907  -7.187  0.00  0.00    +0.032 C 
ATOM     16  C   UNL     1      -4.178  -0.335  -8.082  0.00  0.00    +0.117 C 
ATOM     17  C   UNL     1      -4.584  -1.519  -7.230  0.00  0.00    +0.069 C 
ATOM     18  C   UNL     1      -4.972  -0.305  -4.639  0.00  0.00    +0.014 C 
ATOM     19  C   UNL     1       0.470   1.366  -3.053  0.00  0.00    +0.012 C 
ENDROOT
BRANCH   1  21
ATOM     20  C   UNL     1       0.204   1.508   0.117  0.00  0.00    +0.008 C 
ATOM     21  C   UNL     1       0.002  -0.004   0.002  0.00  0.00    -0.010 C 
BRANCH  21  22
ATOM     22  C   UNL     1       0.692  -0.702   1.175  0.00  0.00    +0.003 C 
BRANCH  22  23
ATOM     23  C   UNL     1       0.006  -0.300   2.483  0.00  0.00    +0.001 C 
BRANCH  23  24
ATOM     24  C   UNL     1       0.697  -0.999   3.656  0.00  0.00    +0.003 C 
BRANCH  24  25
ATOM     25  C   UNL     1       0.011  -0.597   4.964  0.00  0.00    -0.017 C 
ATOM     26  C   UNL     1      -1.426  -1.123   4.968  0.00  0.00    +0.007 C 
ATOM     27  C   UNL     1       0.776  -1.195   6.146  0.00  0.00    +0.007 C 
ENDBRANCH  24  25
ENDBRANCH  23  24
ENDBRANCH  22  23
ENDBRANCH  21  22
ENDBRANCH   1  21
BRANCH  16  28
ATOM     28  O   UNL     1      -5.116  -0.158  -9.145  0.00  0.00    -0.392 OA
ATOM     29  H   UNL     1      -4.929   0.603  -9.712  0.00  0.00    +0.210 HD
ENDBRANCH  16  28
BRANCH  12  30
ATOM     30  O   UNL     1      -3.960  -2.865  -5.322  0.00  0.00    -0.385 OA
ATOM     31  H   UNL     1      -3.986  -3.688  -5.828  0.00  0.00    +0.210 HD
ENDBRANCH  12  30
BRANCH  11  32
ATOM     32  O   UNL     1      -2.192  -3.093  -7.516  0.00  0.00    -0.389 OA
ATOM     33  H   UNL     1      -1.337  -3.291  -7.920  0.00  0.00    +0.210 HD
ENDBRANCH  11  32
TORSDOF 8
