REMARK  Name = ZINC01100346
REMARK  5 active torsions:
REMARK  status: ('A' for Active; 'I' for Inactive)
REMARK    1  A    between atoms: C_1  and  C_2
REMARK    2  A    between atoms: C_2  and  C_32
REMARK    3  A    between atoms: C_6  and  C_23
REMARK    4  A    between atoms: C_8  and  N_22
REMARK    5  A    between atoms: C_9  and  C_13
REMARK                            x       y       z     vdW  Elec       q    Type
REMARK                         _______ _______ _______ _____ _____    ______ ____
ROOT
ATOM      1  C   UNL     1       2.256  12.306   5.927  0.00  0.00    +0.011 C 
ATOM      2  C   UNL     1       2.691  11.264   4.895  0.00  0.00    -0.022 C 
ATOM      3  C   UNL     1       1.504  10.371   4.542  0.00  0.00    +0.063 C 
ATOM      4  C   UNL     1       1.853   9.415   3.432  0.00  0.00    +0.054 A 
ATOM      5  C   UNL     1       2.897   9.682   2.538  0.00  0.00    +0.047 A 
ATOM      6  C   UNL     1       3.190   8.780   1.501  0.00  0.00    +0.006 A 
ATOM      7  C   UNL     1       2.413   7.592   1.391  0.00  0.00    +0.037 A 
ATOM      8  C   UNL     1       2.532   6.518   0.420  0.00  0.00    +0.054 A 
ATOM      9  C   UNL     1       1.657   5.456   0.510  0.00  0.00    +0.097 A 
ATOM     10  S   UNL     1       0.650   5.869   1.920  0.00  0.00    -0.062 S 
ATOM     11  C   UNL     1       1.391   7.424   2.354  0.00  0.00    +0.112 A 
ATOM     12  N   UNL     1       1.152   8.305   3.304  0.00  0.00    -0.244 NA
ATOM     13  C   UNL     1       3.697  10.907   2.682  0.00  0.00    +0.166 C 
ATOM     14  O   UNL     1       4.729  11.059   2.062  0.00  0.00    -0.292 OA
ATOM     15  C   UNL     1       3.189  11.974   3.629  0.00  0.00    +0.086 C 
ATOM     16  C   UNL     1       3.818  10.408   5.477  0.00  0.00    +0.011 C 
ENDROOT
BRANCH   9  17
ATOM     17  C   UNL     1       1.582   4.308  -0.318  0.00  0.00    +0.255 C 
ATOM     18  O   UNL     1       2.563   3.940  -0.940  0.00  0.00    -0.269 OA
ATOM     19  N   UNL     1       0.426   3.623  -0.417  0.00  0.00    -0.297 N 
ATOM     20  C   UNL     1       0.343   2.510  -1.383  0.00  0.00    +0.108 C 
ATOM     21  C   UNL     1      -0.389   1.288  -0.799  0.00  0.00    +0.019 C 
ATOM     22  C   UNL     1       0.023   1.074   0.637  0.00  0.00    +0.002 C 
ATOM     23  C   UNL     1      -0.942   1.817   1.556  0.00  0.00    +0.002 C 
ATOM     24  C   UNL     1      -0.609   3.233   1.767  0.00  0.00    +0.019 C 
ATOM     25  C   UNL     1      -0.682   4.008   0.428  0.00  0.00    +0.108 C 
ENDBRANCH   9  17
BRANCH   6  26
ATOM     26  C   UNL     1       4.282   9.059   0.544  0.00  0.00    -0.016 A 
ATOM     27  C   UNL     1       4.168  10.116  -0.361  0.00  0.00    +0.008 A 
ATOM     28  C   UNL     1       5.193  10.374  -1.247  0.00  0.00    +0.001 A 
ATOM     29  C   UNL     1       6.327   9.581  -1.249  0.00  0.00    +0.000 A 
ATOM     30  C   UNL     1       6.443   8.528  -0.359  0.00  0.00    +0.001 A 
ATOM     31  C   UNL     1       5.428   8.262   0.537  0.00  0.00    +0.008 A 
ENDBRANCH   6  26
BRANCH   8  32
ATOM     32  N   UNL     1       3.498   6.561  -0.575  0.00  0.00    -0.356 N 
ATOM     33  H   UNL     1       3.994   7.380  -0.733  0.00  0.00    +0.142 HD
ATOM     34  H   UNL     1       3.678   5.773  -1.111  0.00  0.00    +0.142 HD
ENDBRANCH   8  32
TORSDOF 3
