REMARK  Name = ZINC13705011
REMARK  3 active torsions:
REMARK  status: ('A' for Active; 'I' for Inactive)
REMARK    1  A    between atoms: C_1  and  S_2
REMARK    2  A    between atoms: S_2  and  N_5
REMARK    3  A    between atoms: C_8  and  C_11
REMARK                            x       y       z     vdW  Elec       q    Type
REMARK                         _______ _______ _______ _____ _____    ______ ____
ROOT
ATOM      1  C   UNL     1      -3.301  -3.873   1.635  0.00  0.00    +0.219 C 
ATOM      2  O   UNL     1      -4.360  -3.594   2.156  0.00  0.00    -0.275 OA
ATOM      3  N   UNL     1      -2.442  -2.894   1.287  0.00  0.00    -0.298 N 
ATOM      4  C   UNL     1      -1.112  -3.214   0.747  0.00  0.00    +0.126 C 
ATOM      5  C   UNL     1      -0.062  -2.431   1.543  0.00  0.00    +0.126 C 
ATOM      6  N   UNL     1      -0.410  -1.004   1.535  0.00  0.00    -0.307 N 
ATOM      7  C   UNL     1      -1.694  -0.764   2.207  0.00  0.00    +0.126 C 
ATOM      8  C   UNL     1      -2.810  -1.478   1.438  0.00  0.00    +0.126 C 
ATOM      9  C   UNL     1       0.595  -0.247   2.103  0.00  0.00    +0.162 A 
ATOM     10  N   UNL     1       0.649   1.054   2.274  0.00  0.00    -0.225 NA
ATOM     11  C   UNL     1       1.707   1.667   2.851  0.00  0.00    +0.080 A 
ATOM     12  C   UNL     1       1.891   3.047   3.092  0.00  0.00    +0.030 A 
ATOM     13  C   UNL     1       3.034   3.508   3.692  0.00  0.00    +0.017 A 
ATOM     14  C   UNL     1       4.047   2.643   4.082  0.00  0.00    +0.019 A 
ATOM     15  C   UNL     1       3.900   1.284   3.862  0.00  0.00    +0.032 A 
ATOM     16  C   UNL     1       2.758   0.816   3.261  0.00  0.00    +0.042 A 
ATOM     17  S   UNL     1       2.153  -0.788   2.792  0.00  0.00    -0.052 S 
ATOM     18 BR   UNL     1       5.611   3.312   4.907  0.00  0.00    -0.050 Br
ENDROOT
BRANCH   1  22
ATOM     19  N   UNL     1      -3.535  -7.982   0.645  0.00  0.00    -0.181 NA
ATOM     20  C   UNL     1      -3.364  -7.677   2.072  0.00  0.00    +0.110 C 
ATOM     21  C   UNL     1      -3.753  -6.215   2.314  0.00  0.00    +0.030 C 
ATOM     22  C   UNL     1      -2.945  -5.315   1.377  0.00  0.00    +0.078 C 
ATOM     23  C   UNL     1      -3.268  -5.667  -0.077  0.00  0.00    +0.030 C 
ATOM     24  C   UNL     1      -2.873  -7.122  -0.346  0.00  0.00    +0.110 C 
BRANCH  19  26
ATOM     25  C   UNL     1      -6.132  -8.602  -0.024  0.00  0.00    +0.215 C 
ATOM     26  S   UNL     1      -4.456  -9.271   0.163  0.00  0.00    +0.029 S 
ATOM     27  O   UNL     1      -3.931  -9.638  -1.105  0.00  0.00    -0.158 OA
ATOM     28  O   UNL     1      -4.410 -10.179   1.256  0.00  0.00    -0.158 OA
ENDBRANCH  19  26
ENDBRANCH   1  22
TORSDOF 2
