REMARK  Name = ZINC67392742
REMARK  10 active torsions:
REMARK  status: ('A' for Active; 'I' for Inactive)
REMARK    1  A    between atoms: C_1  and  C_2
REMARK    2  A    between atoms: N_7  and  C_9
REMARK    3  A    between atoms: C_9  and  C_10
REMARK    4  A    between atoms: C_9  and  C_11
REMARK    5  A    between atoms: C_9  and  C_12
REMARK    6  A    between atoms: C_12  and  N_13
REMARK    7  A    between atoms: C_14  and  C_16
REMARK    8  A    between atoms: N_18  and  C_19
REMARK    9  A    between atoms: C_24  and  S_25
REMARK   10  A    between atoms: S_25  and  C_26
REMARK                            x       y       z     vdW  Elec       q    Type
REMARK                         _______ _______ _______ _____ _____    ______ ____
ROOT
ATOM      1  N   UNL     1       2.208  -4.460   1.152  0.00  0.00    -0.309 N 
ATOM      2  C   UNL     1       2.337  -5.781   0.922  0.00  0.00    +0.299 C 
ATOM      3  O   UNL     1       1.944  -6.582   1.745  0.00  0.00    -0.265 OA
ATOM      4  H   UNL     1       2.521  -3.820   0.493  0.00  0.00    +0.149 HD
ENDROOT
BRANCH   2   5
ATOM      5  C   UNL     1       2.962  -6.261  -0.347  0.00  0.00    +0.303 C 
ATOM      6  O   UNL     1       3.354  -5.460  -1.171  0.00  0.00    -0.265 OA
ATOM      7  N   UNL     1       3.091  -7.583  -0.577  0.00  0.00    -0.277 N 
ATOM      8  H   UNL     1       2.837  -8.221   0.108  0.00  0.00    +0.155 HD
BRANCH   7   9
ATOM      9  C   UNL     1       3.590  -8.034  -1.803  0.00  0.00    +0.047 A 
ATOM     10  C   UNL     1       4.567  -7.306  -2.466  0.00  0.00    +0.024 A 
ATOM     11  C   UNL     1       5.058  -7.754  -3.678  0.00  0.00    +0.002 A 
ATOM     12  C   UNL     1       4.579  -8.927  -4.234  0.00  0.00    +0.001 A 
ATOM     13  C   UNL     1       3.606  -9.659  -3.581  0.00  0.00    +0.017 A 
ATOM     14  C   UNL     1       3.110  -9.220  -2.361  0.00  0.00    +0.034 A 
BRANCH  14  15
ATOM     15  S   UNL     1       1.874 -10.155  -1.521  0.00  0.00    -0.054 S 
BRANCH  15  16
ATOM     16  C   UNL     1       1.583 -11.575  -2.611  0.00  0.00    +0.404 C 
ATOM     17  F   UNL     1       1.144 -11.123  -3.860  0.00  0.00    -0.197 F 
ATOM     18  F   UNL     1       2.772 -12.295  -2.767  0.00  0.00    -0.197 F 
ENDBRANCH  15  16
ENDBRANCH  14  15
ENDBRANCH   7   9
ENDBRANCH   2   5
BRANCH   1  19
ATOM     19  C   UNL     1       1.594  -3.989   2.396  0.00  0.00    +0.092 C 
BRANCH  19  20
ATOM     20  C   UNL     1       1.570  -2.459   2.406  0.00  0.00    -0.055 C 
ATOM     21  C   UNL     1       3.001  -1.926   2.309  0.00  0.00    -0.008 C 
ATOM     22  C   UNL     1       0.929  -1.968   3.705  0.00  0.00    -0.008 C 
BRANCH  20  28
ATOM     23  C   UNL     1       0.013   1.535   0.041  0.00  0.00    +0.005 C 
ATOM     24  C   UNL     1       0.029   0.005   0.031  0.00  0.00    -0.031 C 
ATOM     25  C   UNL     1      -1.408  -0.522   0.054  0.00  0.00    -0.001 C 
ATOM     26  C   UNL     1      -1.380  -2.051   0.123  0.00  0.00    -0.018 C 
ATOM     27  C   UNL     1      -0.584  -2.487   1.355  0.00  0.00    -0.078 C 
ATOM     28  N   UNL     1       0.788  -1.974   1.261  0.00  0.00    +0.384 N 
ATOM     29  C   UNL     1       0.775  -0.507   1.266  0.00  0.00    -0.075 C 
ATOM     30  H   UNL     1       1.211  -2.302   0.405  0.00  0.00    -0.081 HD
ENDBRANCH  20  28
ENDBRANCH  19  20
ENDBRANCH   1  19
TORSDOF 7
