REMARK  Name = ZINC19459656
REMARK  6 active torsions:
REMARK  status: ('A' for Active; 'I' for Inactive)
REMARK    1  A    between atoms: C_1  and  C_2
REMARK    2  A    between atoms: C_2  and  C_4
REMARK    3  A    between atoms: C_2  and  N_9
REMARK    4  A    between atoms: C_10  and  C_12
REMARK    5  A    between atoms: C_12  and  C_14
REMARK    6  A    between atoms: C_12  and  N_15
REMARK                            x       y       z     vdW  Elec       q    Type
REMARK                         _______ _______ _______ _____ _____    ______ ____
ROOT
ATOM      1  N   UNL     1       3.726   7.941   2.843  0.00  0.00    -0.290 N 
ATOM      2  C   UNL     1       4.944   8.714   2.548  0.00  0.00    +0.114 C 
ATOM      3  C   UNL     1       4.604   9.776   1.496  0.00  0.00    +0.088 C 
ATOM      4  C   UNL     1       4.080  11.047   2.148  0.00  0.00    +0.180 C 
ATOM      5  C   UNL     1       2.736  10.856   2.839  0.00  0.00    +0.078 C 
ATOM      6  C   UNL     1       2.862   9.918   4.038  0.00  0.00    +0.101 C 
ATOM      7  C   UNL     1       2.738   8.490   3.550  0.00  0.00    +0.216 C 
ATOM      8  O   UNL     1       1.742   7.846   3.802  0.00  0.00    -0.276 OA
ATOM      9  N   UNL     1       5.058  11.497   3.151  0.00  0.00    -0.274 N 
ATOM     10  C   UNL     1       6.116  12.252   2.784  0.00  0.00    +0.250 C 
ATOM     11  O   UNL     1       6.968  12.572   3.590  0.00  0.00    -0.270 OA
ATOM     12  C   UNL     1       6.205  12.676   1.372  0.00  0.00    +0.078 A 
ATOM     13  C   UNL     1       7.380  13.186   0.829  0.00  0.00    +0.017 A 
ATOM     14  C   UNL     1       7.405  13.570  -0.496  0.00  0.00    +0.001 A 
ATOM     15  C   UNL     1       6.270  13.447  -1.281  0.00  0.00    +0.004 A 
ATOM     16  C   UNL     1       5.098  12.941  -0.752  0.00  0.00    +0.046 A 
ATOM     17  C   UNL     1       5.055  12.552   0.576  0.00  0.00    +0.135 A 
ATOM     18  O   UNL     1       3.929  12.054   1.136  0.00  0.00    -0.468 OA
ATOM     19  H   UNL     1       4.929  11.220   4.208  0.00  0.00    +0.153 HD
ENDROOT
BRANCH   1  20
ATOM     20  C   UNL     1       3.601   6.563   2.362  0.00  0.00    +0.159 C 
ATOM     21  C   UNL     1       3.431   5.620   3.556  0.00  0.00    +0.038 C 
BRANCH  20  23
ATOM     22  N   UNL     1       2.086   5.268   0.897  0.00  0.00    -0.307 N 
ATOM     23  C   UNL     1       2.400   6.452   1.460  0.00  0.00    +0.234 C 
ATOM     24  O   UNL     1       1.715   7.428   1.239  0.00  0.00    -0.274 OA
ATOM     25  H   UNL     1       2.707   4.383   1.097  0.00  0.00    +0.149 HD
BRANCH  22  27
ATOM     26  C   UNL     1       1.310   5.566  -1.403  0.00  0.00    +0.033 C 
ATOM     27  C   UNL     1       0.918   5.160   0.020  0.00  0.00    +0.107 C 
BRANCH  27  28
ATOM     28  C   UNL     1       0.421   3.738   0.017  0.00  0.00    +0.010 A 
ATOM     29  C   UNL     1      -0.855   3.279   0.027  0.00  0.00    +0.013 A 
ATOM     30  C   UNL     1      -1.077   1.915   0.017  0.00  0.00    +0.008 A 
ATOM     31  C   UNL     1      -0.013   1.076   0.008  0.00  0.00    +0.045 A 
ATOM     32  S   UNL     1       1.359   2.219   0.001  0.00  0.00    -0.100 S 
ENDBRANCH  27  28
ENDBRANCH  22  27
ENDBRANCH  20  23
ENDBRANCH   1  20
TORSDOF 4
