REMARK  Name = ZINC10676638
REMARK  10 active torsions:
REMARK  status: ('A' for Active; 'I' for Inactive)
REMARK    1  A    between atoms: C_1  and  C_2
REMARK    2  A    between atoms: C_2  and  C_3
REMARK    3  A    between atoms: C_3  and  C_5
REMARK    4  A    between atoms: C_3  and  C_6
REMARK    5  A    between atoms: C_11  and  O_12
REMARK    6  A    between atoms: O_12  and  C_13
REMARK    7  A    between atoms: C_13  and  C_15
REMARK    8  A    between atoms: C_13  and  C_17
REMARK    9  A    between atoms: C_15  and  C_16
REMARK   10  A    between atoms: N_19  and  C_20
REMARK                            x       y       z     vdW  Elec       q    Type
REMARK                         _______ _______ _______ _____ _____    ______ ____
ROOT
ATOM      1  C   UNL     1       2.425  -4.229  -0.269  0.00  0.00    +0.259 C 
ENDROOT
BRANCH   1   2
ATOM      2  C   UNL     1       2.404  -2.722  -0.250  0.00  0.00    +0.258 C 
ATOM      3  O   UNL     1       3.443  -2.100  -0.314  0.00  0.00    -0.271 OA
ATOM      4  N   UNL     1       1.230  -2.066  -0.161  0.00  0.00    -0.282 N 
ATOM      5  H   UNL     1       0.405  -2.561  -0.036  0.00  0.00    +0.155 HD
BRANCH   4   6
ATOM      6  C   UNL     1       1.200  -0.669  -0.247  0.00  0.00    +0.034 A 
ATOM      7  C   UNL     1       2.113  -0.003  -1.054  0.00  0.00    +0.024 A 
ATOM      8  C   UNL     1       2.082   1.375  -1.138  0.00  0.00    +0.017 A 
ATOM      9  C   UNL     1       1.142   2.092  -0.418  0.00  0.00    +0.018 A 
ATOM     10  C   UNL     1       0.232   1.431   0.387  0.00  0.00    +0.017 A 
ATOM     11  C   UNL     1       0.259   0.053   0.474  0.00  0.00    +0.024 A 
ATOM     12 BR   UNL     1       1.103   3.979  -0.535  0.00  0.00    -0.050 Br
ENDBRANCH   4   6
ENDBRANCH   1   2
BRANCH   1  13
ATOM     13  C   UNL     1       1.914  -4.763   1.070  0.00  0.00    +0.051 C 
ATOM     14  C   UNL     1       1.818  -6.289   1.007  0.00  0.00    +0.008 C 
ENDBRANCH   1  13
BRANCH   1  15
ATOM     15  O   UNL     1       3.762  -4.683  -0.485  0.00  0.00    -0.479 OA
BRANCH  15  21
ATOM     16  C   UNL     1       5.199  -6.181  -1.649  0.00  0.00    -0.003 A 
ATOM     17  C   UNL     1       5.361  -7.280  -2.469  0.00  0.00    +0.007 A 
ATOM     18  C   UNL     1       4.254  -7.954  -2.950  0.00  0.00    +0.001 A 
ATOM     19  C   UNL     1       2.982  -7.534  -2.606  0.00  0.00    +0.004 A 
ATOM     20  C   UNL     1       2.815  -6.439  -1.781  0.00  0.00    +0.046 A 
ATOM     21  C   UNL     1       3.924  -5.761  -1.297  0.00  0.00    +0.125 A 
BRANCH  16  22
ATOM     22  C   UNL     1       6.406  -5.442  -1.130  0.00  0.00    +0.019 C 
ATOM     23  C   UNL     1       7.274  -6.398  -0.309  0.00  0.00    +0.012 C 
BRANCH  22  25
ATOM     24  C   UNL     1       8.372  -4.046  -1.782  0.00  0.00    +0.004 C 
ATOM     25  C   UNL     1       7.217  -4.900  -2.308  0.00  0.00    +0.004 C 
ENDBRANCH  22  25
ENDBRANCH  16  22
ENDBRANCH  15  21
ENDBRANCH   1  15
TORSDOF 7
