REMARK  Name = ZINC35156536
REMARK  9 active torsions:
REMARK  status: ('A' for Active; 'I' for Inactive)
REMARK    1  A    between atoms: C_1  and  C_2
REMARK    2  A    between atoms: C_6  and  C_8
REMARK    3  A    between atoms: C_8  and  N_9
REMARK    4  A    between atoms: C_19  and  S_22
REMARK    5  A    between atoms: S_22  and  C_23
REMARK    6  A    between atoms: C_23  and  C_24
REMARK    7  A    between atoms: C_24  and  C_25
REMARK    8  A    between atoms: C_25  and  C_26
REMARK    9  A    between atoms: C_32  and  C_35
REMARK                            x       y       z     vdW  Elec       q    Type
REMARK                         _______ _______ _______ _____ _____    ______ ____
ROOT
ATOM      1  N   UNL     1       1.440  -3.073   2.903  0.00  0.00    -0.319 N 
ATOM      2  C   UNL     1       2.200  -4.176   2.548  0.00  0.00    +0.053 A 
ATOM      3  C   UNL     1       1.920  -5.295   1.770  0.00  0.00    +0.026 A 
ATOM      4  C   UNL     1       2.884  -6.261   1.577  0.00  0.00    +0.002 A 
ATOM      5  C   UNL     1       4.138  -6.130   2.153  0.00  0.00    +0.001 A 
ATOM      6  C   UNL     1       4.435  -5.029   2.928  0.00  0.00    +0.012 A 
ATOM      7  C   UNL     1       3.470  -4.045   3.130  0.00  0.00    +0.029 A 
ATOM      8  C   UNL     1       3.455  -2.777   3.880  0.00  0.00    +0.138 A 
ATOM      9  C   UNL     1       2.172  -2.222   3.693  0.00  0.00    +0.165 A 
ATOM     10  N   UNL     1       1.900  -1.056   4.271  0.00  0.00    -0.201 NA
ATOM     11  C   UNL     1       2.836  -0.455   4.994  0.00  0.00    +0.211 A 
ATOM     12  N   UNL     1       4.039  -0.997   5.152  0.00  0.00    -0.122 NA
ATOM     13  N   UNL     1       4.344  -2.130   4.618  0.00  0.00    -0.143 NA
ENDROOT
BRANCH   1  14
ATOM     14  C   UNL     1       0.054  -2.845   2.489  0.00  0.00    +0.159 C 
BRANCH  14  20
ATOM     15  C   UNL     1      -0.018   1.503   0.010  0.00  0.00    +0.044 C 
ATOM     16  C   UNL     1       0.002  -0.004   0.002  0.00  0.00    -0.050 A 
ATOM     17  C   UNL     1       0.006  -0.689  -1.199  0.00  0.00    +0.003 A 
ATOM     18  C   UNL     1       0.025  -2.071  -1.207  0.00  0.00    +0.001 A 
ATOM     19  C   UNL     1       0.040  -2.768  -0.013  0.00  0.00    +0.005 A 
ATOM     20  C   UNL     1       0.037  -2.084   1.188  0.00  0.00    -0.027 A 
ATOM     21  C   UNL     1       0.023  -0.702   1.195  0.00  0.00    +0.008 A 
ENDBRANCH  14  20
ENDBRANCH   1  14
BRANCH  11  22
ATOM     22  S   UNL     1       2.477   1.090   5.760  0.00  0.00    -0.084 S 
BRANCH  22  23
ATOM     23  C   UNL     1       4.014   1.521   6.621  0.00  0.00    +0.078 C 
BRANCH  23  24
ATOM     24  C   UNL     1       3.839   2.861   7.339  0.00  0.00    +0.020 C 
BRANCH  24  25
ATOM     25  C   UNL     1       5.135   3.224   8.065  0.00  0.00    +0.097 C 
BRANCH  25  26
ATOM     26  C   UNL     1       4.963   4.543   8.772  0.00  0.00    +0.215 C 
ATOM     27  O   UNL     1       3.906   5.135   8.702  0.00  0.00    -0.276 OA
ATOM     28  N   UNL     1       5.982   5.066   9.483  0.00  0.00    -0.305 N 
ATOM     29  C   UNL     1       7.274   4.369   9.577  0.00  0.00    +0.089 C 
ATOM     30  C   UNL     1       8.388   5.361   9.228  0.00  0.00    -0.063 C 
ATOM     31  N   UNL     1       8.274   6.545  10.089  0.00  0.00    +0.383 N 
ATOM     32  C   UNL     1       7.016   7.249   9.808  0.00  0.00    -0.057 C 
ATOM     33  C   UNL     1       5.836   6.352  10.181  0.00  0.00    +0.091 C 
ATOM     34  C   UNL     1       6.958   8.539  10.629  0.00  0.00    -0.012 C 
ATOM     35  H   UNL     1       8.289   6.259  11.056  0.00  0.00    -0.085 HD
ATOM     36  H   UNL     1       9.051   7.165   9.912  0.00  0.00    -0.085 HD
ENDBRANCH  25  26
ENDBRANCH  24  25
ENDBRANCH  23  24
ENDBRANCH  22  23
ENDBRANCH  11  22
TORSDOF 7
