REMARK  Name = ZINC28656729
REMARK  8 active torsions:
REMARK  status: ('A' for Active; 'I' for Inactive)
REMARK    1  A    between atoms: C_1  and  C_2
REMARK    2  A    between atoms: C_2  and  C_3
REMARK    3  A    between atoms: C_5  and  S_8
REMARK    4  A    between atoms: S_8  and  C_9
REMARK    5  A    between atoms: C_9  and  C_11
REMARK    6  A    between atoms: C_9  and  C_12
REMARK    7  A    between atoms: N_14  and  C_15
REMARK    8  A    between atoms: C_19  and  C_21
REMARK                            x       y       z     vdW  Elec       q    Type
REMARK                         _______ _______ _______ _____ _____    ______ ____
ROOT
ATOM      1  C   UNL     1      -0.161  -0.019  -0.030  0.00  0.00    +0.230 C 
ATOM      2  O   UNL     1      -0.473  -0.646   0.960  0.00  0.00    -0.274 OA
ATOM      3  N   UNL     1       0.203  -0.669  -1.153  0.00  0.00    -0.285 N 
ATOM      4  H   UNL     1       0.403  -0.104  -2.075  0.00  0.00    +0.155 HD
ENDROOT
BRANCH   3   5
ATOM      5  C   UNL     1       0.326  -2.063  -1.146  0.00  0.00    +0.034 A 
ATOM      6  C   UNL     1       0.764  -2.717  -0.001  0.00  0.00    +0.024 A 
ATOM      7  C   UNL     1       0.880  -4.093   0.005  0.00  0.00    +0.017 A 
ATOM      8  C   UNL     1       0.571  -4.819  -1.131  0.00  0.00    +0.021 A 
ATOM      9  C   UNL     1       0.141  -4.170  -2.275  0.00  0.00    -0.035 A 
ATOM     10  C   UNL     1       0.018  -2.795  -2.284  0.00  0.00    +0.027 A 
ATOM     11  C   UNL     1      -0.194  -4.965  -3.510  0.00  0.00    +0.045 C 
ATOM     12 BR   UNL     1       0.737  -6.703  -1.121  0.00  0.00    -0.050 Br
ENDBRANCH   3   5
BRANCH   1  13
ATOM     13  C   UNL     1      -0.178   1.488  -0.004  0.00  0.00    +0.137 C 
ATOM     14  C   UNL     1       1.245   2.012   0.199  0.00  0.00    +0.029 C 
BRANCH  13  15
ATOM     15  S   UNL     1      -1.230   2.055   1.356  0.00  0.00    -0.074 S 
BRANCH  15  18
ATOM     16  C   UNL     1      -1.515   5.943   1.207  0.00  0.00    +0.152 A 
ATOM     17  N   UNL     1      -1.833   4.752   1.798  0.00  0.00    -0.206 NA
ATOM     18  C   UNL     1      -1.194   3.793   1.066  0.00  0.00    +0.185 A 
ATOM     19  N   UNL     1      -0.547   4.411   0.104  0.00  0.00    -0.254 N 
ATOM     20  N   UNL     1      -0.738   5.679   0.195  0.00  0.00    -0.157 NA
ATOM     21  H   UNL     1       0.084   4.005  -0.700  0.00  0.00    +0.191 HD
BRANCH  16  23
ATOM     22  C   UNL     1      -0.763   8.213   1.862  0.00  0.00    +0.012 C 
ATOM     23  C   UNL     1      -1.978   7.309   1.644  0.00  0.00    +0.075 C 
ENDBRANCH  16  23
ENDBRANCH  15  18
ENDBRANCH  13  15
ENDBRANCH   1  13
TORSDOF 5
