REMARK  Name = ZINC19353999
REMARK  7 active torsions:
REMARK  status: ('A' for Active; 'I' for Inactive)
REMARK    1  A    between atoms: C_1  and  C_2
REMARK    2  A    between atoms: C_2  and  C_4
REMARK    3  A    between atoms: C_2  and  N_14
REMARK    4  A    between atoms: C_15  and  C_17
REMARK    5  A    between atoms: C_17  and  N_18
REMARK    6  A    between atoms: C_21  and  C_25
REMARK    7  A    between atoms: C_21  and  C_26
REMARK                            x       y       z     vdW  Elec       q    Type
REMARK                         _______ _______ _______ _____ _____    ______ ____
ROOT
ATOM      1  C   UNL     1      -4.516   4.793  -3.174  0.00  0.00    +0.213 C 
ENDROOT
BRANCH   1   2
ATOM      2  N   UNL     1      -4.004   4.240  -1.917  0.00  0.00    -0.215 N 
ATOM      3  C   UNL     1      -2.884   4.669  -1.303  0.00  0.00    +0.251 C 
ATOM      4  O   UNL     1      -2.138   5.551  -1.672  0.00  0.00    -0.272 OA
ATOM      5  C   UNL     1      -2.750   3.819  -0.055  0.00  0.00    +0.138 C 
ATOM      6  N   UNL     1      -3.920   2.927  -0.116  0.00  0.00    -0.281 N 
ATOM      7  C   UNL     1      -4.591   3.248  -1.238  0.00  0.00    +0.310 C 
ATOM      8  O   UNL     1      -5.615   2.699  -1.593  0.00  0.00    -0.252 OA
ATOM      9  C   UNL     1      -2.803   4.690   1.202  0.00  0.00    +0.047 C 
ATOM     10  H   UNL     1      -4.088   2.184   0.677  0.00  0.00    +0.152 HD
BRANCH   5  11
ATOM     11  C   UNL     1      -1.472   3.021  -0.091  0.00  0.00    +0.022 A 
ATOM     12  C   UNL     1      -1.521   1.641  -0.147  0.00  0.00    +0.047 A 
ATOM     13  C   UNL     1      -0.347   0.907  -0.175  0.00  0.00    +0.124 A 
ATOM     14  C   UNL     1       0.876   1.557  -0.158  0.00  0.00    +0.041 A 
ATOM     15  C   UNL     1       0.924   2.936  -0.108  0.00  0.00    +0.041 A 
ATOM     16  C   UNL     1      -0.250   3.670  -0.074  0.00  0.00    +0.129 A 
ATOM     17  F   UNL     1      -0.202   5.019  -0.024  0.00  0.00    -0.205 F 
ATOM     18  F   UNL     1      -0.395  -0.442  -0.224  0.00  0.00    -0.205 F 
ENDBRANCH   5  11
ENDBRANCH   1   2
BRANCH   1  20
ATOM     19  N   UNL     1      -6.051   6.598  -3.884  0.00  0.00    -0.307 N 
ATOM     20  C   UNL     1      -5.455   5.933  -2.874  0.00  0.00    +0.231 C 
ATOM     21  O   UNL     1      -5.675   6.252  -1.725  0.00  0.00    -0.274 OA
ATOM     22  H   UNL     1      -5.852   6.308  -4.927  0.00  0.00    +0.149 HD
BRANCH  19  24
ATOM     23  C   UNL     1      -8.377   7.160  -3.379  0.00  0.00    +0.033 C 
ATOM     24  C   UNL     1      -6.964   7.706  -3.594  0.00  0.00    +0.101 C 
BRANCH  24  25
ATOM     25  C   UNL     1      -6.968   8.670  -4.752  0.00  0.00    -0.020 A 
ATOM     26  C   UNL     1      -6.681   8.232  -6.008  0.00  0.00    +0.006 A 
ATOM     27  C   UNL     1      -6.686   9.107  -7.092  0.00  0.00    +0.001 A 
ATOM     28  C   UNL     1      -6.968  10.428  -6.925  0.00  0.00    +0.008 A 
ATOM     29  C   UNL     1      -7.263  10.919  -5.642  0.00  0.00    -0.018 A 
ATOM     30  C   UNL     1      -7.264  10.027  -4.540  0.00  0.00    -0.013 A 
ATOM     31  C   UNL     1      -7.559  10.518  -3.257  0.00  0.00    +0.009 A 
ATOM     32  C   UNL     1      -7.840  11.839  -3.090  0.00  0.00    +0.001 A 
ATOM     33  C   UNL     1      -7.839  12.716  -4.173  0.00  0.00    +0.001 A 
ATOM     34  C   UNL     1      -7.558  12.277  -5.430  0.00  0.00    +0.008 A 
ENDBRANCH  24  25
ENDBRANCH  19  24
ENDBRANCH   1  20
TORSDOF 5
