REMARK  Name = ZINC39667632
REMARK  8 active torsions:
REMARK  status: ('A' for Active; 'I' for Inactive)
REMARK    1  A    between atoms: C_1  and  C_2
REMARK    2  A    between atoms: C_6  and  C_9
REMARK    3  A    between atoms: C_7  and  C_8
REMARK    4  A    between atoms: C_9  and  N_10
REMARK    5  A    between atoms: C_11  and  C_13
REMARK    6  A    between atoms: C_24  and  C_26
REMARK    7  A    between atoms: C_28  and  C_35
REMARK    8  A    between atoms: C_30  and  C_31
REMARK                            x       y       z     vdW  Elec       q    Type
REMARK                         _______ _______ _______ _____ _____    ______ ____
ROOT
ATOM      1  C   UNL     1      -2.982  -3.612   4.723  0.00  0.00    +0.100 C 
ATOM      2  C   UNL     1      -3.395  -2.205   5.209  0.00  0.00    +0.121 C 
ATOM      3  N   UNL     1      -4.192  -2.450   6.433  0.00  0.00    -0.296 N 
ATOM      4  C   UNL     1      -3.483  -3.558   7.119  0.00  0.00    +0.115 C 
ATOM      5  C   UNL     1      -3.041  -4.497   5.979  0.00  0.00    -0.004 C 
ATOM      6  C   UNL     1      -4.062  -5.615   5.791  0.00  0.00    -0.010 C 
ATOM      7  C   UNL     1      -4.062  -6.514   7.030  0.00  0.00    -0.082 C 
ATOM      8  N   UNL     1      -2.721  -7.077   7.228  0.00  0.00    +0.379 N 
ATOM      9  C   UNL     1      -1.761  -6.001   7.500  0.00  0.00    -0.082 C 
ATOM     10  C   UNL     1      -1.664  -5.080   6.281  0.00  0.00    -0.010 C 
ATOM     11  C   UNL     1      -5.309  -1.811   6.834  0.00  0.00    +0.250 C 
ATOM     12  O   UNL     1      -5.838  -0.995   6.103  0.00  0.00    -0.270 OA
ATOM     13  H   UNL     1      -2.738  -7.716   8.009  0.00  0.00    -0.086 HD
ATOM     14  H   UNL     1      -2.440  -7.574   6.396  0.00  0.00    -0.086 HD
ENDROOT
BRANCH  11  15
ATOM     15  C   UNL     1      -5.889  -2.100   8.157  0.00  0.00    +0.087 A 
ATOM     16  C   UNL     1      -5.309  -2.937   9.218  0.00  0.00    +0.058 A 
ATOM     17  C   UNL     1      -6.187  -2.907  10.232  0.00  0.00    +0.103 A 
ATOM     18  O   UNL     1      -7.232  -2.138   9.887  0.00  0.00    -0.455 OA
ATOM     19  C   UNL     1      -7.073  -1.643   8.656  0.00  0.00    +0.220 A 
ATOM     20  C   UNL     1      -6.026  -3.622  11.549  0.00  0.00    +0.086 C 
BRANCH  19  21
ATOM     21  C   UNL     1      -8.040  -0.735   7.940  0.00  0.00    +0.451 C 
ATOM     22  F   UNL     1      -8.957  -1.507   7.218  0.00  0.00    -0.163 F 
ATOM     23  F   UNL     1      -8.725   0.048   8.875  0.00  0.00    -0.163 F 
ATOM     24  F   UNL     1      -7.336   0.096   7.062  0.00  0.00    -0.163 F 
ENDBRANCH  19  21
ENDBRANCH  11  15
BRANCH   1  26
ATOM     25  N   UNL     1      -1.173  -4.557   3.325  0.00  0.00    -0.311 N 
ATOM     26  C   UNL     1      -1.583  -3.586   4.165  0.00  0.00    +0.218 C 
ATOM     27  O   UNL     1      -0.825  -2.690   4.471  0.00  0.00    -0.275 OA
ATOM     28  H   UNL     1      -1.779  -5.274   3.080  0.00  0.00    +0.149 HD
BRANCH  25  29
ATOM     29  C   UNL     1       0.188  -4.532   2.783  0.00  0.00    +0.139 C 
BRANCH  29  35
ATOM     30  C   UNL     1      -0.429  -6.753  -1.659  0.00  0.00    +0.044 C 
ATOM     31  C   UNL     1       0.095  -6.783  -0.246  0.00  0.00    -0.047 A 
ATOM     32  C   UNL     1       0.762  -7.901   0.221  0.00  0.00    +0.003 A 
ATOM     33  C   UNL     1       1.243  -7.928   1.516  0.00  0.00    +0.001 A 
ATOM     34  C   UNL     1       1.057  -6.838   2.346  0.00  0.00    +0.005 A 
ATOM     35  C   UNL     1       0.391  -5.720   1.879  0.00  0.00    -0.027 A 
ATOM     36  C   UNL     1      -0.086  -5.691   0.582  0.00  0.00    -0.043 A 
ATOM     37  C   UNL     1      -0.808  -4.470   0.071  0.00  0.00    +0.044 C 
ENDBRANCH  29  35
ENDBRANCH  25  29
ENDBRANCH   1  26
TORSDOF 5
