REMARK  Name = ZINC09454917
REMARK  7 active torsions:
REMARK  status: ('A' for Active; 'I' for Inactive)
REMARK    1  A    between atoms: C_1  and  C_2
REMARK    2  A    between atoms: C_2  and  C_26
REMARK    3  A    between atoms: N_3  and  N_4
REMARK    4  A    between atoms: C_5  and  C_7
REMARK    5  A    between atoms: C_8  and  C_18
REMARK    6  A    between atoms: C_18  and  S_19
REMARK    7  A    between atoms: S_19  and  C_20
REMARK                            x       y       z     vdW  Elec       q    Type
REMARK                         _______ _______ _______ _____ _____    ______ ____
ROOT
ATOM      1  C   UNL     1      -4.951  -3.098   0.008  0.00  0.00    +0.173 A 
ATOM      2  C   UNL     1      -5.075  -4.458   0.002  0.00  0.00    +0.089 A 
ATOM      3  N   UNL     1      -6.399  -4.730   0.006  0.00  0.00    -0.191 N 
ATOM      4  N   UNL     1      -7.064  -3.496   0.016  0.00  0.00    -0.058 NA
ATOM      5  N   UNL     1      -6.182  -2.558   0.023  0.00  0.00    -0.124 NA
ATOM      6  C   UNL     1      -6.991  -5.998   0.002  0.00  0.00    +0.240 A 
ATOM      7  C   UNL     1      -8.431  -6.272   0.007  0.00  0.00    +0.206 A 
ATOM      8  N   UNL     1      -8.602  -7.565   0.000  0.00  0.00    -0.032 NA
ATOM      9  O   UNL     1      -7.322  -8.172  -0.009  0.00  0.00    -0.239 OA
ATOM     10  N   UNL     1      -6.357  -7.136  -0.013  0.00  0.00    -0.027 NA
ATOM     11  N   UNL     1      -9.441  -5.317   0.018  0.00  0.00    -0.337 N 
ATOM     12  H   UNL     1      -9.217  -4.373   0.024  0.00  0.00    +0.144 HD
ATOM     13  H   UNL     1     -10.371  -5.594   0.021  0.00  0.00    +0.144 HD
ENDROOT
BRANCH   1  15
ATOM     14  N   UNL     1      -3.694  -1.000   0.014  0.00  0.00    -0.201 N 
ATOM     15  C   UNL     1      -3.681  -2.348   0.006  0.00  0.00    +0.285 C 
ATOM     16  O   UNL     1      -2.622  -2.946  -0.002  0.00  0.00    -0.267 OA
ATOM     17  H   UNL     1      -4.539  -0.524   0.021  0.00  0.00    +0.178 HD
BRANCH  14  20
ATOM     18  C   UNL     1      -3.813   1.750   0.030  0.00  0.00    +0.068 C 
ATOM     19  C   UNL     1      -2.500   1.010   0.019  0.00  0.00    +0.063 C 
ATOM     20  N   UNL     1      -2.488  -0.288   0.012  0.00  0.00    -0.184 NA
BRANCH  19  21
ATOM     21  C   UNL     1      -1.230   1.759   0.017  0.00  0.00    -0.001 A 
ATOM     22  C   UNL     1      -1.241   3.156   0.031  0.00  0.00    +0.011 A 
ATOM     23  C   UNL     1      -0.050   3.852   0.024  0.00  0.00    +0.022 A 
ATOM     24  C   UNL     1       1.155   3.170   0.008  0.00  0.00    +0.059 A 
ATOM     25  C   UNL     1       1.172   1.784   0.000  0.00  0.00    +0.060 A 
ATOM     26  C   UNL     1      -0.013   1.076   0.008  0.00  0.00    +0.031 A 
ATOM     27 CL   UNL     1       2.688   0.937  -0.018  0.00  0.00    -0.082 Cl
ATOM     28 CL   UNL     1       2.649   4.053  -0.001  0.00  0.00    -0.082 Cl
ENDBRANCH  19  21
ENDBRANCH  14  20
ENDBRANCH   1  15
BRANCH   2  29
ATOM     29  C   UNL     1      -3.952  -5.463  -0.009  0.00  0.00    +0.132 C 
BRANCH  29  30
ATOM     30  S   UNL     1      -3.508  -5.856  -1.724  0.00  0.00    -0.119 S 
BRANCH  30  31
ATOM     31  C   UNL     1      -2.200  -7.027  -1.568  0.00  0.00    +0.008 A 
ATOM     32  C   UNL     1      -1.760  -7.416  -0.309  0.00  0.00    +0.015 A 
ATOM     33  C   UNL     1      -0.739  -8.338  -0.191  0.00  0.00    +0.001 A 
ATOM     34  C   UNL     1      -0.147  -8.865  -1.324  0.00  0.00    +0.000 A 
ATOM     35  C   UNL     1      -0.579  -8.476  -2.579  0.00  0.00    +0.001 A 
ATOM     36  C   UNL     1      -1.603  -7.559  -2.705  0.00  0.00    +0.015 A 
ENDBRANCH  30  31
ENDBRANCH  29  30
ENDBRANCH   2  29
TORSDOF 6
