REMARK  Name = ZINC39677911
REMARK  9 active torsions:
REMARK  status: ('A' for Active; 'I' for Inactive)
REMARK    1  A    between atoms: C_1  and  S_2
REMARK    2  A    between atoms: S_2  and  C_3
REMARK    3  A    between atoms: C_3  and  C_4
REMARK    4  A    between atoms: C_4  and  C_5
REMARK    5  A    between atoms: C_9  and  C_18
REMARK    6  A    between atoms: N_20  and  C_21
REMARK    7  A    between atoms: C_21  and  C_22
REMARK    8  A    between atoms: N_25  and  C_29
REMARK    9  A    between atoms: C_29  and  C_30
REMARK                            x       y       z     vdW  Elec       q    Type
REMARK                         _______ _______ _______ _____ _____    ______ ____
ROOT
ATOM      1  C   UNL     1      -3.045  -2.434  -0.095  0.00  0.00    +0.216 C 
ATOM      2  O   UNL     1      -3.826  -1.506  -0.117  0.00  0.00    -0.276 OA
ATOM      3  N   UNL     1      -3.504  -3.700  -0.057  0.00  0.00    -0.300 N 
ATOM      4  C   UNL     1      -2.712  -4.952  -0.019  0.00  0.00    +0.121 C 
ATOM      5  C   UNL     1      -3.482  -5.872   0.956  0.00  0.00    +0.100 C 
ATOM      6  C   UNL     1      -4.927  -5.345   0.933  0.00  0.00    -0.004 C 
ATOM      7  C   UNL     1      -4.915  -4.156  -0.039  0.00  0.00    +0.115 C 
ATOM      8  C   UNL     1      -5.876  -6.429   0.431  0.00  0.00    -0.010 C 
ATOM      9  C   UNL     1      -7.313  -5.901   0.472  0.00  0.00    -0.082 C 
ATOM     10  N   UNL     1      -7.657  -5.520   1.847  0.00  0.00    +0.379 N 
ATOM     11  C   UNL     1      -6.799  -4.413   2.289  0.00  0.00    -0.082 C 
ATOM     12  C   UNL     1      -5.341  -4.878   2.325  0.00  0.00    -0.010 C 
ATOM     13  H   UNL     1      -8.623  -5.230   1.883  0.00  0.00    -0.086 HD
ATOM     14  H   UNL     1      -7.523  -6.312   2.458  0.00  0.00    -0.086 HD
ENDROOT
BRANCH   5  15
ATOM     15  C   UNL     1      -2.904  -5.766   2.343  0.00  0.00    +0.218 C 
ATOM     16  O   UNL     1      -2.392  -4.729   2.710  0.00  0.00    -0.275 OA
ATOM     17  N   UNL     1      -2.957  -6.823   3.178  0.00  0.00    -0.313 N 
ATOM     18  H   UNL     1      -3.367  -7.652   2.885  0.00  0.00    +0.149 HD
BRANCH  17  19
ATOM     19  C   UNL     1      -2.396  -6.720   4.527  0.00  0.00    +0.137 C 
BRANCH  19  20
ATOM     20  C   UNL     1      -2.585  -8.050   5.261  0.00  0.00    +0.149 C 
ATOM     21  C   UNL     1      -2.000  -7.942   6.671  0.00  0.00    +0.118 C 
ATOM     22  N   UNL     1      -2.253  -9.195   7.398  0.00  0.00    -0.293 NA
ATOM     23  C   UNL     1      -3.695  -9.474   7.469  0.00  0.00    +0.113 C 
ATOM     24  C   UNL     1      -4.262  -9.566   6.050  0.00  0.00    +0.175 C 
ATOM     25  O   UNL     1      -3.980  -8.352   5.349  0.00  0.00    -0.372 OA
BRANCH  22  26
ATOM     26  C   UNL     1      -1.657  -9.155   8.740  0.00  0.00    +0.119 C 
BRANCH  26  27
ATOM     27  C   UNL     1      -1.720 -10.528   9.358  0.00  0.00    -0.033 A 
ATOM     28  C   UNL     1      -2.822 -10.900  10.105  0.00  0.00    +0.005 A 
ATOM     29  C   UNL     1      -2.880 -12.160  10.672  0.00  0.00    +0.000 A 
ATOM     30  C   UNL     1      -1.835 -13.047  10.492  0.00  0.00    +0.000 A 
ATOM     31  C   UNL     1      -0.733 -12.675   9.745  0.00  0.00    +0.000 A 
ATOM     32  C   UNL     1      -0.677 -11.417   9.174  0.00  0.00    +0.005 A 
ENDBRANCH  26  27
ENDBRANCH  22  26
ENDBRANCH  19  20
ENDBRANCH  17  19
ENDBRANCH   5  15
BRANCH   1  33
ATOM     33  C   UNL     1      -1.561  -2.170  -0.108  0.00  0.00    +0.106 C 
BRANCH  33  34
ATOM     34  C   UNL     1      -1.312  -0.661  -0.152  0.00  0.00    +0.078 C 
BRANCH  34  36
ATOM     35  C   UNL     1       0.597   1.466  -0.220  0.00  0.00    +0.084 C 
ATOM     36  S   UNL     1       0.474  -0.343  -0.168  0.00  0.00    -0.164 S 
ENDBRANCH  34  36
ENDBRANCH  33  34
ENDBRANCH   1  33
TORSDOF 8
