REMARK  Name = ZINC42929868
REMARK  8 active torsions:
REMARK  status: ('A' for Active; 'I' for Inactive)
REMARK    1  A    between atoms: C_1  and  C_2
REMARK    2  A    between atoms: C_2  and  C_4
REMARK    3  A    between atoms: C_2  and  N_12
REMARK    4  A    between atoms: C_4  and  C_5
REMARK    5  A    between atoms: C_5  and  C_6
REMARK    6  A    between atoms: N_15  and  N_16
REMARK    7  A    between atoms: C_17  and  C_19
REMARK    8  A    between atoms: N_28  and  C_30
REMARK                            x       y       z     vdW  Elec       q    Type
REMARK                         _______ _______ _______ _____ _____    ______ ____
ROOT
ATOM      1  N   UNL     1      -1.372  -0.511   0.012  0.00  0.00    -0.296 N 
ATOM      2  C   UNL     1      -2.051  -0.643  -1.145  0.00  0.00    +0.316 C 
ATOM      3  O   UNL     1      -1.522  -0.341  -2.197  0.00  0.00    -0.251 OA
ATOM      4  N   UNL     1      -3.315  -1.109  -1.135  0.00  0.00    -0.218 N 
ATOM      5  H   UNL     1      -1.794  -0.752   0.852  0.00  0.00    +0.151 HD
ATOM      6  H   UNL     1      -3.804  -1.204  -1.968  0.00  0.00    +0.174 HD
ENDROOT
BRANCH   4   7
ATOM      7  N   UNL     1      -3.924  -1.457   0.078  0.00  0.00    -0.228 N 
ATOM      8  C   UNL     1      -5.189  -1.924   0.087  0.00  0.00    +0.281 C 
ATOM      9  O   UNL     1      -5.801  -2.043  -0.957  0.00  0.00    -0.267 OA
ATOM     10  H   UNL     1      -3.436  -1.363   0.910  0.00  0.00    +0.173 HD
BRANCH   8  11
ATOM     11  C   UNL     1      -5.830  -2.291   1.365  0.00  0.00    +0.155 A 
ATOM     12  C   UNL     1      -7.209  -2.807   1.385  0.00  0.00    +0.020 A 
ATOM     13  C   UNL     1      -7.967  -2.974   0.232  0.00  0.00    +0.011 A 
ATOM     14  C   UNL     1      -9.252  -3.463   0.332  0.00  0.00    +0.001 A 
ATOM     15  C   UNL     1      -9.795  -3.789   1.568  0.00  0.00    +0.001 A 
ATOM     16  C   UNL     1      -9.060  -3.630   2.724  0.00  0.00    +0.014 A 
ATOM     17  C   UNL     1      -7.761  -3.138   2.644  0.00  0.00    +0.050 A 
ATOM     18  C   UNL     1      -6.909  -2.938   3.824  0.00  0.00    +0.275 A 
ATOM     19  O   UNL     1      -7.319  -3.203   4.940  0.00  0.00    -0.266 OA
ATOM     20  N   UNL     1      -5.663  -2.455   3.643  0.00  0.00    -0.231 N 
ATOM     21  N   UNL     1      -5.178  -2.166   2.495  0.00  0.00    -0.163 NA
ATOM     22  C   UNL     1      -4.817  -2.258   4.823  0.00  0.00    +0.176 C 
ENDBRANCH   8  11
ENDBRANCH   4   7
BRANCH   1  24
ATOM     23  C   UNL     1      -0.019   1.526   0.010  0.00  0.00    +0.028 C 
ATOM     24  C   UNL     1       0.002  -0.004   0.002  0.00  0.00    +0.072 C 
BRANCH  24  25
ATOM     25  C   UNL     1       0.742  -0.511   1.242  0.00  0.00    +0.026 C 
BRANCH  25  26
ATOM     26  C   UNL     1       0.872  -2.034   1.171  0.00  0.00    +0.037 C 
BRANCH  26  27
ATOM     27  C   UNL     1       1.601  -2.533   2.392  0.00  0.00    -0.047 A 
ATOM     28  C   UNL     1       2.979  -2.641   2.378  0.00  0.00    +0.003 A 
ATOM     29  C   UNL     1       3.647  -3.099   3.498  0.00  0.00    +0.000 A 
ATOM     30  C   UNL     1       2.938  -3.448   4.632  0.00  0.00    +0.000 A 
ATOM     31  C   UNL     1       1.560  -3.340   4.646  0.00  0.00    +0.000 A 
ATOM     32  C   UNL     1       0.892  -2.878   3.527  0.00  0.00    +0.003 A 
ENDBRANCH  26  27
ENDBRANCH  25  26
ENDBRANCH  24  25
ENDBRANCH   1  24
TORSDOF 6
