REMARK  Name = ZINC34969900
REMARK  10 active torsions:
REMARK  status: ('A' for Active; 'I' for Inactive)
REMARK    1  A    between atoms: C_1  and  C_2
REMARK    2  A    between atoms: C_2  and  C_3
REMARK    3  A    between atoms: C_3  and  C_5
REMARK    4  A    between atoms: C_3  and  C_6
REMARK    5  A    between atoms: C_6  and  C_8
REMARK    6  A    between atoms: C_6  and  N_25
REMARK    7  A    between atoms: N_13  and  C_16
REMARK    8  A    between atoms: C_16  and  C_17
REMARK    9  A    between atoms: C_18  and  C_19
REMARK   10  A    between atoms: N_28  and  C_29
REMARK                            x       y       z     vdW  Elec       q    Type
REMARK                         _______ _______ _______ _____ _____    ______ ____
ROOT
ATOM      1  C   UNL     1      -1.390  -1.833  -0.096  0.00  0.00    +0.163 C 
ENDROOT
BRANCH   1   2
ATOM      2  C   UNL     1      -0.812  -2.210   1.244  0.00  0.00    +0.236 C 
ATOM      3  O   UNL     1       0.188  -2.893   1.302  0.00  0.00    -0.274 OA
ATOM      4  N   UNL     1      -1.407  -1.788   2.377  0.00  0.00    -0.298 N 
ATOM      5  C   UNL     1      -2.538  -0.848   2.332  0.00  0.00    +0.123 C 
ATOM      6  C   UNL     1      -2.240   0.318   3.280  0.00  0.00    +0.103 C 
ATOM      7  N   UNL     1      -1.923  -0.208   4.614  0.00  0.00    -0.296 NA
ATOM      8  C   UNL     1      -0.708  -1.032   4.587  0.00  0.00    +0.103 C 
ATOM      9  C   UNL     1      -0.946  -2.259   3.692  0.00  0.00    +0.123 C 
BRANCH   7  10
ATOM     10  C   UNL     1      -1.800   0.879   5.594  0.00  0.00    +0.111 C 
BRANCH  10  11
ATOM     11  C   UNL     1      -1.721   0.299   6.982  0.00  0.00    -0.011 C 
ATOM     12  C   UNL     1      -0.703   0.608   7.773  0.00  0.00    +0.005 C 
BRANCH  12  13
ATOM     13  C   UNL     1      -0.625   0.038   9.135  0.00  0.00    -0.025 A 
ATOM     14  C   UNL     1      -1.618  -0.830   9.589  0.00  0.00    +0.008 A 
ATOM     15  C   UNL     1      -1.540  -1.358  10.861  0.00  0.00    +0.001 A 
ATOM     16  C   UNL     1      -0.479  -1.028  11.686  0.00  0.00    +0.000 A 
ATOM     17  C   UNL     1       0.508  -0.168  11.242  0.00  0.00    +0.001 A 
ATOM     18  C   UNL     1       0.445   0.362   9.970  0.00  0.00    +0.008 A 
ENDBRANCH  12  13
ENDBRANCH  10  11
ENDBRANCH   7  10
ENDBRANCH   1   2
BRANCH   1  19
ATOM     19  N   UNL     1      -1.250  -2.958  -1.022  0.00  0.00    -0.288 N 
ATOM     20  C   UNL     1      -2.092  -3.079  -2.068  0.00  0.00    +0.305 C 
ATOM     21  O   UNL     1      -2.968  -2.254  -2.242  0.00  0.00    -0.252 OA
ATOM     22  N   UNL     1      -1.964  -4.115  -2.921  0.00  0.00    -0.268 N 
ATOM     23  H   UNL     1      -0.552  -3.617  -0.884  0.00  0.00    +0.151 HD
ATOM     24  H   UNL     1      -1.284  -4.790  -2.765  0.00  0.00    +0.156 HD
BRANCH  22  25
ATOM     25  C   UNL     1      -2.811  -4.218  -4.030  0.00  0.00    +0.049 A 
ATOM     26  C   UNL     1      -4.101  -3.709  -3.969  0.00  0.00    +0.024 A 
ATOM     27  C   UNL     1      -4.935  -3.812  -5.065  0.00  0.00    +0.002 A 
ATOM     28  C   UNL     1      -4.487  -4.421  -6.223  0.00  0.00    +0.001 A 
ATOM     29  C   UNL     1      -3.203  -4.930  -6.287  0.00  0.00    +0.017 A 
ATOM     30  C   UNL     1      -2.361  -4.825  -5.196  0.00  0.00    +0.039 A 
ATOM     31 BR   UNL     1      -0.603  -5.514  -5.286  0.00  0.00    -0.048 Br
ENDBRANCH  22  25
ENDBRANCH   1  19
BRANCH   1  32
ATOM     32  C   UNL     1      -0.641  -0.619  -0.651  0.00  0.00    +0.015 C 
ATOM     33  C   UNL     1      -0.907   0.596   0.240  0.00  0.00    +0.010 C 
BRANCH  32  35
ATOM     34  C   UNL     1       1.596   0.248  -1.346  0.00  0.00    +0.004 C 
ATOM     35  C   UNL     1       0.860  -0.914  -0.677  0.00  0.00    +0.002 C 
ENDBRANCH  32  35
ENDBRANCH   1  32
TORSDOF 8
