REMARK  Name = ZINC02624444
REMARK  8 active torsions:
REMARK  status: ('A' for Active; 'I' for Inactive)
REMARK    1  A    between atoms: C_4  and  O_7
REMARK    2  A    between atoms: O_7  and  C_8
REMARK    3  A    between atoms: C_8  and  C_9
REMARK    4  A    between atoms: C_17  and  C_18
REMARK    5  A    between atoms: C_24  and  S_26
REMARK    6  A    between atoms: S_26  and  C_27
REMARK    7  A    between atoms: C_27  and  C_28
REMARK    8  A    between atoms: C_31  and  C_34
REMARK                            x       y       z     vdW  Elec       q    Type
REMARK                         _______ _______ _______ _____ _____    ______ ____
ROOT
ATOM      1  C   UNL     1      -1.229   2.183   0.020  0.00  0.00    +0.285 C 
ATOM      2  O   UNL     1      -2.326   1.657   0.022  0.00  0.00    -0.266 OA
ATOM      3  N   UNL     1      -1.127   3.527   0.027  0.00  0.00    -0.257 N 
ATOM      4  C   UNL     1      -2.275   4.312   0.037  0.00  0.00    +0.189 A 
ATOM      5  N   UNL     1      -3.550   3.955   0.042  0.00  0.00    -0.125 NA
ATOM      6  N   UNL     1      -4.482   4.805   0.051  0.00  0.00    -0.133 NA
ATOM      7  C   UNL     1      -4.242   6.108   0.056  0.00  0.00    +0.160 A 
ATOM      8  S   UNL     1      -2.451   6.094   0.055  0.00  0.00    -0.024 S 
ATOM      9  H   UNL     1      -0.252   3.947   0.025  0.00  0.00    +0.157 HD
ENDROOT
BRANCH   1  18
ATOM     10  C   UNL     1       0.002  -0.004   0.002  0.00  0.00    +0.048 A 
ATOM     11  C   UNL     1       1.413  -0.390  -0.013  0.00  0.00    +0.027 A 
ATOM     12  C   UNL     1       2.087  -1.613  -0.027  0.00  0.00    +0.012 A 
ATOM     13  C   UNL     1       3.454  -1.633  -0.040  0.00  0.00    +0.001 A 
ATOM     14  C   UNL     1       4.174  -0.446  -0.041  0.00  0.00    +0.004 A 
ATOM     15  C   UNL     1       3.527   0.771  -0.028  0.00  0.00    +0.047 A 
ATOM     16  C   UNL     1       2.138   0.816  -0.014  0.00  0.00    +0.136 A 
ATOM     17  O   UNL     1       1.248   1.827   0.000  0.00  0.00    -0.450 OA
ATOM     18  C   UNL     1      -0.016   1.354   0.009  0.00  0.00    +0.197 A 
BRANCH  10  19
ATOM     19  C   UNL     1      -1.190  -0.926   0.008  0.00  0.00    +0.269 C 
BRANCH  19  20
ATOM     20  O   UNL     1      -1.579  -1.210  -1.337  0.00  0.00    -0.487 OA
BRANCH  20  24
ATOM     21  C   UNL     1      -4.818  -3.711  -1.862  0.00  0.00    +0.000 A 
ATOM     22  C   UNL     1      -4.163  -3.189  -2.962  0.00  0.00    +0.004 A 
ATOM     23  C   UNL     1      -3.079  -2.352  -2.789  0.00  0.00    +0.045 A 
ATOM     24  C   UNL     1      -2.646  -2.034  -1.510  0.00  0.00    +0.121 A 
ATOM     25  C   UNL     1      -3.301  -2.563  -0.407  0.00  0.00    +0.045 A 
ATOM     26  C   UNL     1      -4.390  -3.395  -0.586  0.00  0.00    +0.004 A 
ENDBRANCH  20  24
ENDBRANCH  19  20
ENDBRANCH  10  19
ENDBRANCH   1  18
BRANCH   7  27
ATOM     27  S   UNL     1      -5.364   7.467   0.069  0.00  0.00    -0.092 S 
BRANCH  27  28
ATOM     28  C   UNL     1      -7.000   6.684   0.072  0.00  0.00    +0.111 C 
BRANCH  28  29
ATOM     29  C   UNL     1      -8.066   7.749   0.083  0.00  0.00    -0.037 A 
ATOM     30  C   UNL     1      -8.552   8.225   1.288  0.00  0.00    +0.006 A 
ATOM     31  C   UNL     1      -9.524   9.203   1.306  0.00  0.00    +0.019 A 
ATOM     32  C   UNL     1     -10.026   9.705   0.103  0.00  0.00    +0.052 A 
ATOM     33  C   UNL     1      -9.536   9.216  -1.109  0.00  0.00    +0.019 A 
ATOM     34  C   UNL     1      -8.559   8.242  -1.112  0.00  0.00    +0.006 A 
BRANCH  32  35
ATOM     35  C   UNL     1     -11.040  10.717   0.114  0.00  0.00    +0.099 C 
ATOM     36  N   UNL     1     -11.843  11.520   0.122  0.00  0.00    -0.191 NA
ENDBRANCH  32  35
ENDBRANCH  28  29
ENDBRANCH  27  28
ENDBRANCH   7  27
TORSDOF 8
