REMARK  Name = ZINC35671560
REMARK  10 active torsions:
REMARK  status: ('A' for Active; 'I' for Inactive)
REMARK    1  A    between atoms: C_5  and  C_7
REMARK    2  A    between atoms: C_7  and  O_8
REMARK    3  A    between atoms: O_8  and  C_9
REMARK    4  A    between atoms: C_12  and  C_15
REMARK    5  A    between atoms: C_17  and  C_34
REMARK    6  A    between atoms: C_18  and  N_20
REMARK    7  A    between atoms: N_20  and  C_21
REMARK    8  A    between atoms: C_21  and  C_22
REMARK    9  A    between atoms: C_22  and  C_24
REMARK   10  A    between atoms: C_22  and  N_29
REMARK                            x       y       z     vdW  Elec       q    Type
REMARK                         _______ _______ _______ _____ _____    ______ ____
ROOT
ATOM      1  C   UNL     1      -0.758  -8.281  -0.568  0.00  0.00    +0.231 A 
ATOM      2  N   UNL     1       0.208  -9.139  -0.361  0.00  0.00    -0.196 NA
ATOM      3  C   UNL     1      -0.340 -10.367  -0.157  0.00  0.00    +0.201 A 
ATOM      4  C   UNL     1      -1.715 -10.216  -0.252  0.00  0.00    +0.225 A 
ATOM      5  O   UNL     1      -1.945  -8.914  -0.500  0.00  0.00    -0.421 OA
ENDROOT
BRANCH   1   9
ATOM      6  C   UNL     1      -0.231  -4.133  -1.321  0.00  0.00    +0.121 A 
ATOM      7  C   UNL     1       0.877  -4.947  -1.121  0.00  0.00    +0.046 A 
ATOM      8  C   UNL     1       0.710  -6.293  -0.877  0.00  0.00    +0.017 A 
ATOM      9  C   UNL     1      -0.574  -6.839  -0.830  0.00  0.00    +0.037 A 
ATOM     10  C   UNL     1      -1.685  -6.017  -1.031  0.00  0.00    +0.017 A 
ATOM     11  C   UNL     1      -1.510  -4.671  -1.270  0.00  0.00    +0.046 A 
BRANCH   6  12
ATOM     12  O   UNL     1      -0.062  -2.807  -1.561  0.00  0.00    -0.487 OA
BRANCH  12  13
ATOM     13  C   UNL     1       1.281  -2.320  -1.601  0.00  0.00    +0.266 C 
BRANCH  13  18
ATOM     14  C   UNL     1       0.059   1.183  -2.300  0.00  0.00    +0.000 A 
ATOM     15  C   UNL     1       1.251   1.880  -2.384  0.00  0.00    +0.001 A 
ATOM     16  C   UNL     1       2.452   1.218  -2.215  0.00  0.00    +0.020 A 
ATOM     17  C   UNL     1       2.462  -0.142  -1.961  0.00  0.00    +0.047 A 
ATOM     18  C   UNL     1       1.270  -0.839  -1.877  0.00  0.00    +0.008 A 
ATOM     19  C   UNL     1       0.069  -0.176  -2.047  0.00  0.00    +0.008 A 
ATOM     20 CL   UNL     1       3.971  -0.975  -1.749  0.00  0.00    -0.083 Cl
ENDBRANCH  13  18
ENDBRANCH  12  13
ENDBRANCH   6  12
ENDBRANCH   1   9
BRANCH   4  21
ATOM     21  N   UNL     1      -2.662 -11.207  -0.111  0.00  0.00    -0.314 N 
ATOM     22  H   UNL     1      -2.387 -12.118   0.073  0.00  0.00    +0.149 HD
BRANCH  21  23
ATOM     23  C   UNL     1      -4.085 -10.883  -0.240  0.00  0.00    +0.094 C 
BRANCH  23  24
ATOM     24  C   UNL     1      -4.909 -12.170  -0.177  0.00  0.00    -0.013 C 
BRANCH  24  25
ATOM     25  N   UNL     1      -6.340 -11.836  -0.174  0.00  0.00    +0.386 N 
ATOM     26  C   UNL     1      -7.155 -13.075  -0.092  0.00  0.00    -0.078 C 
ATOM     27  C   UNL     1      -8.512 -12.570   0.459  0.00  0.00    -0.020 C 
ATOM     28  C   UNL     1      -8.091 -11.478   1.468  0.00  0.00    -0.020 C 
ATOM     29  C   UNL     1      -6.678 -11.050   1.032  0.00  0.00    -0.078 C 
ATOM     30  H   UNL     1      -6.578 -11.317  -1.006  0.00  0.00    -0.081 HD
ENDBRANCH  24  25
BRANCH  24  31
ATOM     31  C   UNL     1      -4.595 -13.027  -1.376  0.00  0.00    -0.022 A 
ATOM     32  C   UNL     1      -3.777 -14.104  -1.464  0.00  0.00    +0.009 A 
ATOM     33  C   UNL     1      -3.641 -14.744  -2.682  0.00  0.00    +0.008 A 
ATOM     34  C   UNL     1      -4.329 -14.275  -3.752  0.00  0.00    +0.045 A 
ATOM     35  S   UNL     1      -5.210 -12.892  -3.046  0.00  0.00    -0.103 S 
ENDBRANCH  24  31
ENDBRANCH  23  24
ENDBRANCH  21  23
ENDBRANCH   4  21
BRANCH   3  36
ATOM     36  C   UNL     1       0.369 -11.584   0.104  0.00  0.00    +0.124 C 
ATOM     37  N   UNL     1       0.931 -12.549   0.311  0.00  0.00    -0.189 NA
ENDBRANCH   3  36
TORSDOF 10
