REMARK  Name = ZINC60389386
REMARK  3 active torsions:
REMARK  status: ('A' for Active; 'I' for Inactive)
REMARK    1  A    between atoms: C_11  and  C_13
REMARK    2  A    between atoms: N_23  and  S_24
REMARK    3  A    between atoms: S_24  and  C_27
REMARK                            x       y       z     vdW  Elec       q    Type
REMARK                         _______ _______ _______ _____ _____    ______ ____
ROOT
ATOM      1  C   UNL     1       4.826   1.531  -0.891  0.00  0.00    +0.171 C 
ATOM      2  C   UNL     1       4.208   2.163   0.355  0.00  0.00    +0.065 C 
ATOM      3  C   UNL     1       4.572   3.621   0.454  0.00  0.00    -0.041 A 
ATOM      4  C   UNL     1       3.775   4.431   1.254  0.00  0.00    +0.004 A 
ATOM      5  C   UNL     1       4.059   5.773   1.396  0.00  0.00    +0.000 A 
ATOM      6  C   UNL     1       5.145   6.320   0.739  0.00  0.00    +0.000 A 
ATOM      7  C   UNL     1       5.935   5.519  -0.059  0.00  0.00    +0.005 A 
ATOM      8  C   UNL     1       5.648   4.169  -0.207  0.00  0.00    -0.028 A 
ATOM      9  C   UNL     1       6.536   3.356  -1.115  0.00  0.00    +0.145 C 
ATOM     10  N   UNL     1       6.243   1.929  -0.946  0.00  0.00    -0.160 NA
ENDROOT
BRANCH   1  21
ATOM     11  C   UNL     1       4.648  -4.860  -1.736  0.00  0.00    +0.000 A 
ATOM     12  C   UNL     1       5.079  -4.106  -0.660  0.00  0.00    +0.002 A 
ATOM     13  C   UNL     1       5.052  -2.727  -0.731  0.00  0.00    +0.024 A 
ATOM     14  C   UNL     1       4.593  -2.098  -1.883  0.00  0.00    +0.039 A 
ATOM     15  C   UNL     1       4.165  -2.854  -2.962  0.00  0.00    -0.026 A 
ATOM     16  C   UNL     1       4.193  -4.237  -2.882  0.00  0.00    +0.005 A 
ATOM     17  C   UNL     1       3.672  -2.208  -4.229  0.00  0.00    +0.038 C 
ATOM     18  C   UNL     1       3.241  -0.766  -3.963  0.00  0.00    +0.024 C 
ATOM     19  C   UNL     1       4.375  -0.037  -3.230  0.00  0.00    +0.114 C 
ATOM     20  N   UNL     1       4.569  -0.698  -1.932  0.00  0.00    -0.270 N 
ATOM     21  C   UNL     1       4.721   0.030  -0.808  0.00  0.00    +0.239 C 
ATOM     22  O   UNL     1       4.772  -0.522   0.270  0.00  0.00    -0.273 OA
ENDBRANCH   1  21
BRANCH  10  23
ATOM     23  S   UNL     1       7.457   0.809  -0.820  0.00  0.00    +0.068 S 
ATOM     24  O   UNL     1       8.637   1.526  -0.484  0.00  0.00    -0.152 OA
ATOM     25  O   UNL     1       6.952  -0.248  -0.017  0.00  0.00    -0.152 OA
BRANCH  23  26
ATOM     26  C   UNL     1       7.716   0.139  -2.429  0.00  0.00    +0.143 A 
ATOM     27  C   UNL     1       8.466   0.629  -3.447  0.00  0.00    +0.036 A 
ATOM     28  C   UNL     1       8.524  -0.075  -4.635  0.00  0.00    +0.010 A 
ATOM     29  C   UNL     1       7.830  -1.234  -4.748  0.00  0.00    +0.047 A 
ATOM     30  S   UNL     1       7.066  -1.364  -3.139  0.00  0.00    -0.077 S 
ENDBRANCH  23  26
ENDBRANCH  10  23
TORSDOF 3
