REMARK  Name = ZINC13660798
REMARK  5 active torsions:
REMARK  status: ('A' for Active; 'I' for Inactive)
REMARK    1  A    between atoms: C_1  and  O_2
REMARK    2  A    between atoms: O_2  and  C_3
REMARK    3  A    between atoms: C_6  and  N_10
REMARK    4  A    between atoms: C_14  and  C_15
REMARK    5  A    between atoms: C_18  and  C_20
REMARK                            x       y       z     vdW  Elec       q    Type
REMARK                         _______ _______ _______ _____ _____    ______ ____
ROOT
ATOM      1  N   UNL     1       3.756   2.366   1.206  0.00  0.00    -0.190 N 
ATOM      2  C   UNL     1       3.688   3.659   0.830  0.00  0.00    +0.264 C 
ATOM      3  O   UNL     1       2.675   4.310   1.008  0.00  0.00    -0.269 OA
ATOM      4  C   UNL     1       4.872   4.264   0.197  0.00  0.00    +0.103 C 
ATOM      5  C   UNL     1       4.876   5.593  -0.217  0.00  0.00    +0.064 C 
ATOM      6  C   UNL     1       6.053   3.402   0.022  0.00  0.00    +0.257 C 
ATOM      7  O   UNL     1       7.069   3.831  -0.492  0.00  0.00    -0.270 OA
ATOM      8  N   UNL     1       5.979   2.123   0.447  0.00  0.00    -0.235 N 
ATOM      9  C   UNL     1       4.867   1.640   1.020  0.00  0.00    +0.320 C 
ATOM     10  O   UNL     1       4.866   0.481   1.386  0.00  0.00    -0.251 OA
ATOM     11  H   UNL     1       6.747   1.542   0.339  0.00  0.00    +0.159 HD
ENDROOT
BRANCH   1  15
ATOM     12  C   UNL     1       0.436   0.588   3.002  0.00  0.00    +0.138 A 
ATOM     13  C   UNL     1       0.864   0.158   1.755  0.00  0.00    +0.049 A 
ATOM     14  C   UNL     1       1.962   0.746   1.160  0.00  0.00    +0.027 A 
ATOM     15  C   UNL     1       2.640   1.768   1.810  0.00  0.00    +0.047 A 
ATOM     16  C   UNL     1       2.213   2.199   3.059  0.00  0.00    +0.047 A 
ATOM     17  C   UNL     1       1.113   1.610   3.653  0.00  0.00    +0.084 A 
ATOM     18 CL   UNL     1       0.574   2.153   5.212  0.00  0.00    -0.080 Cl
BRANCH  12  20
ATOM     19  C   UNL     1      -1.294  -1.037   2.861  0.00  0.00    +0.277 C 
ATOM     20  O   UNL     1      -0.646   0.009   3.587  0.00  0.00    -0.494 OA
ENDBRANCH  12  20
ENDBRANCH   1  15
BRANCH   5  21
ATOM     21  C   UNL     1       3.686   6.334  -0.205  0.00  0.00    +0.129 A 
ATOM     22  C   UNL     1       3.555   7.660   0.190  0.00  0.00    +0.050 A 
ATOM     23  C   UNL     1       2.211   7.992   0.043  0.00  0.00    +0.050 A 
ATOM     24  C   UNL     1       1.565   6.868  -0.433  0.00  0.00    +0.136 A 
ATOM     25  O   UNL     1       2.469   5.885  -0.581  0.00  0.00    -0.455 OA
BRANCH  24  26
ATOM     26  C   UNL     1       0.125   6.766  -0.735  0.00  0.00    +0.017 A 
ATOM     27  C   UNL     1      -0.714   7.866  -0.537  0.00  0.00    +0.011 A 
ATOM     28  C   UNL     1      -2.058   7.765  -0.826  0.00  0.00    +0.001 A 
ATOM     29  C   UNL     1      -2.580   6.574  -1.300  0.00  0.00    +0.000 A 
ATOM     30  C   UNL     1      -1.756   5.478  -1.493  0.00  0.00    +0.001 A 
ATOM     31  C   UNL     1      -0.409   5.567  -1.214  0.00  0.00    +0.011 A 
ENDBRANCH  24  26
ENDBRANCH   5  21
TORSDOF 4
