REMARK  Name = ZINC02655116
REMARK  7 active torsions:
REMARK  status: ('A' for Active; 'I' for Inactive)
REMARK    1  A    between atoms: C_1  and  C_2
REMARK    2  A    between atoms: C_5  and  S_8
REMARK    3  A    between atoms: S_8  and  N_11
REMARK    4  A    between atoms: C_17  and  C_19
REMARK    5  A    between atoms: C_19  and  S_20
REMARK    6  A    between atoms: S_20  and  C_21
REMARK    7  A    between atoms: C_21  and  C_22
REMARK                            x       y       z     vdW  Elec       q    Type
REMARK                         _______ _______ _______ _____ _____    ______ ____
ROOT
ATOM      1  N   UNL     1      -9.399   5.847   3.561  0.00  0.00    -0.174 NA
ATOM      2  C   UNL     1      -8.504   5.623   4.705  0.00  0.00    +0.128 C 
ATOM      3  C   UNL     1      -7.082   6.035   4.303  0.00  0.00    +0.125 C 
ATOM      4  N   UNL     1      -6.757   5.405   3.015  0.00  0.00    -0.298 N 
ATOM      5  C   UNL     1      -7.649   5.634   1.870  0.00  0.00    +0.125 C 
ATOM      6  C   UNL     1      -9.074   5.217   2.273  0.00  0.00    +0.128 C 
ATOM      7  C   UNL     1      -5.658   4.636   2.886  0.00  0.00    +0.225 C 
ATOM      8  O   UNL     1      -4.926   4.459   3.837  0.00  0.00    -0.275 OA
ENDROOT
BRANCH   1   9
ATOM      9  S   UNL     1     -10.749   6.793   3.720  0.00  0.00    +0.061 S 
ATOM     10  O   UNL     1     -11.655   6.381   2.705  0.00  0.00    -0.153 OA
ATOM     11  O   UNL     1     -11.093   6.781   5.098  0.00  0.00    -0.153 OA
BRANCH   9  16
ATOM     12  C   UNL     1      -9.130  12.452   2.394  0.00  0.00    +0.044 C 
ATOM     13  C   UNL     1      -9.535  11.039   2.725  0.00  0.00    -0.050 A 
ATOM     14  C   UNL     1      -9.989  10.198   1.726  0.00  0.00    +0.005 A 
ATOM     15  C   UNL     1     -10.360   8.901   2.030  0.00  0.00    +0.029 A 
ATOM     16  C   UNL     1     -10.276   8.445   3.332  0.00  0.00    +0.105 A 
ATOM     17  C   UNL     1      -9.826   9.288   4.332  0.00  0.00    +0.029 A 
ATOM     18  C   UNL     1      -9.451  10.583   4.027  0.00  0.00    +0.005 A 
ENDBRANCH   9  16
ENDBRANCH   1   9
BRANCH   7  19
ATOM     19  C   UNL     1      -5.337   3.997   1.559  0.00  0.00    +0.165 C 
BRANCH  19  20
ATOM     20  S   UNL     1      -3.808   3.033   1.707  0.00  0.00    -0.145 S 
BRANCH  20  21
ATOM     21  C   UNL     1      -3.566   2.338   0.049  0.00  0.00    +0.125 C 
BRANCH  21  22
ATOM     22  C   UNL     1      -2.311   1.503   0.032  0.00  0.00    +0.059 A 
ATOM     23  C   UNL     1      -2.385   0.126   0.025  0.00  0.00    +0.094 A 
ATOM     24  C   UNL     1      -1.213  -0.630   0.010  0.00  0.00    +0.259 A 
ATOM     25  O   UNL     1      -1.272  -1.849   0.005  0.00  0.00    -0.267 OA
ATOM     26  N   UNL     1       0.002  -0.004   0.002  0.00  0.00    -0.262 N 
ATOM     27  C   UNL     1       1.237  -0.607  -0.013  0.00  0.00    +0.104 A 
ATOM     28  C   UNL     1       2.356   0.117  -0.019  0.00  0.00    +0.067 A 
ATOM     29  S   UNL     1       1.713   1.784  -0.005  0.00  0.00    -0.058 S 
ATOM     30  C   UNL     1      -0.017   1.365   0.009  0.00  0.00    +0.180 A 
ATOM     31  N   UNL     1      -1.113   2.081   0.029  0.00  0.00    -0.227 NA
ENDBRANCH  21  22
ENDBRANCH  20  21
ENDBRANCH  19  20
ENDBRANCH   7  19
TORSDOF 6
