REMARK  Name = ZINC22706375
REMARK  2 active torsions:
REMARK  status: ('A' for Active; 'I' for Inactive)
REMARK    1  A    between atoms: C_4  and  C_7
REMARK    2  A    between atoms: C_12  and  C_27
REMARK                            x       y       z     vdW  Elec       q    Type
REMARK                         _______ _______ _______ _____ _____    ______ ____
ROOT
ATOM      1  C   UNL     1       2.372   0.081   0.703  0.00  0.00    +0.032 C 
ATOM      2  C   UNL     1       2.474   1.430  -0.013  0.00  0.00    +0.060 C 
ATOM      3  C   UNL     1       1.131   2.113   0.003  0.00  0.00    +0.020 C 
ATOM      4  C   UNL     1      -0.017   1.400   0.010  0.00  0.00    +0.041 C 
ATOM      5  C   UNL     1      -1.349   2.106   0.033  0.00  0.00    +0.173 C 
ATOM      6  N   UNL     1      -1.218   3.502  -0.361  0.00  0.00    -0.243 NA
ATOM      7  C   UNL     1      -0.083   4.123  -0.363  0.00  0.00    +0.188 C 
ATOM      8  N   UNL     1       1.079   3.482   0.004  0.00  0.00    -0.290 N 
ATOM      9  N   UNL     1      -0.036   5.449  -0.739  0.00  0.00    -0.241 N 
ATOM     10  C   UNL     1      -1.194   6.102  -1.109  0.00  0.00    +0.295 A 
ATOM     11  N   UNL     1      -2.383   5.559  -1.143  0.00  0.00    -0.195 NA
ATOM     12  C   UNL     1      -3.281   6.498  -1.549  0.00  0.00    +0.111 A 
ATOM     13  C   UNL     1      -4.660   6.484  -1.761  0.00  0.00    +0.031 A 
ATOM     14  C   UNL     1      -5.296   7.628  -2.192  0.00  0.00    +0.002 A 
ATOM     15  C   UNL     1      -4.575   8.790  -2.416  0.00  0.00    +0.004 A 
ATOM     16  C   UNL     1      -3.210   8.817  -2.210  0.00  0.00    +0.048 A 
ATOM     17  C   UNL     1      -2.554   7.676  -1.777  0.00  0.00    +0.157 A 
ATOM     18  O   UNL     1      -1.264   7.389  -1.492  0.00  0.00    -0.424 OA
ATOM     19  C   UNL     1       0.002  -0.004   0.002  0.00  0.00    +0.164 C 
ATOM     20  O   UNL     1      -1.048  -0.616  -0.006  0.00  0.00    -0.292 OA
ATOM     21  C   UNL     1       1.302  -0.763   0.004  0.00  0.00    +0.088 C 
ATOM     22  H   UNL     1       1.964   4.065   0.298  0.00  0.00    +0.154 HD
ATOM     23  H   UNL     1       0.924   5.985  -0.744  0.00  0.00    +0.159 HD
ENDROOT
BRANCH   5  24
ATOM     24  C   UNL     1      -2.290   1.412  -0.919  0.00  0.00    -0.013 A 
ATOM     25  C   UNL     1      -2.216   1.671  -2.274  0.00  0.00    +0.044 A 
ATOM     26  C   UNL     1      -3.077   1.031  -3.150  0.00  0.00    +0.126 A 
ATOM     27  C   UNL     1      -4.019   0.140  -2.666  0.00  0.00    +0.076 A 
ATOM     28  C   UNL     1      -4.096  -0.114  -1.308  0.00  0.00    +0.126 A 
ATOM     29  C   UNL     1      -3.231   0.523  -0.434  0.00  0.00    +0.044 A 
ATOM     30  F   UNL     1      -5.016  -0.983  -0.834  0.00  0.00    -0.205 F 
ATOM     31  F   UNL     1      -3.001   1.280  -4.476  0.00  0.00    -0.205 F 
ENDBRANCH   5  24
BRANCH   1  35
ATOM     32  C   UNL     1       6.135  -1.932   0.513  0.00  0.00    +0.000 A 
ATOM     33  C   UNL     1       5.573  -1.632   1.739  0.00  0.00    +0.000 A 
ATOM     34  C   UNL     1       4.355  -0.981   1.801  0.00  0.00    +0.004 A 
ATOM     35  C   UNL     1       3.700  -0.629   0.636  0.00  0.00    -0.044 A 
ATOM     36  C   UNL     1       4.260  -0.933  -0.591  0.00  0.00    +0.004 A 
ATOM     37  C   UNL     1       5.480  -1.580  -0.652  0.00  0.00    +0.000 A 
ENDBRANCH   1  35
TORSDOF 2
