REMARK  Name = ZINC46631982
REMARK  2 active torsions:
REMARK  status: ('A' for Active; 'I' for Inactive)
REMARK    1  A    between atoms: N_8  and  C_13
REMARK    2  A    between atoms: C_13  and  C_14
REMARK                            x       y       z     vdW  Elec       q    Type
REMARK                         _______ _______ _______ _____ _____    ______ ____
ROOT
ATOM      1  C   UNL     1       3.700  -2.065  -0.383  0.00  0.00    +0.209 C 
ENDROOT
BRANCH   1   9
ATOM      2  C   UNL     1      -0.017   1.379   0.010  0.00  0.00    +0.024 A 
ATOM      3  C   UNL     1       1.169   2.092   0.002  0.00  0.00    +0.049 A 
ATOM      4  C   UNL     1       2.378   1.420  -0.013  0.00  0.00    +0.143 A 
ATOM      5  C   UNL     1       2.397   0.026  -0.021  0.00  0.00    +0.080 A 
ATOM      6  C   UNL     1       1.208  -0.683  -0.013  0.00  0.00    +0.047 A 
ATOM      7  C   UNL     1       0.002  -0.004   0.002  0.00  0.00    +0.043 A 
ATOM      8 CL   UNL     1      -1.491  -0.890   0.012  0.00  0.00    -0.083 Cl
ATOM      9  N   UNL     1       3.630  -0.643  -0.037  0.00  0.00    -0.256 N 
ATOM     10  C   UNL     1       4.751   0.045   0.270  0.00  0.00    +0.258 C 
ATOM     11  O   UNL     1       5.832  -0.505   0.233  0.00  0.00    -0.271 OA
ATOM     12  C   UNL     1       4.655   1.498   0.660  0.00  0.00    +0.325 C 
ATOM     13  O   UNL     1       3.553   2.105  -0.019  0.00  0.00    -0.481 OA
ENDBRANCH   1   9
BRANCH   1  14
ATOM     14  C   UNL     1       3.891  -2.212  -1.870  0.00  0.00    +0.234 C 
ATOM     15  O   UNL     1       3.961  -1.226  -2.573  0.00  0.00    -0.274 OA
ATOM     16  N   UNL     1       3.983  -3.439  -2.420  0.00  0.00    -0.297 N 
ATOM     17  C   UNL     1       3.895  -4.648  -1.587  0.00  0.00    +0.108 C 
ATOM     18  C   UNL     1       5.116  -5.532  -1.856  0.00  0.00    +0.019 C 
ATOM     19  C   UNL     1       5.236  -5.804  -3.358  0.00  0.00    +0.007 C 
ATOM     20  C   UNL     1       5.413  -4.477  -4.095  0.00  0.00    +0.010 C 
ATOM     21  C   UNL     1       4.169  -3.605  -3.865  0.00  0.00    +0.079 C 
ATOM     22  C   UNL     1       4.375  -2.250  -4.540  0.00  0.00    +0.023 C 
ATOM     23  C   UNL     1       4.558  -2.464  -6.045  0.00  0.00    +0.002 C 
ATOM     24  C   UNL     1       5.771  -3.360  -6.298  0.00  0.00    +0.000 C 
ATOM     25  C   UNL     1       5.579  -4.710  -5.596  0.00  0.00    +0.005 C 
ENDBRANCH   1  14
TORSDOF 2
