REMARK  Name = ZINC14989146
REMARK  9 active torsions:
REMARK  status: ('A' for Active; 'I' for Inactive)
REMARK    1  A    between atoms: C_4  and  C_7
REMARK    2  A    between atoms: C_7  and  C_8
REMARK    3  A    between atoms: C_8  and  C_9
REMARK    4  A    between atoms: C_9  and  C_11
REMARK    5  A    between atoms: C_9  and  O_29
REMARK    6  A    between atoms: C_21  and  C_22
REMARK    7  A    between atoms: C_21  and  N_56
REMARK    8  A    between atoms: C_25  and  C_27
REMARK    9  A    between atoms: C_27  and  O_28
REMARK                            x       y       z     vdW  Elec       q    Type
REMARK                         _______ _______ _______ _____ _____    ______ ____
ROOT
ATOM      1  C   UNL     1      -2.934  -0.427  -4.700  0.00  0.00    -0.019 A 
ATOM      2  C   UNL     1      -3.373   0.737  -5.305  0.00  0.00    +0.010 A 
ATOM      3  C   UNL     1      -2.823   1.954  -4.950  0.00  0.00    +0.046 A 
ATOM      4  C   UNL     1      -1.827   2.004  -3.985  0.00  0.00    +0.122 A 
ATOM      5  C   UNL     1      -1.379   0.836  -3.399  0.00  0.00    -0.022 A 
ATOM      6  C   UNL     1      -1.935  -0.379  -3.744  0.00  0.00    +0.011 A 
ATOM      7  C   UNL     1      -0.245   0.896  -2.393  0.00  0.00    -0.039 C 
ATOM      8  C   UNL     1      -0.640   3.027  -1.283  0.00  0.00    -0.036 C 
ATOM      9  C   UNL     1      -1.611   3.622  -2.280  0.00  0.00    +0.210 C 
ATOM     10  O   UNL     1      -1.295   3.199  -3.612  0.00  0.00    -0.494 OA
ATOM     11  N   UNL     1      -0.759   1.558  -1.170  0.00  0.00    +0.389 N 
ATOM     12  H   UNL     1      -1.750   1.315  -1.055  0.00  0.00    -0.081 HD
ENDROOT
BRANCH   1  13
ATOM     13  C   UNL     1      -3.546  -1.750  -5.083  0.00  0.00    +0.145 C 
BRANCH  13  14
ATOM     14  O   UNL     1      -3.762  -1.785  -6.495  0.00  0.00    -0.387 OA
ATOM     15  H   UNL     1      -4.353  -1.092  -6.820  0.00  0.00    +0.210 HD
ENDBRANCH  13  14
BRANCH  13  16
ATOM     16  C   UNL     1      -4.883  -1.922  -4.359  0.00  0.00    +0.041 C 
BRANCH  16  17
ATOM     17  C   UNL     1      -5.445  -3.315  -4.648  0.00  0.00    +0.038 C 
BRANCH  17  21
ATOM     18  C   UNL     1      -9.177  -3.795  -2.627  0.00  0.00    +0.000 A 
ATOM     19  C   UNL     1      -9.148  -3.287  -3.912  0.00  0.00    +0.000 A 
ATOM     20  C   UNL     1      -7.940  -3.132  -4.566  0.00  0.00    +0.003 A 
ATOM     21  C   UNL     1      -6.761  -3.485  -3.935  0.00  0.00    -0.047 A 
ATOM     22  C   UNL     1      -6.792  -3.998  -2.652  0.00  0.00    +0.003 A 
ATOM     23  C   UNL     1      -7.999  -4.148  -1.996  0.00  0.00    +0.000 A 
ENDBRANCH  17  21
ENDBRANCH  16  17
ENDBRANCH  13  16
ENDBRANCH   1  13
BRANCH  11  24
ATOM     24  C   UNL     1      -0.013   1.086   0.008  0.00  0.00    -0.003 C 
BRANCH  24  25
ATOM     25  C   UNL     1      -0.718   1.572   1.248  0.00  0.00    +0.089 A 
ATOM     26  C   UNL     1      -1.704   0.926   1.896  0.00  0.00    +0.043 A 
ATOM     27  C   UNL     1      -2.070   1.736   2.996  0.00  0.00    +0.047 A 
ATOM     28  C   UNL     1      -1.286   2.828   2.954  0.00  0.00    +0.130 A 
ATOM     29  O   UNL     1      -0.465   2.720   1.896  0.00  0.00    -0.464 OA
BRANCH  28  30
ATOM     30  C   UNL     1      -1.318   3.974   3.932  0.00  0.00    +0.230 C 
BRANCH  30  31
ATOM     31  O   UNL     1      -0.413   3.709   5.006  0.00  0.00    -0.387 OA
ATOM     32  H   UNL     1      -0.382   4.407   5.675  0.00  0.00    +0.210 HD
ENDBRANCH  30  31
ENDBRANCH  28  30
ENDBRANCH  24  25
ENDBRANCH  11  24
TORSDOF 9
