REMARK  Name = ZINC06878544
REMARK  11 active torsions:
REMARK  status: ('A' for Active; 'I' for Inactive)
REMARK    1  A    between atoms: C_1  and  C_2
REMARK    2  A    between atoms: C_2  and  N_3
REMARK    3  A    between atoms: C_4  and  C_24
REMARK    4  A    between atoms: C_7  and  S_8
REMARK    5  A    between atoms: S_8  and  C_9
REMARK    6  A    between atoms: C_9  and  C_11
REMARK    7  A    between atoms: C_9  and  C_12
REMARK    8  A    between atoms: N_14  and  C_15
REMARK    9  A    between atoms: C_18  and  N_21
REMARK   10  A    between atoms: C_24  and  N_25
REMARK   11  A    between atoms: N_25  and  C_26
REMARK                            x       y       z     vdW  Elec       q    Type
REMARK                         _______ _______ _______ _____ _____    ______ ____
ROOT
ATOM      1  N   UNL     1       1.054   2.592   0.019  0.00  0.00    -0.305 N 
ATOM      2  C   UNL     1       0.548   3.863   0.039  0.00  0.00    +0.151 A 
ATOM      3  N   UNL     1      -0.751   3.763   0.055  0.00  0.00    -0.132 NA
ATOM      4  N   UNL     1      -1.099   2.526   0.041  0.00  0.00    -0.122 NA
ATOM      5  C   UNL     1      -0.030   1.762   0.024  0.00  0.00    +0.192 A 
ENDROOT
BRANCH   1   7
ATOM      6  C   UNL     1       2.938   2.082  -1.455  0.00  0.00    +0.027 C 
ATOM      7  C   UNL     1       2.466   2.202  -0.004  0.00  0.00    +0.122 C 
ENDBRANCH   1   7
BRANCH   5   8
ATOM      8  S   UNL     1      -0.002   0.001   0.004  0.00  0.00    -0.074 S 
BRANCH   8   9
ATOM      9  C   UNL     1      -1.779  -0.343   0.023  0.00  0.00    +0.137 C 
ATOM     10  C   UNL     1      -2.378   0.144   1.344  0.00  0.00    +0.029 C 
BRANCH   9  11
ATOM     11  C   UNL     1      -2.005  -1.826  -0.114  0.00  0.00    +0.230 C 
ATOM     12  O   UNL     1      -1.142  -2.606   0.231  0.00  0.00    -0.274 OA
ATOM     13  N   UNL     1      -3.167  -2.287  -0.620  0.00  0.00    -0.285 N 
ATOM     14  H   UNL     1      -3.882  -1.667  -0.833  0.00  0.00    +0.155 HD
BRANCH  13  15
ATOM     15  C   UNL     1      -3.340  -3.658  -0.838  0.00  0.00    +0.034 A 
ATOM     16  C   UNL     1      -4.088  -4.101  -1.921  0.00  0.00    +0.025 A 
ATOM     17  C   UNL     1      -4.252  -5.455  -2.136  0.00  0.00    +0.034 A 
ATOM     18  C   UNL     1      -3.683  -6.369  -1.269  0.00  0.00    +0.126 A 
ATOM     19  C   UNL     1      -2.942  -5.931  -0.186  0.00  0.00    +0.034 A 
ATOM     20  C   UNL     1      -2.769  -4.578   0.031  0.00  0.00    +0.025 A 
BRANCH  18  21
ATOM     21  N   UNL     1      -3.866  -7.820  -1.499  0.00  0.00    +0.056 N 
ATOM     22  O   UNL     1      -3.365  -8.626  -0.736  0.00  0.00    -0.126 OA
ATOM     23  O   UNL     1      -4.518  -8.207  -2.452  0.00  0.00    -0.126 OA
ENDBRANCH  18  21
ENDBRANCH  13  15
ENDBRANCH   9  11
ENDBRANCH   8   9
ENDBRANCH   5   8
BRANCH   2  24
ATOM     24  C   UNL     1       1.346   5.141   0.042  0.00  0.00    +0.178 C 
BRANCH  24  25
ATOM     25  N   UNL     1       1.586   5.571  -1.338  0.00  0.00    -0.337 N 
ATOM     26  H   UNL     1       1.242   5.044  -2.076  0.00  0.00    +0.147 HD
BRANCH  25  27
ATOM     27  C   UNL     1       2.309   6.738  -1.590  0.00  0.00    +0.029 A 
ATOM     28  C   UNL     1       2.538   7.147  -2.899  0.00  0.00    +0.023 A 
ATOM     29  C   UNL     1       3.253   8.302  -3.145  0.00  0.00    +0.003 A 
ATOM     30  C   UNL     1       3.741   9.053  -2.092  0.00  0.00    +0.020 A 
ATOM     31  C   UNL     1       3.516   8.650  -0.788  0.00  0.00    +0.043 A 
ATOM     32  C   UNL     1       2.797   7.497  -0.534  0.00  0.00    +0.043 A 
ATOM     33 CL   UNL     1       4.131   9.596   0.531  0.00  0.00    -0.083 Cl
ENDBRANCH  25  27
ENDBRANCH  24  25
ENDBRANCH   2  24
TORSDOF 9
