REMARK  Name = ZINC00947374
REMARK  9 active torsions:
REMARK  status: ('A' for Active; 'I' for Inactive)
REMARK    1  A    between atoms: C_1  and  C_2
REMARK    2  A    between atoms: C_9  and  N_13
REMARK    3  A    between atoms: C_10  and  C_11
REMARK    4  A    between atoms: C_14  and  C_16
REMARK    5  A    between atoms: C_17  and  C_18
REMARK    6  A    between atoms: C_21  and  O_26
REMARK    7  A    between atoms: C_22  and  O_24
REMARK    8  A    between atoms: O_24  and  C_25
REMARK    9  A    between atoms: O_26  and  C_27
REMARK                            x       y       z     vdW  Elec       q    Type
REMARK                         _______ _______ _______ _____ _____    ______ ____
ROOT
ATOM      1  N   UNL     1       4.727   4.293   0.264  0.00  0.00    -0.275 N 
ATOM      2  C   UNL     1       4.468   5.567   0.620  0.00  0.00    +0.241 C 
ATOM      3  O   UNL     1       3.321   5.921   0.823  0.00  0.00    -0.270 OA
ATOM      4  H   UNL     1       5.641   4.011   0.102  0.00  0.00    +0.156 HD
ENDROOT
BRANCH   1  12
ATOM      5  C   UNL     1      -1.402  -0.534  -0.293  0.00  0.00    +0.008 C 
ATOM      6  C   UNL     1       0.002  -0.004   0.002  0.00  0.00    -0.009 C 
ATOM      7  C   UNL     1       0.972  -0.478  -1.084  0.00  0.00    +0.008 C 
ATOM      8  C   UNL     1       2.411  -0.167  -0.669  0.00  0.00    +0.037 C 
ATOM      9  C   UNL     1       2.505   1.307  -0.294  0.00  0.00    -0.018 A 
ATOM     10  C   UNL     1       1.396   2.022  -0.000  0.00  0.00    -0.004 A 
ATOM     11  S   UNL     1       1.991   3.650   0.363  0.00  0.00    -0.077 S 
ATOM     12  C   UNL     1       3.688   3.385   0.130  0.00  0.00    +0.090 A 
ATOM     13  C   UNL     1       3.753   2.046  -0.224  0.00  0.00    +0.084 A 
ATOM     14  C   UNL     1      -0.019   1.531   0.011  0.00  0.00    +0.046 C 
BRANCH  13  15
ATOM     15  C   UNL     1       5.006   1.414  -0.510  0.00  0.00    +0.102 C 
ATOM     16  N   UNL     1       6.000   0.913  -0.737  0.00  0.00    -0.191 NA
ENDBRANCH  13  15
ENDBRANCH   1  12
BRANCH   2  17
ATOM     17  C   UNL     1       5.564   6.524   0.761  0.00  0.00    +0.068 C 
ATOM     18  C   UNL     1       5.304   7.800   1.118  0.00  0.00    +0.013 C 
BRANCH  18  19
ATOM     19  C   UNL     1       6.406   8.762   1.260  0.00  0.00    -0.021 A 
ATOM     20  C   UNL     1       7.726   8.356   1.032  0.00  0.00    +0.012 A 
ATOM     21  C   UNL     1       8.756   9.261   1.161  0.00  0.00    +0.050 A 
ATOM     22  C   UNL     1       8.490  10.574   1.527  0.00  0.00    +0.162 A 
ATOM     23  C   UNL     1       7.178  10.985   1.761  0.00  0.00    +0.162 A 
ATOM     24  C   UNL     1       6.139  10.086   1.629  0.00  0.00    +0.057 A 
BRANCH  23  25
ATOM     25  O   UNL     1       6.923  12.272   2.120  0.00  0.00    -0.491 OA
ATOM     26  C   UNL     1       5.556  12.623   2.344  0.00  0.00    +0.277 C 
ENDBRANCH  23  25
BRANCH  22  27
ATOM     27  O   UNL     1       9.511  11.461   1.657  0.00  0.00    -0.491 OA
ATOM     28  C   UNL     1      10.830  10.974   1.402  0.00  0.00    +0.277 C 
ENDBRANCH  22  27
ENDBRANCH  18  19
ENDBRANCH   2  17
TORSDOF 6
