REMARK  Name = ZINC02308239
REMARK  7 active torsions:
REMARK  status: ('A' for Active; 'I' for Inactive)
REMARK    1  A    between atoms: C_1  and  C_2
REMARK    2  A    between atoms: C_5  and  N_8
REMARK    3  A    between atoms: N_23  and  C_26
REMARK    4  A    between atoms: C_26  and  C_27
REMARK    5  A    between atoms: C_27  and  C_28
REMARK    6  A    between atoms: C_28  and  O_29
REMARK    7  A    between atoms: O_29  and  C_30
REMARK                            x       y       z     vdW  Elec       q    Type
REMARK                         _______ _______ _______ _____ _____    ______ ____
ROOT
ATOM      1  N   UNL     1       0.057  -4.171  -0.021  0.00  0.00    -0.277 N 
ATOM      2  C   UNL     1      -0.955  -4.968   0.452  0.00  0.00    +0.156 A 
ATOM      3  C   UNL     1      -0.589  -6.308   0.281  0.00  0.00    +0.111 A 
ATOM      4  C   UNL     1       0.742  -6.309  -0.341  0.00  0.00    +0.123 A 
ATOM      5  C   UNL     1       1.094  -4.942  -0.511  0.00  0.00    +0.167 A 
ATOM      6  N   UNL     1       2.251  -4.625  -1.058  0.00  0.00    -0.225 NA
ATOM      7  C   UNL     1       3.090  -5.588  -1.455  0.00  0.00    +0.092 A 
ATOM      8  C   UNL     1       4.328  -5.269  -2.040  0.00  0.00    +0.030 A 
ATOM      9  C   UNL     1       5.166  -6.266  -2.435  0.00  0.00    +0.002 A 
ATOM     10  C   UNL     1       4.816  -7.605  -2.269  0.00  0.00    +0.002 A 
ATOM     11  C   UNL     1       3.627  -7.954  -1.708  0.00  0.00    +0.030 A 
ATOM     12  C   UNL     1       2.735  -6.951  -1.286  0.00  0.00    +0.090 A 
ATOM     13  N   UNL     1       1.564  -7.268  -0.724  0.00  0.00    -0.241 NA
ATOM     14  C   UNL     1      -1.479  -7.321   0.698  0.00  0.00    +0.265 A 
ATOM     15  O   UNL     1      -1.194  -8.499   0.565  0.00  0.00    -0.267 OA
ATOM     16  N   UNL     1      -2.657  -6.949   1.248  0.00  0.00    -0.299 N 
ATOM     17  C   UNL     1      -2.957  -5.636   1.388  0.00  0.00    +0.204 A 
ATOM     18  N   UNL     1      -2.145  -4.689   1.007  0.00  0.00    -0.219 NA
ENDROOT
BRANCH   1  23
ATOM     19  C   UNL     1      -0.018   1.503   0.010  0.00  0.00    +0.044 C 
ATOM     20  C   UNL     1       0.002  -0.004   0.002  0.00  0.00    -0.050 A 
ATOM     21  C   UNL     1       0.006  -0.687  -1.200  0.00  0.00    +0.005 A 
ATOM     22  C   UNL     1       0.024  -2.068  -1.211  0.00  0.00    +0.026 A 
ATOM     23  C   UNL     1       0.039  -2.771  -0.013  0.00  0.00    +0.050 A 
ATOM     24  C   UNL     1       0.036  -2.082   1.192  0.00  0.00    +0.026 A 
ATOM     25  C   UNL     1       0.023  -0.700   1.196  0.00  0.00    +0.005 A 
ENDBRANCH   1  23
BRANCH  16  26
ATOM     26  C   UNL     1      -3.610  -7.968   1.694  0.00  0.00    +0.128 C 
BRANCH  26  27
ATOM     27  C   UNL     1      -3.331  -8.323   3.155  0.00  0.00    +0.050 C 
BRANCH  27  28
ATOM     28  C   UNL     1      -4.326  -9.388   3.621  0.00  0.00    +0.161 C 
BRANCH  28  29
ATOM     29  O   UNL     1      -4.066  -9.720   4.986  0.00  0.00    -0.383 OA
ATOM     30  C   UNL     1      -4.945 -10.711   5.521  0.00  0.00    +0.193 C 
ENDBRANCH  28  29
ENDBRANCH  27  28
ENDBRANCH  26  27
ENDBRANCH  16  26
TORSDOF 5
