REMARK  Name = ZINC19947163
REMARK  10 active torsions:
REMARK  status: ('A' for Active; 'I' for Inactive)
REMARK    1  A    between atoms: C_1  and  C_2
REMARK    2  A    between atoms: C_5  and  N_9
REMARK    3  A    between atoms: C_6  and  C_8
REMARK    4  A    between atoms: C_10  and  C_12
REMARK    5  A    between atoms: C_12  and  N_13
REMARK    6  A    between atoms: N_13  and  C_14
REMARK    7  A    between atoms: N_13  and  S_22
REMARK    8  A    between atoms: C_16  and  C_21
REMARK    9  A    between atoms: C_18  and  C_20
REMARK   10  A    between atoms: S_22  and  C_25
REMARK                            x       y       z     vdW  Elec       q    Type
REMARK                         _______ _______ _______ _____ _____    ______ ____
ROOT
ATOM      1  C   UNL     1      -3.702   2.128  -0.184  0.00  0.00    +0.227 C 
ENDROOT
BRANCH   1   3
ATOM      2  N   UNL     1      -1.237   2.069   0.019  0.00  0.00    -0.284 N 
ATOM      3  C   UNL     1      -2.394   1.385  -0.081  0.00  0.00    +0.236 C 
ATOM      4  O   UNL     1      -2.383   0.173  -0.088  0.00  0.00    -0.274 OA
ATOM      5  H   UNL     1      -1.252   3.166   0.100  0.00  0.00    +0.155 HD
BRANCH   2  10
ATOM      6  C   UNL     1       3.704  -0.717   0.009  0.00  0.00    +0.044 C 
ATOM      7  C   UNL     1       2.392   0.024   0.013  0.00  0.00    -0.050 A 
ATOM      8  C   UNL     1       1.282  -0.542   0.613  0.00  0.00    +0.005 A 
ATOM      9  C   UNL     1       0.078   0.134   0.619  0.00  0.00    +0.024 A 
ATOM     10  C   UNL     1      -0.017   1.384   0.021  0.00  0.00    +0.036 A 
ATOM     11  C   UNL     1       1.099   1.949  -0.581  0.00  0.00    -0.029 A 
ATOM     12  C   UNL     1       2.300   1.267  -0.584  0.00  0.00    +0.008 A 
ATOM     13  C   UNL     1       1.000   3.305  -1.231  0.00  0.00    +0.045 C 
ENDBRANCH   2  10
ENDBRANCH   1   3
BRANCH   1  14
ATOM     14  N   UNL     1      -4.803   1.166  -0.281  0.00  0.00    -0.199 N 
BRANCH  14  15
ATOM     15  C   UNL     1      -5.159   0.636  -1.523  0.00  0.00    +0.052 A 
ATOM     16  C   UNL     1      -6.448   0.162  -1.734  0.00  0.00    +0.028 A 
ATOM     17  C   UNL     1      -6.799  -0.357  -2.964  0.00  0.00    -0.048 A 
ATOM     18  C   UNL     1      -5.866  -0.415  -3.983  0.00  0.00    +0.006 A 
ATOM     19  C   UNL     1      -4.580   0.051  -3.776  0.00  0.00    -0.048 A 
ATOM     20  C   UNL     1      -4.225   0.577  -2.549  0.00  0.00    +0.028 A 
ATOM     21  C   UNL     1      -3.567  -0.013  -4.889  0.00  0.00    +0.044 C 
ATOM     22  C   UNL     1      -8.198  -0.867  -3.195  0.00  0.00    +0.044 C 
ENDBRANCH  14  15
BRANCH  14  23
ATOM     23  S   UNL     1      -5.625   0.708   1.081  0.00  0.00    +0.043 S 
ATOM     24  O   UNL     1      -6.133  -0.584   0.781  0.00  0.00    -0.155 OA
ATOM     25  O   UNL     1      -4.698   0.893   2.143  0.00  0.00    -0.155 OA
ATOM     26  C   UNL     1      -6.986   1.898   1.227  0.00  0.00    +0.218 C 
ENDBRANCH  14  23
ENDBRANCH   1  14
TORSDOF 5
