REMARK  Name = ZINC34745888
REMARK  4 active torsions:
REMARK  status: ('A' for Active; 'I' for Inactive)
REMARK    1  A    between atoms: C_2  and  C_3
REMARK    2  A    between atoms: C_3  and  N_4
REMARK    3  A    between atoms: N_13  and  C_14
REMARK    4  A    between atoms: C_14  and  C_16
REMARK                            x       y       z     vdW  Elec       q    Type
REMARK                         _______ _______ _______ _____ _____    ______ ____
ROOT
ATOM      1  N   UNL     1      -1.318  -1.700  -1.126  0.00  0.00    -0.317 N 
ATOM      2  C   UNL     1      -1.834  -1.285  -2.341  0.00  0.00    +0.058 A 
ATOM      3  C   UNL     1      -2.371  -0.025  -2.657  0.00  0.00    +0.028 A 
ATOM      4  C   UNL     1      -2.851   0.242  -3.916  0.00  0.00    +0.017 A 
ATOM      5  C   UNL     1      -2.821  -0.718  -4.915  0.00  0.00    +0.019 A 
ATOM      6  C   UNL     1      -2.298  -1.968  -4.633  0.00  0.00    +0.032 A 
ATOM      7  C   UNL     1      -1.818  -2.235  -3.372  0.00  0.00    +0.040 A 
ATOM      8  S   UNL     1      -1.086  -3.661  -2.607  0.00  0.00    -0.052 S 
ATOM      9  C   UNL     1      -0.827  -2.964  -0.984  0.00  0.00    +0.167 A 
ATOM     10  N   UNL     1      -0.293  -3.532   0.090  0.00  0.00    -0.152 NA
ATOM     11 BR   UNL     1      -3.488  -0.326  -6.641  0.00  0.00    -0.050 Br
ENDROOT
BRANCH  10  12
ATOM     12  C   UNL     1       0.138  -4.801   0.033  0.00  0.00    +0.276 C 
ATOM     13  O   UNL     1       0.039  -5.432  -1.007  0.00  0.00    -0.267 OA
BRANCH  12  14
ATOM     14  C   UNL     1       0.729  -5.430   1.222  0.00  0.00    +0.077 A 
ATOM     15  C   UNL     1       1.234  -6.711   1.371  0.00  0.00    +0.022 A 
ATOM     16  C   UNL     1       1.726  -7.018   2.618  0.00  0.00    +0.024 A 
ATOM     17  C   UNL     1       1.687  -6.075   3.592  0.00  0.00    +0.056 A 
ATOM     18  S   UNL     1       0.989  -4.742   2.845  0.00  0.00    -0.077 S 
ATOM     19 BR   UNL     1       2.288  -6.225   5.378  0.00  0.00    -0.043 Br
ENDBRANCH  12  14
ENDBRANCH  10  12
BRANCH   1  20
ATOM     20  C   UNL     1      -1.293  -0.775   0.010  0.00  0.00    +0.151 C 
BRANCH  20  22
ATOM     21  C   UNL     1      -0.016   1.306   0.009  0.00  0.00    +0.005 C 
ATOM     22  C   UNL     1       0.002  -0.004   0.002  0.00  0.00    -0.013 C 
ENDBRANCH  20  22
ENDBRANCH   1  20
TORSDOF 4
