REMARK  Name = ZINC24800262
REMARK  9 active torsions:
REMARK  status: ('A' for Active; 'I' for Inactive)
REMARK    1  A    between atoms: C_1  and  C_2
REMARK    2  A    between atoms: C_2  and  C_3
REMARK    3  A    between atoms: C_3  and  N_4
REMARK    4  A    between atoms: N_4  and  C_5
REMARK    5  A    between atoms: N_4  and  C_17
REMARK    6  A    between atoms: C_5  and  C_6
REMARK    7  A    between atoms: N_8  and  C_9
REMARK    8  A    between atoms: C_17  and  C_18
REMARK    9  A    between atoms: C_31  and  C_33
REMARK                            x       y       z     vdW  Elec       q    Type
REMARK                         _______ _______ _______ _____ _____    ______ ____
ROOT
ATOM      1  N   UNL     1       3.585   1.529  -0.012  0.00  0.00    +0.391 N 
ATOM      2  H   UNL     1       3.495   2.202  -0.877  0.00  0.00    -0.080 HD
ENDROOT
BRANCH   1   3
ATOM      3  C   UNL     1       3.650   2.357   1.200  0.00  0.00    -0.078 C 
BRANCH   3   5
ATOM      4  C   UNL     1       3.790   2.307   3.694  0.00  0.00    +0.002 C 
ATOM      5  C   UNL     1       3.850   1.459   2.422  0.00  0.00    -0.022 C 
ENDBRANCH   3   5
ENDBRANCH   1   3
BRANCH   1   6
ATOM      6  C   UNL     1       2.401   0.660   0.008  0.00  0.00    +0.020 C 
BRANCH   6   7
ATOM      7  C   UNL     1       1.155   1.505  -0.068  0.00  0.00    +0.201 C 
ATOM      8  O   UNL     1       1.245   2.713  -0.133  0.00  0.00    -0.278 OA
ATOM      9  N   UNL     1      -0.058   0.919  -0.065  0.00  0.00    -0.286 N 
ATOM     10  H   UNL     1      -0.139  -0.178  -0.072  0.00  0.00    +0.155 HD
BRANCH   9  11
ATOM     11  C   UNL     1      -1.216   1.706  -0.052  0.00  0.00    +0.052 A 
ATOM     12  C   UNL     1      -1.238   2.921  -0.725  0.00  0.00    +0.026 A 
ATOM     13  C   UNL     1      -2.381   3.696  -0.711  0.00  0.00    +0.022 A 
ATOM     14  C   UNL     1      -3.505   3.263  -0.028  0.00  0.00    +0.042 A 
ATOM     15  C   UNL     1      -3.486   2.053   0.643  0.00  0.00    +0.041 A 
ATOM     16  C   UNL     1      -2.347   1.271   0.628  0.00  0.00    +0.064 A 
ATOM     17 CL   UNL     1      -2.326  -0.250   1.464  0.00  0.00    -0.082 Cl
ATOM     18 CL   UNL     1      -4.939   4.240  -0.013  0.00  0.00    -0.083 Cl
ENDBRANCH   9  11
ENDBRANCH   6   7
ENDBRANCH   1   6
BRANCH   1  19
ATOM     19  C   UNL     1       4.814   0.741  -0.178  0.00  0.00    +0.020 C 
BRANCH  19  20
ATOM     20  C   UNL     1       5.942   1.652  -0.587  0.00  0.00    +0.204 C 
ATOM     21  O   UNL     1       5.764   2.850  -0.646  0.00  0.00    -0.277 OA
ATOM     22  N   UNL     1       7.150   1.135  -0.887  0.00  0.00    -0.268 N 
ATOM     23  C   UNL     1       7.374  -0.247  -0.817  0.00  0.00    +0.058 A 
ATOM     24  C   UNL     1       7.460  -0.890   0.402  0.00  0.00    +0.025 A 
ATOM     25  C   UNL     1       7.712  -2.248   0.448  0.00  0.00    +0.002 A 
ATOM     26  C   UNL     1       7.877  -2.968  -0.721  0.00  0.00    +0.002 A 
ATOM     27  C   UNL     1       7.777  -2.336  -1.947  0.00  0.00    +0.025 A 
ATOM     28  C   UNL     1       7.513  -0.978  -2.002  0.00  0.00    +0.055 A 
ATOM     29  N   UNL     1       7.375  -0.320  -3.230  0.00  0.00    -0.284 N 
ATOM     30  C   UNL     1       8.040   0.833  -3.470  0.00  0.00    +0.219 C 
ATOM     31  O   UNL     1       7.851   1.431  -4.508  0.00  0.00    -0.275 OA
ATOM     32  C   UNL     1       9.013   1.379  -2.459  0.00  0.00    +0.118 C 
ATOM     33  C   UNL     1       8.257   2.005  -1.286  0.00  0.00    +0.087 C 
ATOM     34  C   UNL     1       9.213   2.186  -0.105  0.00  0.00    +0.029 C 
ATOM     35  H   UNL     1       6.721  -0.740  -4.009  0.00  0.00    +0.155 HD
ENDBRANCH  19  20
ENDBRANCH   1  19
TORSDOF 7
