REMARK  Name = ZINC03167568
REMARK  5 active torsions:
REMARK  status: ('A' for Active; 'I' for Inactive)
REMARK    1  A    between atoms: C_9  and  O_12
REMARK    2  A    between atoms: O_12  and  C_13
REMARK    3  A    between atoms: C_13  and  C_14
REMARK    4  A    between atoms: N_16  and  N_17
REMARK    5  A    between atoms: C_18  and  C_19
REMARK                            x       y       z     vdW  Elec       q    Type
REMARK                         _______ _______ _______ _____ _____    ______ ____
ROOT
ATOM      1  C   UNL     1       2.331   7.966   0.019  0.00  0.00    +0.326 C 
ENDROOT
BRANCH   1   2
ATOM      2  C   UNL     1       2.119   9.458   0.028  0.00  0.00    +0.270 C 
ATOM      3  O   UNL     1       0.993   9.911   0.041  0.00  0.00    -0.270 OA
ATOM      4  N   UNL     1       3.180  10.290   0.021  0.00  0.00    -0.204 N 
ATOM      5  H   UNL     1       4.079   9.928   0.011  0.00  0.00    +0.177 HD
BRANCH   4   6
ATOM      6  N   UNL     1       2.982  11.677   0.030  0.00  0.00    -0.188 NA
ATOM      7  C   UNL     1       4.004  12.477   0.024  0.00  0.00    +0.138 C 
BRANCH   7   8
ATOM      8  C   UNL     1       3.796  13.937   0.033  0.00  0.00    -0.004 A 
ATOM      9  C   UNL     1       4.894  14.802   0.026  0.00  0.00    +0.009 A 
ATOM     10  C   UNL     1       4.693  16.166   0.035  0.00  0.00    +0.002 A 
ATOM     11  C   UNL     1       3.408  16.680   0.049  0.00  0.00    +0.020 A 
ATOM     12  C   UNL     1       2.316  15.830   0.056  0.00  0.00    +0.042 A 
ATOM     13  C   UNL     1       2.502  14.462   0.042  0.00  0.00    +0.029 A 
ATOM     14 CL   UNL     1       0.708  16.485   0.074  0.00  0.00    -0.084 Cl
ENDBRANCH   7   8
ENDBRANCH   4   6
ENDBRANCH   1   2
BRANCH   1  15
ATOM     15  O   UNL     1       1.064   7.305   0.028  0.00  0.00    -0.482 OA
BRANCH  15  24
ATOM     16  C   UNL     1      -0.013   1.076   0.008  0.00  0.00    +0.001 A 
ATOM     17  C   UNL     1      -1.235   1.746   0.017  0.00  0.00    +0.001 A 
ATOM     18  C   UNL     1      -1.288   3.105   0.030  0.00  0.00    +0.010 A 
ATOM     19  C   UNL     1      -0.095   3.849   0.023  0.00  0.00    -0.000 A 
ATOM     20  C   UNL     1       1.148   3.167   0.008  0.00  0.00    -0.017 A 
ATOM     21  C   UNL     1       1.163   1.762   0.000  0.00  0.00    +0.008 A 
ATOM     22  C   UNL     1       2.343   3.907  -0.000  0.00  0.00    +0.012 A 
ATOM     23  C   UNL     1       2.299   5.266   0.006  0.00  0.00    +0.047 A 
ATOM     24  C   UNL     1       1.077   5.946   0.021  0.00  0.00    +0.136 A 
ATOM     25  C   UNL     1      -0.113   5.253   0.029  0.00  0.00    +0.067 A 
ATOM     26 BR   UNL     1      -1.758   6.186   0.049  0.00  0.00    -0.046 Br
ENDBRANCH  15  24
ENDBRANCH   1  15
TORSDOF 5
