REMARK  Name = ZINC01416758
REMARK  8 active torsions:
REMARK  status: ('A' for Active; 'I' for Inactive)
REMARK    1  A    between atoms: C_1  and  C_2
REMARK    2  A    between atoms: C_3  and  O_25
REMARK    3  A    between atoms: C_6  and  C_10
REMARK    4  A    between atoms: C_7  and  O_8
REMARK    5  A    between atoms: O_8  and  C_9
REMARK    6  A    between atoms: N_11  and  N_12
REMARK    7  A    between atoms: C_13  and  C_15
REMARK    8  A    between atoms: O_25  and  C_26
REMARK                            x       y       z     vdW  Elec       q    Type
REMARK                         _______ _______ _______ _____ _____    ______ ____
ROOT
ATOM      1  N   UNL     1      -1.191   1.871   0.018  0.00  0.00    -0.200 N 
ATOM      2  C   UNL     1      -0.014   1.213   0.009  0.00  0.00    +0.299 C 
ATOM      3  O   UNL     1       0.002  -0.004   0.002  0.00  0.00    -0.265 OA
ATOM      4  H   UNL     1      -1.204   2.841   0.023  0.00  0.00    +0.178 HD
ENDROOT
BRANCH   2   5
ATOM      5  C   UNL     1       1.248   1.965   0.001  0.00  0.00    +0.192 A 
ATOM      6  C   UNL     1       2.488   1.410  -0.014  0.00  0.00    +0.063 A 
ATOM      7  C   UNL     1       3.431   2.528  -0.018  0.00  0.00    +0.022 A 
ATOM      8  C   UNL     1       4.825   2.626  -0.031  0.00  0.00    +0.027 A 
ATOM      9  C   UNL     1       5.417   3.858  -0.031  0.00  0.00    +0.019 A 
ATOM     10  C   UNL     1       4.643   5.011  -0.018  0.00  0.00    +0.019 A 
ATOM     11  C   UNL     1       3.267   4.935  -0.005  0.00  0.00    +0.048 A 
ATOM     12  C   UNL     1       2.642   3.693  -0.005  0.00  0.00    +0.136 A 
ATOM     13  O   UNL     1       1.350   3.310   0.001  0.00  0.00    -0.450 OA
ATOM     14 BR   UNL     1       7.303   3.993  -0.049  0.00  0.00    -0.050 Br
ENDBRANCH   2   5
BRANCH   1  16
ATOM     15  C   UNL     1      -3.528   1.788   0.029  0.00  0.00    +0.142 C 
ATOM     16  N   UNL     1      -2.394   1.154   0.020  0.00  0.00    -0.187 NA
BRANCH  15  22
ATOM     17  C   UNL     1      -5.959  -2.576   0.017  0.00  0.00    +0.051 C 
ATOM     18  C   UNL     1      -5.970  -1.069   0.025  0.00  0.00    +0.033 A 
ATOM     19  C   UNL     1      -7.178  -0.385   0.035  0.00  0.00    +0.126 A 
ATOM     20  C   UNL     1      -7.196   1.004   0.043  0.00  0.00    +0.047 A 
ATOM     21  C   UNL     1      -6.014   1.713   0.046  0.00  0.00    +0.016 A 
ATOM     22  C   UNL     1      -4.793   1.034   0.030  0.00  0.00    +0.037 A 
ATOM     23  C   UNL     1      -4.777  -0.368   0.023  0.00  0.00    +0.135 A 
BRANCH  23  24
ATOM     24  O   UNL     1      -3.595  -1.036   0.013  0.00  0.00    -0.494 OA
ATOM     25  C   UNL     1      -3.024  -1.362   1.282  0.00  0.00    +0.277 C 
ENDBRANCH  23  24
BRANCH  19  26
ATOM     26  O   UNL     1      -8.347  -1.077   0.038  0.00  0.00    -0.495 OA
ATOM     27  C   UNL     1      -9.553  -0.311   0.048  0.00  0.00    +0.277 C 
ENDBRANCH  19  26
ENDBRANCH  15  22
ENDBRANCH   1  16
TORSDOF 5
