REMARK  Name = ZINC09538376
REMARK  7 active torsions:
REMARK  status: ('A' for Active; 'I' for Inactive)
REMARK    1  A    between atoms: C_1  and  C_2
REMARK    2  A    between atoms: C_2  and  C_3
REMARK    3  A    between atoms: C_2  and  C_4
REMARK    4  A    between atoms: C_9  and  N_10
REMARK    5  A    between atoms: C_20  and  S_21
REMARK    6  A    between atoms: S_21  and  C_22
REMARK    7  A    between atoms: C_22  and  C_23
REMARK                            x       y       z     vdW  Elec       q    Type
REMARK                         _______ _______ _______ _____ _____    ______ ____
ROOT
ATOM      1  N   UNL     1      -1.238   2.069   0.019  0.00  0.00    -0.255 N 
ATOM      2  C   UNL     1      -1.821   2.386   1.198  0.00  0.00    +0.267 A 
ATOM      3  O   UNL     1      -1.303   2.087   2.259  0.00  0.00    -0.267 OA
ATOM      4  C   UNL     1      -3.099   3.109   1.153  0.00  0.00    +0.065 A 
ATOM      5  C   UNL     1      -3.773   3.484   2.315  0.00  0.00    +0.017 A 
ATOM      6  C   UNL     1      -4.962   4.151   2.222  0.00  0.00    +0.021 A 
ATOM      7  C   UNL     1      -5.508   4.462   0.981  0.00  0.00    +0.043 A 
ATOM      8  C   UNL     1      -4.863   4.103  -0.182  0.00  0.00    +0.048 A 
ATOM      9  C   UNL     1      -3.646   3.420  -0.113  0.00  0.00    +0.080 A 
ATOM     10  N   UNL     1      -2.977   3.048  -1.230  0.00  0.00    -0.223 NA
ATOM     11  C   UNL     1      -1.836   2.408  -1.164  0.00  0.00    +0.177 A 
ATOM     12 CL   UNL     1      -7.020   5.310   0.897  0.00  0.00    -0.083 Cl
ENDROOT
BRANCH   1  18
ATOM     13  C   UNL     1       0.002  -0.004   0.002  0.00  0.00    -0.021 A 
ATOM     14  C   UNL     1       1.208  -0.677  -0.013  0.00  0.00    +0.006 A 
ATOM     15  C   UNL     1       2.396   0.031  -0.021  0.00  0.00    +0.000 A 
ATOM     16  C   UNL     1       2.381   1.413  -0.013  0.00  0.00    +0.002 A 
ATOM     17  C   UNL     1       1.178   2.092   0.002  0.00  0.00    +0.026 A 
ATOM     18  C   UNL     1      -0.017   1.384   0.010  0.00  0.00    +0.055 A 
BRANCH  13  20
ATOM     19  C   UNL     1      -1.372  -1.650  -1.244  0.00  0.00    +0.012 C 
ATOM     20  C   UNL     1      -1.292  -0.776   0.010  0.00  0.00    +0.015 C 
ATOM     21  C   UNL     1      -1.349  -1.663   1.255  0.00  0.00    +0.012 C 
ENDBRANCH  13  20
ENDBRANCH   1  18
BRANCH  11  22
ATOM     22  S   UNL     1      -1.034   1.963  -2.668  0.00  0.00    -0.079 S 
BRANCH  22  23
ATOM     23  C   UNL     1      -2.217   2.629  -3.865  0.00  0.00    +0.151 C 
BRANCH  23  24
ATOM     24  C   UNL     1      -1.724   2.358  -5.263  0.00  0.00    +0.121 A 
ATOM     25  N   UNL     1      -2.480   2.784  -6.308  0.00  0.00    -0.309 N 
ATOM     26  H   UNL     1      -3.316   3.252  -6.150  0.00  0.00    +0.170 HD
ATOM     27  C   UNL     1      -2.056   2.551  -7.574  0.00  0.00    +0.266 A 
ATOM     28  O   UNL     1      -2.712   2.921  -8.533  0.00  0.00    -0.267 OA
ATOM     29  C   UNL     1      -0.848   1.875  -7.748  0.00  0.00    +0.102 A 
ATOM     30  C   UNL     1      -0.085   1.444  -6.649  0.00  0.00    +0.085 A 
ATOM     31  N   UNL     1      -0.600   1.734  -5.409  0.00  0.00    -0.232 NA
ATOM     32  C   UNL     1       1.107   0.777  -6.965  0.00  0.00    +0.036 A 
ATOM     33  C   UNL     1       1.456   0.586  -8.256  0.00  0.00    +0.048 A 
ATOM     34  S   UNL     1       0.106   1.345  -9.145  0.00  0.00    -0.090 S 
ENDBRANCH  23  24
ENDBRANCH  22  23
ENDBRANCH  11  22
TORSDOF 5
