REMARK  Name = ZINC09505641
REMARK  11 active torsions:
REMARK  status: ('A' for Active; 'I' for Inactive)
REMARK    1  A    between atoms: C_1  and  C_2
REMARK    2  A    between atoms: C_5  and  O_32
REMARK    3  A    between atoms: N_11  and  C_12
REMARK    4  A    between atoms: C_12  and  C_13
REMARK    5  A    between atoms: C_13  and  N_61
REMARK    6  A    between atoms: C_14  and  N_61
REMARK    7  A    between atoms: C_15  and  N_61
REMARK    8  A    between atoms: C_16  and  C_18
REMARK    9  A    between atoms: N_23  and  S_24
REMARK   10  A    between atoms: S_24  and  C_27
REMARK   11  A    between atoms: O_32  and  C_33
REMARK                            x       y       z     vdW  Elec       q    Type
REMARK                         _______ _______ _______ _____ _____    ______ ____
ROOT
ATOM      1  C   UNL     1       3.075   3.934   0.687  0.00  0.00    +0.045 C 
ATOM      2  C   UNL     1       3.406   2.467   0.772  0.00  0.00    -0.034 A 
ATOM      3  C   UNL     1       4.710   2.060   0.986  0.00  0.00    +0.008 A 
ATOM      4  C   UNL     1       4.996   0.705   1.061  0.00  0.00    +0.048 A 
ATOM      5  C   UNL     1       4.010  -0.245   0.928  0.00  0.00    +0.147 A 
ATOM      6  C   UNL     1       2.663   0.138   0.708  0.00  0.00    +0.122 A 
ATOM      7  C   UNL     1       2.413   1.526   0.638  0.00  0.00    +0.047 A 
ATOM      8  S   UNL     1       0.659   1.582   0.361  0.00  0.00    -0.051 S 
ATOM      9  C   UNL     1       0.377  -0.183   0.356  0.00  0.00    +0.168 A 
ATOM     10  N   UNL     1       1.583  -0.659   0.557  0.00  0.00    -0.221 NA
ATOM     11  N   UNL     1      -0.814  -0.872   0.185  0.00  0.00    -0.251 N 
ATOM     12  C   UNL     1      -1.979  -0.199   0.117  0.00  0.00    +0.240 C 
ATOM     13  O   UNL     1      -3.027  -0.805   0.050  0.00  0.00    -0.273 OA
ENDROOT
BRANCH  12  14
ATOM     14  C   UNL     1      -1.980   1.308   0.124  0.00  0.00    +0.166 C 
ATOM     15  C   UNL     1      -1.535   1.840  -1.255  0.00  0.00    +0.031 C 
ATOM     16  C   UNL     1      -2.888   2.139  -1.961  0.00  0.00    +0.019 C 
ATOM     17  C   UNL     1      -3.753   2.638  -0.777  0.00  0.00    +0.110 C 
ATOM     18  N   UNL     1      -3.341   1.806   0.369  0.00  0.00    -0.164 NA
BRANCH  18  19
ATOM     19  S   UNL     1      -4.259   1.487   1.709  0.00  0.00    +0.068 S 
ATOM     20  O   UNL     1      -5.616   1.655   1.322  0.00  0.00    -0.152 OA
ATOM     21  O   UNL     1      -3.768   0.271   2.257  0.00  0.00    -0.152 OA
BRANCH  19  22
ATOM     22  C   UNL     1      -3.913   2.748   2.890  0.00  0.00    +0.143 A 
ATOM     23  C   UNL     1      -4.523   3.946   3.063  0.00  0.00    +0.036 A 
ATOM     24  C   UNL     1      -4.081   4.784   4.069  0.00  0.00    +0.010 A 
ATOM     25  C   UNL     1      -3.043   4.388   4.846  0.00  0.00    +0.047 A 
ATOM     26  S   UNL     1      -2.663   2.782   4.165  0.00  0.00    -0.077 S 
ENDBRANCH  19  22
ENDBRANCH  18  19
ENDBRANCH  12  14
BRANCH   5  27
ATOM     27  O   UNL     1       4.330  -1.564   1.009  0.00  0.00    -0.493 OA
ATOM     28  C   UNL     1       5.705  -1.885   1.231  0.00  0.00    +0.277 C 
ENDBRANCH   5  27
BRANCH  11  29
ATOM     29  C   UNL     1      -0.805  -2.333   0.078  0.00  0.00    +0.097 C 
BRANCH  29  30
ATOM     30  C   UNL     1      -0.968  -2.947   1.470  0.00  0.00    -0.060 C 
BRANCH  30  33
ATOM     31  C   UNL     1      -0.748  -5.012   2.716  0.00  0.00    -0.097 C 
ATOM     32  C   UNL     1      -1.939  -4.991   0.608  0.00  0.00    -0.097 C 
ATOM     33  N   UNL     1      -0.809  -4.413   1.366  0.00  0.00    +0.377 N 
ATOM     34  H   UNL     1       0.065  -4.620   0.870  0.00  0.00    -0.083 HD
ENDBRANCH  30  33
ENDBRANCH  29  30
ENDBRANCH  11  29
TORSDOF 7
