REMARK  Name = ZINC35991222
REMARK  10 active torsions:
REMARK  status: ('A' for Active; 'I' for Inactive)
REMARK    1  A    between atoms: C_1  and  C_2
REMARK    2  A    between atoms: C_2  and  N_3
REMARK    3  A    between atoms: N_6  and  C_9
REMARK    4  A    between atoms: C_9  and  C_10
REMARK    5  A    between atoms: C_11  and  C_27
REMARK    6  A    between atoms: C_12  and  C_19
REMARK    7  A    between atoms: N_17  and  C_18
REMARK    8  A    between atoms: C_27  and  O_29
REMARK    9  A    between atoms: O_29  and  C_30
REMARK   10  A    between atoms: C_30  and  C_31
REMARK                            x       y       z     vdW  Elec       q    Type
REMARK                         _______ _______ _______ _____ _____    ______ ____
ROOT
ATOM      1  C   UNL     1      -4.936  -4.120  -1.159  0.00  0.00    +0.041 C 
ATOM      2  C   UNL     1      -5.210  -4.922  -0.108  0.00  0.00    +0.080 C 
ATOM      3  C   UNL     1      -5.019  -6.414  -0.291  0.00  0.00    +0.145 C 
ATOM      4  N   UNL     1      -4.545  -6.870  -1.609  0.00  0.00    -0.288 N 
ATOM      5  C   UNL     1      -4.314  -5.946  -2.562  0.00  0.00    +0.307 C 
ATOM      6  O   UNL     1      -3.923  -6.311  -3.653  0.00  0.00    -0.252 OA
ATOM      7  N   UNL     1      -4.505  -4.638  -2.347  0.00  0.00    -0.260 N 
ATOM      8  C   UNL     1      -4.232  -3.710  -3.447  0.00  0.00    +0.139 C 
ATOM      9  H   UNL     1      -4.404  -7.813  -1.786  0.00  0.00    +0.151 HD
ENDROOT
BRANCH   3  10
ATOM     10  C   UNL     1      -4.031  -6.886   0.745  0.00  0.00    -0.004 A 
ATOM     11  C   UNL     1      -2.683  -6.938   0.442  0.00  0.00    +0.008 A 
ATOM     12  C   UNL     1      -1.777  -7.371   1.391  0.00  0.00    +0.020 A 
ATOM     13  C   UNL     1      -2.218  -7.752   2.647  0.00  0.00    +0.042 A 
ATOM     14  C   UNL     1      -3.566  -7.699   2.951  0.00  0.00    +0.040 A 
ATOM     15  C   UNL     1      -4.473  -7.261   2.001  0.00  0.00    +0.048 A 
ATOM     16 CL   UNL     1      -6.164  -7.189   2.384  0.00  0.00    -0.083 Cl
ATOM     17 CL   UNL     1      -1.080  -8.295   3.839  0.00  0.00    -0.083 Cl
ENDBRANCH   3  10
BRANCH   2  18
ATOM     18  C   UNL     1      -5.661  -4.388   1.122  0.00  0.00    +0.339 C 
ATOM     19  O   UNL     1      -4.877  -4.224   2.038  0.00  0.00    -0.245 OA
BRANCH  18  20
ATOM     20  O   UNL     1      -6.960  -4.060   1.279  0.00  0.00    -0.462 OA
BRANCH  20  21
ATOM     21  C   UNL     1      -7.346  -3.525   2.547  0.00  0.00    +0.229 C 
ATOM     22  C   UNL     1      -8.844  -3.216   2.536  0.00  0.00    +0.048 C 
ENDBRANCH  20  21
ENDBRANCH  18  20
ENDBRANCH   2  18
BRANCH   1  23
ATOM     23  C   UNL     1      -5.113  -2.630  -1.020  0.00  0.00    +0.136 C 
BRANCH  23  27
ATOM     24  N   UNL     1      -1.729  -0.199  -0.307  0.00  0.00    +0.381 N 
ATOM     25  C   UNL     1      -2.591   0.135  -1.449  0.00  0.00    -0.063 C 
ATOM     26  C   UNL     1      -3.965  -0.510  -1.257  0.00  0.00    +0.066 C 
ATOM     27  N   UNL     1      -3.808  -1.968  -1.149  0.00  0.00    -0.300 NA
ATOM     28  C   UNL     1      -2.927  -2.316  -0.025  0.00  0.00    +0.066 C 
ATOM     29  C   UNL     1      -1.562  -1.656  -0.227  0.00  0.00    -0.063 C 
ATOM     30  H   UNL     1      -2.154   0.138   0.544  0.00  0.00    -0.082 HD
BRANCH  24  32
ATOM     31  C   UNL     1      -0.575   1.957  -0.441  0.00  0.00    -0.017 C 
ATOM     32  C   UNL     1      -0.416   0.436  -0.483  0.00  0.00    -0.082 C 
ENDBRANCH  24  32
ENDBRANCH  23  27
ENDBRANCH   1  23
TORSDOF 7
