REMARK  Name = ZINC14651293
REMARK  15 active torsions:
REMARK  status: ('A' for Active; 'I' for Inactive)
REMARK    1  A    between atoms: C_1  and  C_2
REMARK    2  A    between atoms: C_2  and  C_3
REMARK    3  A    between atoms: C_3  and  O_4
REMARK    4  A    between atoms: O_4  and  C_5
REMARK    5  A    between atoms: C_10  and  C_11
REMARK    6  A    between atoms: N_13  and  N_14
REMARK    7  A    between atoms: N_14  and  C_15
REMARK    8  A    between atoms: C_15  and  N_17
REMARK    9  A    between atoms: C_18  and  C_20
REMARK   10  A    between atoms: C_25  and  O_26
REMARK   11  A    between atoms: O_26  and  C_27
REMARK   12  A    between atoms: C_27  and  C_28
REMARK   13  A    between atoms: C_28  and  C_29
REMARK   14  A    between atoms: C_29  and  C_30
REMARK   15  A    between atoms: C_29  and  C_31
REMARK                            x       y       z     vdW  Elec       q    Type
REMARK                         _______ _______ _______ _____ _____    ______ ____
ROOT
ATOM      1  C   UNL     1       3.540   5.996  -0.001  0.00  0.00    +0.153 C 
ATOM      2  S   UNL     1       5.041   5.171  -0.020  0.00  0.00    -0.017 S 
ENDROOT
BRANCH   1   3
ATOM      3  N   UNL     1       2.388   5.298   0.006  0.00  0.00    -0.263 N 
ATOM      4  C   UNL     1       2.416   3.950  -0.001  0.00  0.00    +0.253 C 
ATOM      5  O   UNL     1       3.481   3.365  -0.014  0.00  0.00    -0.270 OA
ATOM      6  H   UNL     1       1.538   5.765   0.017  0.00  0.00    +0.157 HD
BRANCH   4   7
ATOM      7  C   UNL     1       1.155   3.186   0.008  0.00  0.00    +0.080 A 
ATOM      8  C   UNL     1      -0.072   3.855   0.022  0.00  0.00    +0.032 A 
ATOM      9  C   UNL     1      -1.247   3.135   0.030  0.00  0.00    +0.019 A 
ATOM     10  C   UNL     1      -1.218   1.749   0.017  0.00  0.00    +0.019 A 
ATOM     11  C   UNL     1      -0.013   1.076   0.008  0.00  0.00    +0.047 A 
ATOM     12  C   UNL     1       1.180   1.785   0.000  0.00  0.00    +0.133 A 
ATOM     13 BR   UNL     1      -2.907   4.041   0.050  0.00  0.00    -0.050 Br
BRANCH  12  14
ATOM     14  O   UNL     1       2.365   1.124  -0.015  0.00  0.00    -0.491 OA
BRANCH  14  15
ATOM     15  C   UNL     1       2.312  -0.304  -0.022  0.00  0.00    +0.229 C 
BRANCH  15  16
ATOM     16  C   UNL     1       3.734  -0.867  -0.038  0.00  0.00    +0.044 C 
BRANCH  16  17
ATOM     17  C   UNL     1       3.677  -2.396  -0.046  0.00  0.00    -0.014 C 
ATOM     18  C   UNL     1       3.037  -2.876  -1.350  0.00  0.00    +0.007 C 
ATOM     19  C   UNL     1       5.095  -2.959   0.063  0.00  0.00    +0.007 C 
ENDBRANCH  16  17
ENDBRANCH  15  16
ENDBRANCH  14  15
ENDBRANCH  12  14
ENDBRANCH   4   7
ENDBRANCH   1   3
BRANCH   1  20
ATOM     20  N   UNL     1       3.512   7.343   0.006  0.00  0.00    -0.245 N 
ATOM     21  H   UNL     1       4.342   7.846   0.000  0.00  0.00    +0.172 HD
BRANCH  20  24
ATOM     22  C   UNL     1       2.256   9.365   0.028  0.00  0.00    +0.264 C 
ATOM     23  O   UNL     1       3.296   9.995   0.021  0.00  0.00    -0.269 OA
ATOM     24  N   UNL     1       2.284   8.018   0.021  0.00  0.00    -0.231 N 
ATOM     25  H   UNL     1       1.455   7.515   0.027  0.00  0.00    +0.173 HD
BRANCH  22  31
ATOM     26  C   UNL     1       0.929  11.477   0.052  0.00  0.00    +0.133 A 
ATOM     27  C   UNL     1      -0.292  12.135   0.066  0.00  0.00    +0.046 A 
ATOM     28  C   UNL     1      -1.468  11.411   0.074  0.00  0.00    +0.004 A 
ATOM     29  C   UNL     1      -1.438  10.026   0.066  0.00  0.00    +0.001 A 
ATOM     30  C   UNL     1      -0.234   9.356   0.046  0.00  0.00    +0.017 A 
ATOM     31  C   UNL     1       0.963  10.076   0.044  0.00  0.00    +0.080 A 
BRANCH  26  32
ATOM     32  O   UNL     1       2.085  12.187   0.044  0.00  0.00    -0.491 OA
BRANCH  32  33
ATOM     33  C   UNL     1       1.972  13.611   0.052  0.00  0.00    +0.229 C 
BRANCH  33  35
ATOM     34  C   UNL     1       3.248  15.759   0.051  0.00  0.00    +0.007 C 
ATOM     35  C   UNL     1       3.369  14.234   0.042  0.00  0.00    +0.038 C 
ENDBRANCH  33  35
ENDBRANCH  32  33
ENDBRANCH  26  32
ENDBRANCH  22  31
ENDBRANCH  20  24
ENDBRANCH   1  20
TORSDOF 12
