REMARK  Name = ZINC39666469
REMARK  11 active torsions:
REMARK  status: ('A' for Active; 'I' for Inactive)
REMARK    1  A    between atoms: C_1  and  C_2
REMARK    2  A    between atoms: C_2  and  C_3
REMARK    3  A    between atoms: C_3  and  C_4
REMARK    4  A    between atoms: C_3  and  C_6
REMARK    5  A    between atoms: C_4  and  C_5
REMARK    6  A    between atoms: C_10  and  C_19
REMARK    7  A    between atoms: N_21  and  C_22
REMARK    8  A    between atoms: C_22  and  C_23
REMARK    9  A    between atoms: C_23  and  C_25
REMARK   10  A    between atoms: C_23  and  O_26
REMARK   11  A    between atoms: O_26  and  C_27
REMARK                            x       y       z     vdW  Elec       q    Type
REMARK                         _______ _______ _______ _____ _____    ______ ____
ROOT
ATOM      1  C   UNL     1      -1.548  -2.027   0.177  0.00  0.00    +0.219 C 
ATOM      2  O   UNL     1      -0.471  -2.545   0.389  0.00  0.00    -0.275 OA
ATOM      3  N   UNL     1      -2.660  -2.786   0.114  0.00  0.00    -0.300 N 
ATOM      4  C   UNL     1      -4.062  -2.332  -0.040  0.00  0.00    +0.121 C 
ATOM      5  C   UNL     1      -4.703  -3.362  -0.997  0.00  0.00    +0.100 C 
ATOM      6  C   UNL     1      -3.843  -4.628  -0.844  0.00  0.00    -0.004 C 
ATOM      7  C   UNL     1      -2.756  -4.264   0.177  0.00  0.00    +0.115 C 
ATOM      8  C   UNL     1      -3.202  -4.996  -2.179  0.00  0.00    -0.010 C 
ATOM      9  C   UNL     1      -2.398  -6.289  -2.015  0.00  0.00    -0.082 C 
ATOM     10  N   UNL     1      -3.288  -7.366  -1.563  0.00  0.00    +0.379 N 
ATOM     11  C   UNL     1      -3.828  -7.046  -0.236  0.00  0.00    -0.082 C 
ATOM     12  C   UNL     1      -4.692  -5.785  -0.325  0.00  0.00    -0.010 C 
ATOM     13  H   UNL     1      -4.048  -7.469  -2.218  0.00  0.00    -0.086 HD
ATOM     14  H   UNL     1      -2.770  -8.230  -1.515  0.00  0.00    -0.086 HD
ENDROOT
BRANCH   5  15
ATOM     15  C   UNL     1      -6.127  -3.641  -0.590  0.00  0.00    +0.218 C 
ATOM     16  O   UNL     1      -6.472  -3.480   0.561  0.00  0.00    -0.275 OA
ATOM     17  N   UNL     1      -7.018  -4.068  -1.507  0.00  0.00    -0.312 N 
ATOM     18  H   UNL     1      -6.742  -4.197  -2.428  0.00  0.00    +0.149 HD
BRANCH  17  19
ATOM     19  C   UNL     1      -8.402  -4.339  -1.112  0.00  0.00    +0.148 C 
BRANCH  19  20
ATOM     20  C   UNL     1      -9.198  -4.808  -2.332  0.00  0.00    +0.187 C 
ATOM     21  C   UNL     1     -10.644  -5.091  -1.919  0.00  0.00    +0.053 C 
BRANCH  20  22
ATOM     22  O   UNL     1      -9.179  -3.789  -3.333  0.00  0.00    -0.486 OA
BRANCH  22  23
ATOM     23  C   UNL     1      -9.358  -4.186  -4.621  0.00  0.00    +0.139 A 
ATOM     24  C   UNL     1      -9.658  -5.511  -4.904  0.00  0.00    +0.047 A 
ATOM     25  C   UNL     1      -9.840  -5.912  -6.214  0.00  0.00    +0.004 A 
ATOM     26  C   UNL     1      -9.721  -4.995  -7.242  0.00  0.00    +0.002 A 
ATOM     27  C   UNL     1      -9.421  -3.675  -6.963  0.00  0.00    +0.023 A 
ATOM     28  C   UNL     1      -9.245  -3.267  -5.654  0.00  0.00    +0.083 A 
ATOM     29 CL   UNL     1      -8.875  -1.607  -5.304  0.00  0.00    -0.080 Cl
ENDBRANCH  22  23
ENDBRANCH  20  22
ENDBRANCH  19  20
ENDBRANCH  17  19
ENDBRANCH   5  15
BRANCH   1  30
ATOM     30  C   UNL     1      -1.642  -0.536  -0.017  0.00  0.00    +0.075 C 
BRANCH  30  32
ATOM     31  C   UNL     1      -1.969   1.651   1.147  0.00  0.00    +0.004 C 
ATOM     32  C   UNL     1      -1.748   0.150   1.347  0.00  0.00    +0.009 C 
ENDBRANCH  30  32
BRANCH  30  33
ATOM     33  C   UNL     1      -0.391  -0.036  -0.743  0.00  0.00    +0.009 C 
ATOM     34  C   UNL     1      -0.357  -0.615  -2.159  0.00  0.00    +0.004 C 
ENDBRANCH  30  33
ENDBRANCH   1  30
TORSDOF 8
