REMARK  Name = ZINC45521187
REMARK  5 active torsions:
REMARK  status: ('A' for Active; 'I' for Inactive)
REMARK    1  A    between atoms: C_3  and  N_10
REMARK    2  A    between atoms: C_6  and  C_7
REMARK    3  A    between atoms: C_11  and  C_13
REMARK    4  A    between atoms: C_13  and  N_14
REMARK    5  A    between atoms: N_14  and  C_15
REMARK                            x       y       z     vdW  Elec       q    Type
REMARK                         _______ _______ _______ _____ _____    ______ ____
ROOT
ATOM      1  N   UNL     1       3.578   2.132  -0.022  0.00  0.00    -0.284 N 
ATOM      2  C   UNL     1       4.754   1.479   0.065  0.00  0.00    +0.234 C 
ATOM      3  O   UNL     1       4.776   0.266   0.058  0.00  0.00    -0.274 OA
ATOM      4  H   UNL     1       3.564   3.100  -0.083  0.00  0.00    +0.155 HD
ENDROOT
BRANCH   1   7
ATOM      5  C   UNL     1       1.137  -0.537  -0.644  0.00  0.00    +0.015 A 
ATOM      6  C   UNL     1       2.317   0.172  -0.642  0.00  0.00    +0.024 A 
ATOM      7  C   UNL     1       2.381   1.417  -0.022  0.00  0.00    +0.033 A 
ATOM      8  C   UNL     1       1.254   1.948   0.597  0.00  0.00    +0.024 A 
ATOM      9  C   UNL     1       0.071   1.244   0.599  0.00  0.00    +0.015 A 
ATOM     10  C   UNL     1       0.003  -0.006  -0.023  0.00  0.00    +0.037 A 
BRANCH  10  11
ATOM     11  C   UNL     1      -1.264  -0.763  -0.024  0.00  0.00    +0.242 C 
ATOM     12  O   UNL     1      -1.321  -1.851  -0.565  0.00  0.00    -0.270 OA
ATOM     13  N   UNL     1      -2.356  -0.250   0.575  0.00  0.00    -0.325 N 
ATOM     14  H   UNL     1      -2.310   0.617   1.007  0.00  0.00    +0.145 HD
ATOM     15  H   UNL     1      -3.189  -0.748   0.575  0.00  0.00    +0.145 HD
ENDBRANCH  10  11
ENDBRANCH   1   7
BRANCH   2  16
ATOM     16  C   UNL     1       6.041   2.255   0.170  0.00  0.00    +0.198 C 
BRANCH  16  17
ATOM     17  N   UNL     1       7.168   1.323   0.251  0.00  0.00    -0.335 N 
ATOM     18  H   UNL     1       7.009   0.367   0.232  0.00  0.00    +0.147 HD
BRANCH  17  19
ATOM     19  C   UNL     1       8.475   1.813   0.355  0.00  0.00    +0.031 A 
ATOM     20  C   UNL     1       8.703   3.182   0.388  0.00  0.00    +0.027 A 
ATOM     21  C   UNL     1       9.993   3.667   0.491  0.00  0.00    +0.051 A 
ATOM     22  C   UNL     1      11.062   2.789   0.563  0.00  0.00    +0.173 A 
ATOM     23  C   UNL     1      10.837   1.415   0.530  0.00  0.00    +0.174 A 
ATOM     24  C   UNL     1       9.543   0.930   0.432  0.00  0.00    +0.072 A 
ATOM     25  O   UNL     1      12.039   0.774   0.614  0.00  0.00    -0.395 OA
ATOM     26  C   UNL     1      13.028   1.767   0.286  0.00  0.00    +0.589 C 
ATOM     27  O   UNL     1      12.407   3.008   0.667  0.00  0.00    -0.395 OA
ATOM     28  F   UNL     1      14.199   1.557   1.024  0.00  0.00    -0.125 F 
ATOM     29  F   UNL     1      13.302   1.754  -1.086  0.00  0.00    -0.125 F 
ENDBRANCH  17  19
ENDBRANCH  16  17
ENDBRANCH   2  16
TORSDOF 5
