REMARK  Name = ZINC23319385
REMARK  6 active torsions:
REMARK  status: ('A' for Active; 'I' for Inactive)
REMARK    1  A    between atoms: C_4  and  C_7
REMARK    2  A    between atoms: C_7  and  C_8
REMARK    3  A    between atoms: C_8  and  N_9
REMARK    4  A    between atoms: C_17  and  N_19
REMARK    5  A    between atoms: N_19  and  S_20
REMARK    6  A    between atoms: S_20  and  C_23
REMARK                            x       y       z     vdW  Elec       q    Type
REMARK                         _______ _______ _______ _____ _____    ______ ____
ROOT
ATOM      1  N   UNL     1       5.453  -1.680   1.382  0.00  0.00    +0.384 N 
ATOM      2  C   UNL     1       5.263  -3.082   0.923  0.00  0.00    -0.067 C 
ATOM      3  C   UNL     1       4.663  -3.805   2.151  0.00  0.00    -0.017 C 
ATOM      4  C   UNL     1       5.140  -2.983   3.366  0.00  0.00    -0.017 C 
ATOM      5  C   UNL     1       5.984  -1.837   2.762  0.00  0.00    -0.067 C 
ATOM      6  C   UNL     1       7.433  -2.335   2.639  0.00  0.00    +0.005 C 
ATOM      7  C   UNL     1       7.427  -3.723   1.991  0.00  0.00    +0.074 C 
ATOM      8  C   UNL     1       6.659  -3.666   0.652  0.00  0.00    +0.005 C 
ATOM      9  H   UNL     1       6.121  -1.200   0.797  0.00  0.00    -0.081 HD
ENDROOT
BRANCH   7  10
ATOM     10  N   UNL     1       8.806  -4.149   1.739  0.00  0.00    -0.187 NA
ATOM     11  H   UNL     1       9.477  -3.496   1.487  0.00  0.00    +0.148 HD
BRANCH  10  12
ATOM     12  S   UNL     1       9.218  -5.746   1.885  0.00  0.00    +0.059 S 
ATOM     13  O   UNL     1      10.597  -5.841   1.556  0.00  0.00    -0.153 OA
ATOM     14  O   UNL     1       8.701  -6.186   3.134  0.00  0.00    -0.153 OA
BRANCH  12  15
ATOM     15  C   UNL     1       8.340  -6.628   0.638  0.00  0.00    +0.106 A 
ATOM     16  C   UNL     1       7.072  -7.134   0.919  0.00  0.00    +0.029 A 
ATOM     17  C   UNL     1       6.367  -7.820  -0.022  0.00  0.00    +0.010 A 
ATOM     18  C   UNL     1       6.923  -8.021  -1.297  0.00  0.00    -0.018 A 
ATOM     19  C   UNL     1       6.225  -8.724  -2.295  0.00  0.00    +0.008 A 
ATOM     20  C   UNL     1       6.795  -8.899  -3.518  0.00  0.00    +0.001 A 
ATOM     21  C   UNL     1       8.062  -8.392  -3.799  0.00  0.00    +0.001 A 
ATOM     22  C   UNL     1       8.767  -7.707  -2.858  0.00  0.00    +0.008 A 
ATOM     23  C   UNL     1       8.212  -7.506  -1.583  0.00  0.00    -0.016 A 
ATOM     24  C   UNL     1       8.907  -6.799  -0.587  0.00  0.00    +0.037 A 
ENDBRANCH  12  15
ENDBRANCH  10  12
ENDBRANCH   7  10
BRANCH   1  25
ATOM     25  C   UNL     1       4.171  -0.963   1.399  0.00  0.00    -0.073 C 
BRANCH  25  26
ATOM     26  C   UNL     1       3.711  -0.707  -0.038  0.00  0.00    +0.016 C 
BRANCH  26  30
ATOM     27  C   UNL     1      -0.017   1.378   0.010  0.00  0.00    +0.000 A 
ATOM     28  C   UNL     1       1.171   2.086   0.002  0.00  0.00    +0.000 A 
ATOM     29  C   UNL     1       2.377   1.411  -0.013  0.00  0.00    +0.003 A 
ATOM     30  C   UNL     1       2.396   0.029  -0.020  0.00  0.00    -0.049 A 
ATOM     31  C   UNL     1       1.208  -0.679  -0.012  0.00  0.00    +0.003 A 
ATOM     32  C   UNL     1       0.002  -0.004   0.002  0.00  0.00    +0.000 A 
ENDBRANCH  26  30
ENDBRANCH  25  26
ENDBRANCH   1  25
TORSDOF 6
