REMARK  Name = ZINC02156760
REMARK  8 active torsions:
REMARK  status: ('A' for Active; 'I' for Inactive)
REMARK    1  A    between atoms: C_1  and  C_2
REMARK    2  A    between atoms: C_12  and  C_13
REMARK    3  A    between atoms: C_13  and  C_14
REMARK    4  A    between atoms: N_16  and  CA_17
REMARK    5  A    between atoms: CA_17  and  C_19
REMARK    6  A    between atoms: CA_17  and  C_27
REMARK    7  A    between atoms: C_19  and  C_20
REMARK    8  A    between atoms: C_31  and  C_32
REMARK                            x       y       z     vdW  Elec       q    Type
REMARK                         _______ _______ _______ _____ _____    ______ ____
ROOT
ATOM      1  C   UNL     1       0.694   3.623  -1.175  0.00  0.00    +0.045 C 
ATOM      2  C   UNL     1      -0.406   2.779  -1.765  0.00  0.00    -0.029 A 
ATOM      3  C   UNL     1      -1.141   3.224  -2.953  0.00  0.00    +0.022 A 
ATOM      4  C   UNL     1      -0.840   4.441  -3.564  0.00  0.00    +0.024 A 
ATOM      5  C   UNL     1      -1.555   4.832  -4.686  0.00  0.00    +0.029 A 
ATOM      6  C   UNL     1      -2.575   4.013  -5.206  0.00  0.00    +0.139 A 
ATOM      7  C   UNL     1      -2.869   2.803  -4.594  0.00  0.00    +0.093 A 
ATOM      8  C   UNL     1      -2.163   2.402  -3.473  0.00  0.00    +0.143 A 
ATOM      9  O   UNL     1      -2.445   1.224  -2.872  0.00  0.00    -0.422 OA
ATOM     10  C   UNL     1      -1.771   0.810  -1.788  0.00  0.00    +0.341 A 
ATOM     11  O   UNL     1      -2.058  -0.261  -1.285  0.00  0.00    -0.245 OA
ATOM     12  C   UNL     1      -0.742   1.585  -1.213  0.00  0.00    +0.049 A 
ATOM     13  O   UNL     1      -3.087   4.643  -6.284  0.00  0.00    -0.462 OA
ATOM     14  C   UNL     1      -2.470   5.816  -6.500  0.00  0.00    +0.204 A 
ATOM     15  C   UNL     1      -1.513   6.016  -5.567  0.00  0.00    +0.028 A 
ENDROOT
BRANCH  15  16
ATOM     16  C   UNL     1      -0.608   7.184  -5.451  0.00  0.00    -0.014 A 
ATOM     17  C   UNL     1      -0.473   7.846  -4.231  0.00  0.00    +0.008 A 
ATOM     18  C   UNL     1       0.375   8.930  -4.128  0.00  0.00    +0.001 A 
ATOM     19  C   UNL     1       1.081   9.367  -5.234  0.00  0.00    +0.000 A 
ATOM     20  C   UNL     1       0.947   8.718  -6.448  0.00  0.00    +0.001 A 
ATOM     21  C   UNL     1       0.106   7.629  -6.562  0.00  0.00    +0.008 A 
ENDBRANCH  15  16
BRANCH  12  22
ATOM     22  C   UNL     1      -0.013   1.086   0.008  0.00  0.00    +0.138 C 
BRANCH  22  23
ATOM     23  C   UNL     1      -0.718   1.572   1.248  0.00  0.00    +0.218 C 
ATOM     24  O   UNL     1      -1.714   2.256   1.150  0.00  0.00    -0.275 OA
ATOM     25  N   UNL     1      -0.242   1.246   2.466  0.00  0.00    -0.302 N 
ATOM     26  H   UNL     1       0.555   0.699   2.544  0.00  0.00    +0.150 HD
BRANCH  25  27
ATOM     27  CA  UNL     1      -0.927   1.718   3.671  0.00  0.00    +0.191 C 
BRANCH  27  28
ATOM     28  C   UNL     1      -0.445   3.105   4.013  0.00  0.00    +0.376 C 
ATOM     29  O   UNL     1       0.386   3.643   3.320  0.00  0.00    -0.244 OA
ATOM     30  OXT UNL     1      -0.939   3.742   5.086  0.00  0.00    -0.244 OA
ENDBRANCH  27  28
BRANCH  27  31
ATOM     31  C   UNL     1      -0.624   0.772   4.834  0.00  0.00    +0.069 C 
BRANCH  31  32
ATOM     32  C   UNL     1      -1.214  -0.584   4.546  0.00  0.00    -0.045 A 
ATOM     33  C   UNL     1      -2.503  -0.878   4.952  0.00  0.00    +0.005 A 
ATOM     34  C   UNL     1      -3.047  -2.119   4.683  0.00  0.00    +0.020 A 
ATOM     35  C   UNL     1      -2.298  -3.072   4.016  0.00  0.00    +0.041 A 
ATOM     36  C   UNL     1      -1.006  -2.780   3.614  0.00  0.00    +0.020 A 
ATOM     37  C   UNL     1      -0.466  -1.536   3.879  0.00  0.00    +0.005 A 
ATOM     38 CL   UNL     1      -2.978  -4.635   3.682  0.00  0.00    -0.084 Cl
ENDBRANCH  31  32
ENDBRANCH  27  31
ENDBRANCH  25  27
ENDBRANCH  22  23
ENDBRANCH  12  22
TORSDOF 7
