REMARK  Name = ZINC05997298
REMARK  4 active torsions:
REMARK  status: ('A' for Active; 'I' for Inactive)
REMARK    1  A    between atoms: C_1  and  O_2
REMARK    2  A    between atoms: O_2  and  C_3
REMARK    3  A    between atoms: C_3  and  C_5
REMARK    4  A    between atoms: C_7  and  O_31
REMARK                            x       y       z     vdW  Elec       q    Type
REMARK                         _______ _______ _______ _____ _____    ______ ____
ROOT
ATOM      1  C   UNL     1       1.145   3.085   0.008  0.00  0.00    +0.129 C 
ATOM      2  C   UNL     1       1.286   1.562  -0.002  0.00  0.00    +0.129 C 
ATOM      3  C   UNL     1       2.063   1.117   1.240  0.00  0.00    +0.032 C 
ATOM      4  C   UNL     1       1.301   1.546   2.495  0.00  0.00    +0.004 C 
ATOM      5  C   UNL     1       1.156   3.069   2.511  0.00  0.00    -0.024 C 
ATOM      6  C   UNL     1       0.397   3.526   1.264  0.00  0.00    +0.005 C 
ATOM      7  C   UNL     1      -1.008   2.920   1.272  0.00  0.00    -0.005 C 
ATOM      8  C   UNL     1      -1.724   3.348   2.555  0.00  0.00    -0.020 C 
ATOM      9  C   UNL     1      -3.107   2.748   2.599  0.00  0.00    +0.006 A 
ATOM     10  C   UNL     1      -3.630   2.192   3.716  0.00  0.00    -0.022 A 
ATOM     11  C   UNL     1      -4.959   1.730   3.382  0.00  0.00    +0.003 A 
ATOM     12  C   UNL     1      -5.957   1.089   4.122  0.00  0.00    +0.010 A 
ATOM     13  C   UNL     1      -7.126   0.794   3.465  0.00  0.00    +0.001 A 
ATOM     14  C   UNL     1      -7.320   1.111   2.130  0.00  0.00    +0.002 A 
ATOM     15  C   UNL     1      -6.350   1.744   1.373  0.00  0.00    +0.026 A 
ATOM     16  C   UNL     1      -5.153   2.057   2.015  0.00  0.00    +0.047 A 
ATOM     17  N   UNL     1      -4.013   2.668   1.576  0.00  0.00    -0.359 N 
ATOM     18  H   UNL     1      -3.867   2.998   0.676  0.00  0.00    +0.166 HD
ATOM     19  C   UNL     1      -2.894   2.110   5.030  0.00  0.00    +0.019 C 
ATOM     20  C   UNL     1      -1.701   3.075   4.970  0.00  0.00    -0.073 C 
ATOM     21  C   UNL     1       0.371   3.484   3.760  0.00  0.00    -0.074 C 
ATOM     22  N   UNL     1      -0.956   2.833   3.709  0.00  0.00    +0.386 N 
ATOM     23  H   UNL     1      -0.824   1.821   3.594  0.00  0.00    -0.081 HD
ENDROOT
BRANCH   1  24
ATOM     24  C   UNL     1       0.378   3.525  -1.212  0.00  0.00    +0.313 C 
ATOM     25  O   UNL     1      -0.663   4.125  -1.087  0.00  0.00    -0.250 OA
BRANCH  24  27
ATOM     26  C   UNL     1       0.058   3.704  -3.567  0.00  0.00    +0.280 C 
ATOM     27  O   UNL     1       0.850   3.250  -2.438  0.00  0.00    -0.468 OA
ENDBRANCH  24  27
ENDBRANCH   1  24
BRANCH   2  28
ATOM     28  O   UNL     1      -0.011   0.963   0.007  0.00  0.00    -0.391 OA
ATOM     29  H   UNL     1       0.002  -0.004   0.002  0.00  0.00    +0.210 HD
ENDBRANCH   2  28
TORSDOF 3
