REMARK  Name = ZINC20358378
REMARK  8 active torsions:
REMARK  status: ('A' for Active; 'I' for Inactive)
REMARK    1  A    between atoms: C_5  and  O_7
REMARK    2  A    between atoms: O_7  and  C_8
REMARK    3  A    between atoms: C_17  and  O_29
REMARK    4  A    between atoms: C_18  and  C_19
REMARK    5  A    between atoms: C_19  and  N_20
REMARK    6  A    between atoms: N_23  and  C_26
REMARK    7  A    between atoms: C_26  and  C_27
REMARK    8  A    between atoms: C_27  and  O_28
REMARK                            x       y       z     vdW  Elec       q    Type
REMARK                         _______ _______ _______ _____ _____    ______ ____
ROOT
ATOM      1  C   UNL     1      -3.480  -1.032   4.117  0.00  0.00    +0.210 A 
ATOM      2  C   UNL     1      -2.527  -1.347   3.217  0.00  0.00    +0.245 A 
ATOM      3  O   UNL     1      -1.510  -0.527   2.922  0.00  0.00    -0.459 OA
ATOM      4  C   UNL     1      -1.361   0.679   3.505  0.00  0.00    +0.143 A 
ATOM      5  C   UNL     1      -2.298   1.113   4.461  0.00  0.00    +0.068 A 
ATOM      6  C   UNL     1      -3.421   0.220   4.793  0.00  0.00    +0.235 A 
ATOM      7  O   UNL     1      -4.265   0.539   5.614  0.00  0.00    -0.283 OA
ATOM      8  C   UNL     1      -2.155   2.360   5.071  0.00  0.00    +0.019 A 
ATOM      9  C   UNL     1      -1.101   3.161   4.736  0.00  0.00    +0.046 A 
ATOM     10  C   UNL     1      -0.165   2.737   3.795  0.00  0.00    +0.122 A 
ATOM     11  C   UNL     1      -0.295   1.505   3.177  0.00  0.00    +0.020 A 
ENDROOT
BRANCH  10  12
ATOM     12  O   UNL     1       0.882   3.542   3.478  0.00  0.00    -0.506 OA
ATOM     13  H   UNL     1       1.624   3.212   2.736  0.00  0.00    +0.292 HD
ENDBRANCH  10  12
BRANCH   1  14
ATOM     14  O   UNL     1      -4.492  -1.904   4.377  0.00  0.00    -0.448 OA
BRANCH  14  19
ATOM     15  C   UNL     1      -6.980  -0.576   2.078  0.00  0.00    +0.004 A 
ATOM     16  C   UNL     1      -8.072  -1.362   2.398  0.00  0.00    +0.001 A 
ATOM     17  C   UNL     1      -7.967  -2.329   3.381  0.00  0.00    +0.019 A 
ATOM     18  C   UNL     1      -6.769  -2.513   4.045  0.00  0.00    +0.060 A 
ATOM     19  C   UNL     1      -5.671  -1.725   3.725  0.00  0.00    +0.143 A 
ATOM     20  C   UNL     1      -5.782  -0.752   2.743  0.00  0.00    +0.047 A 
ATOM     21 BR   UNL     1      -6.625  -3.836   5.388  0.00  0.00    -0.046 Br
ENDBRANCH  14  19
ENDBRANCH   1  14
BRANCH  11  22
ATOM     22  C   UNL     1       0.720   1.060   2.155  0.00  0.00    -0.035 C 
BRANCH  22  23
ATOM     23  N   UNL     1       0.292   1.494   0.819  0.00  0.00    +0.384 N 
ATOM     24  C   UNL     1       1.361   1.289  -0.169  0.00  0.00    -0.063 C 
ATOM     25  C   UNL     1       0.850   1.678  -1.558  0.00  0.00    +0.066 C 
ATOM     26  N   UNL     1       0.413   3.081  -1.542  0.00  0.00    -0.304 NA
ATOM     27  C   UNL     1      -0.656   3.285  -0.555  0.00  0.00    +0.066 C 
ATOM     28  C   UNL     1      -0.146   2.896   0.835  0.00  0.00    -0.063 C 
ATOM     29  H   UNL     1      -0.567   0.873   0.523  0.00  0.00    -0.081 HD
BRANCH  26  30
ATOM     30  C   UNL     1      -0.014   3.515  -2.878  0.00  0.00    +0.112 C 
BRANCH  30  31
ATOM     31  C   UNL     1      -0.546   4.947  -2.804  0.00  0.00    +0.171 C 
BRANCH  31  32
ATOM     32  O   UNL     1       0.497   5.821  -2.365  0.00  0.00    -0.394 OA
ATOM     33  H   UNL     1       0.301   6.897  -2.251  0.00  0.00    +0.209 HD
ENDBRANCH  31  32
ENDBRANCH  30  31
ENDBRANCH  26  30
ENDBRANCH  22  23
ENDBRANCH  11  22
TORSDOF 8
