REMARK  Name = ZINC40826712
REMARK  7 active torsions:
REMARK  status: ('A' for Active; 'I' for Inactive)
REMARK    1  A    between atoms: C_1  and  C_2
REMARK    2  A    between atoms: C_6  and  C_12
REMARK    3  A    between atoms: C_10  and  C_11
REMARK    4  A    between atoms: C_12  and  C_13
REMARK    5  A    between atoms: N_15  and  N_16
REMARK    6  A    between atoms: C_23  and  C_38
REMARK    7  A    between atoms: C_24  and  C_26
REMARK                            x       y       z     vdW  Elec       q    Type
REMARK                         _______ _______ _______ _____ _____    ______ ____
ROOT
ATOM      1  N   UNL     1       3.022  -6.911  -2.446  0.00  0.00    -0.184 NA
ATOM      2  C   UNL     1       3.272  -7.806  -3.351  0.00  0.00    +0.070 C 
ATOM      3  C   UNL     1       2.171  -8.584  -4.057  0.00  0.00    +0.058 C 
ATOM      4  C   UNL     1       2.608 -10.049  -4.159  0.00  0.00    +0.014 C 
ATOM      5  C   UNL     1       3.847 -10.182  -5.048  0.00  0.00    +0.075 C 
ATOM      6  C   UNL     1       4.919  -9.242  -4.558  0.00  0.00    +0.115 A 
ATOM      7  C   UNL     1       4.649  -8.142  -3.776  0.00  0.00    +0.042 A 
ATOM      8  C   UNL     1       5.867  -7.502  -3.514  0.00  0.00    +0.009 A 
ATOM      9  C   UNL     1       6.829  -8.234  -4.153  0.00  0.00    +0.193 A 
ATOM     10  O   UNL     1       6.232  -9.283  -4.770  0.00  0.00    -0.454 OA
ATOM     11  C   UNL     1       6.076  -6.256  -2.692  0.00  0.00    +0.048 C 
ENDROOT
BRANCH   9  12
ATOM     12  C   UNL     1       8.266  -7.941  -4.160  0.00  0.00    +0.286 C 
ATOM     13  O   UNL     1       8.677  -6.902  -3.677  0.00  0.00    -0.266 OA
ATOM     14  N   UNL     1       9.131  -8.821  -4.701  0.00  0.00    -0.265 N 
ATOM     15  C   UNL     1       8.646 -10.070  -5.304  0.00  0.00    +0.114 C 
ATOM     16  C   UNL     1       9.556 -11.207  -4.822  0.00  0.00    +0.024 C 
ATOM     17  C   UNL     1      10.973 -10.958  -5.336  0.00  0.00    +0.038 C 
ATOM     18  C   UNL     1      11.420  -9.561  -4.994  0.00  0.00    -0.026 A 
ATOM     19  C   UNL     1      10.507  -8.558  -4.703  0.00  0.00    +0.040 A 
ATOM     20  C   UNL     1      10.951  -7.276  -4.401  0.00  0.00    +0.024 A 
ATOM     21  C   UNL     1      12.304  -6.997  -4.394  0.00  0.00    +0.002 A 
ATOM     22  C   UNL     1      13.215  -7.995  -4.688  0.00  0.00    +0.000 A 
ATOM     23  C   UNL     1      12.775  -9.276  -4.979  0.00  0.00    +0.005 A 
ENDBRANCH   9  12
BRANCH   1  26
ATOM     24  C   UNL     1       1.437  -5.704  -1.143  0.00  0.00    +0.237 C 
ATOM     25  O   UNL     1       2.350  -5.106  -0.612  0.00  0.00    -0.274 OA
ATOM     26  N   UNL     1       1.697  -6.634  -2.083  0.00  0.00    -0.206 N 
ATOM     27  H   UNL     1       0.968  -7.112  -2.507  0.00  0.00    +0.177 HD
BRANCH  24  28
ATOM     28  C   UNL     1       0.013  -5.406  -0.751  0.00  0.00    +0.136 C 
BRANCH  28  34
ATOM     29  C   UNL     1       0.104   1.361   0.538  0.00  0.00    +0.044 C 
ATOM     30  C   UNL     1       0.079  -0.139   0.391  0.00  0.00    -0.044 A 
ATOM     31  C   UNL     1       0.113  -0.705  -0.875  0.00  0.00    +0.004 A 
ATOM     32  C   UNL     1       0.090  -2.064  -1.027  0.00  0.00    +0.012 A 
ATOM     33  C   UNL     1       0.033  -2.884   0.099  0.00  0.00    +0.024 A 
ATOM     34  C   UNL     1      -0.004  -4.336   0.310  0.00  0.00    +0.007 A 
ATOM     35  C   UNL     1      -0.055  -4.519   1.636  0.00  0.00    +0.200 A 
ATOM     36  O   UNL     1      -0.053  -3.333   2.268  0.00  0.00    -0.462 OA
ATOM     37  C   UNL     1      -0.001  -2.317   1.384  0.00  0.00    +0.138 A 
ATOM     38  C   UNL     1       0.028  -0.934   1.516  0.00  0.00    -0.005 A 
ATOM     39  C   UNL     1      -0.003  -0.305   2.885  0.00  0.00    +0.048 C 
ENDBRANCH  28  34
ENDBRANCH  24  28
ENDBRANCH   1  26
TORSDOF 4
