REMARK  Name = ZINC66901084
REMARK  7 active torsions:
REMARK  status: ('A' for Active; 'I' for Inactive)
REMARK    1  A    between atoms: C_5  and  C_7
REMARK    2  A    between atoms: C_8  and  S_9
REMARK    3  A    between atoms: S_9  and  N_12
REMARK    4  A    between atoms: N_12  and  C_13
REMARK    5  A    between atoms: C_13  and  C_14
REMARK    6  A    between atoms: C_14  and  C_16
REMARK    7  A    between atoms: C_14  and  N_21
REMARK                            x       y       z     vdW  Elec       q    Type
REMARK                         _______ _______ _______ _____ _____    ______ ____
ROOT
ATOM      1  N   UNL     1      -2.769  -5.098   0.563  0.00  0.00    -0.192 NA
ATOM      2  H   UNL     1      -3.232  -5.950   0.530  0.00  0.00    +0.148 HD
ENDROOT
BRANCH   1   3
ATOM      3  S   UNL     1      -2.818  -4.076  -0.739  0.00  0.00    +0.052 S 
ATOM      4  O   UNL     1      -3.164  -2.793  -0.235  0.00  0.00    -0.154 OA
ATOM      5  O   UNL     1      -3.583  -4.733  -1.741  0.00  0.00    -0.154 OA
BRANCH   3   7
ATOM      6  C   UNL     1      -0.888  -4.406  -2.572  0.00  0.00    +0.030 C 
ATOM      7  C   UNL     1      -1.175  -3.947  -1.362  0.00  0.00    +0.153 C 
BRANCH   6  12
ATOM      8  C   UNL     1       2.775  -3.613  -2.812  0.00  0.00    +0.001 A 
ATOM      9  C   UNL     1       3.073  -4.092  -4.076  0.00  0.00    +0.001 A 
ATOM     10  C   UNL     1       2.087  -4.674  -4.851  0.00  0.00    +0.020 A 
ATOM     11  C   UNL     1       0.797  -4.780  -4.369  0.00  0.00    +0.048 A 
ATOM     12  C   UNL     1       0.490  -4.297  -3.095  0.00  0.00    -0.005 A 
ATOM     13  C   UNL     1       1.491  -3.712  -2.318  0.00  0.00    +0.009 A 
ATOM     14 CL   UNL     1      -0.440  -5.510  -5.344  0.00  0.00    -0.083 Cl
ENDBRANCH   6  12
ENDBRANCH   3   7
ENDBRANCH   1   3
BRANCH   1  15
ATOM     15  C   UNL     1      -2.025  -4.716   1.766  0.00  0.00    +0.098 C 
BRANCH  15  16
ATOM     16  C   UNL     1      -2.427  -5.630   2.926  0.00  0.00    +0.015 C 
BRANCH  16  17
ATOM     17  N   UNL     1      -1.601  -5.322   4.101  0.00  0.00    +0.387 N 
ATOM     18  C   UNL     1      -1.957  -6.222   5.228  0.00  0.00    -0.078 C 
ATOM     19  C   UNL     1      -0.697  -6.179   6.128  0.00  0.00    -0.020 C 
ATOM     20  C   UNL     1       0.459  -6.127   5.102  0.00  0.00    -0.020 C 
ATOM     21  C   UNL     1      -0.176  -5.587   3.807  0.00  0.00    -0.078 C 
ATOM     22  H   UNL     1      -1.727  -4.358   4.372  0.00  0.00    -0.081 HD
ENDBRANCH  16  17
BRANCH  16  23
ATOM     23  C   UNL     1      -3.880  -5.409   3.260  0.00  0.00    +0.093 A 
ATOM     24  C   UNL     1      -4.903  -6.193   2.876  0.00  0.00    +0.043 A 
ATOM     25  C   UNL     1      -6.080  -5.618   3.408  0.00  0.00    +0.041 A 
ATOM     26  C   UNL     1      -5.706  -4.518   4.085  0.00  0.00    +0.195 A 
ATOM     27  O   UNL     1      -4.371  -4.399   3.997  0.00  0.00    -0.469 OA
ENDBRANCH  16  23
ENDBRANCH  15  16
ENDBRANCH   1  15
TORSDOF 7
