REMARK  Name = ZINC11986923
REMARK  4 active torsions:
REMARK  status: ('A' for Active; 'I' for Inactive)
REMARK    1  A    between atoms: C_1  and  N_2
REMARK    2  A    between atoms: N_2  and  C_3
REMARK    3  A    between atoms: N_2  and  C_4
REMARK    4  A    between atoms: C_5  and  C_14
REMARK                            x       y       z     vdW  Elec       q    Type
REMARK                         _______ _______ _______ _____ _____    ______ ____
ROOT
ATOM      1  C   UNL     1       0.049  -0.014   0.024  0.00  0.00    +0.113 A 
ATOM      2  C   UNL     1       1.271  -0.728  -0.020  0.00  0.00    +0.102 A 
ATOM      3  C   UNL     1       2.470  -0.026  -0.022  0.00  0.00    +0.028 A 
ATOM      4  C   UNL     1       2.416   1.378   0.020  0.00  0.00    +0.000 A 
ATOM      5  C   UNL     1       3.590   2.150   0.020  0.00  0.00    +0.025 A 
ATOM      6  C   UNL     1       3.503   3.509   0.062  0.00  0.00    +0.019 A 
ATOM      7  C   UNL     1       2.263   4.144   0.103  0.00  0.00    +0.017 A 
ATOM      8  C   UNL     1       1.106   3.427   0.104  0.00  0.00    +0.027 A 
ATOM      9  C   UNL     1       1.154   2.023   0.062  0.00  0.00    +0.048 A 
ATOM     10 BR   UNL     1       5.084   4.546   0.063  0.00  0.00    -0.050 Br
ATOM     11  N   UNL     1      -0.043   1.338   0.065  0.00  0.00    -0.342 N 
ATOM     12  H   UNL     1      -0.949   1.822   0.096  0.00  0.00    +0.167 HD
ENDROOT
BRANCH   1  14
ATOM     13  C   UNL     1      -1.870  -0.511   1.286  0.00  0.00    +0.130 C 
ATOM     14  N   UNL     1      -1.143  -0.713   0.025  0.00  0.00    -0.322 N 
ATOM     15  C   UNL     1      -1.975  -0.338  -1.126  0.00  0.00    +0.130 C 
ENDBRANCH   1  14
BRANCH   2  16
ATOM     16  C   UNL     1       1.271  -2.201  -0.063  0.00  0.00    +0.390 C 
ATOM     17  O   UNL     1       0.221  -2.805  -0.160  0.00  0.00    -0.240 OA
ATOM     18  O   UNL     1       2.434  -2.877   0.004  0.00  0.00    -0.240 OA
ENDBRANCH   2  16
TORSDOF 2
