REMARK  Name = ZINC54863800
REMARK  3 active torsions:
REMARK  status: ('A' for Active; 'I' for Inactive)
REMARK    1  A    between atoms: C_1  and  N_2
REMARK    2  A    between atoms: N_2  and  C_3
REMARK    3  A    between atoms: C_3  and  C_4
REMARK                            x       y       z     vdW  Elec       q    Type
REMARK                         _______ _______ _______ _____ _____    ______ ____
ROOT
ATOM      1  C   UNL     1      -0.018   1.461   0.010  0.00  0.00    +0.131 C 
ATOM      2  N   UNL     1       0.002  -0.004   0.002  0.00  0.00    -0.308 N 
ATOM      3  C   UNL     1       0.000  -0.686  -1.194  0.00  0.00    +0.162 A 
ATOM      4  N   UNL     1      -0.013  -0.187  -2.421  0.00  0.00    -0.229 NA
ATOM      5  C   UNL     1      -0.012  -0.952  -3.485  0.00  0.00    +0.061 A 
ATOM      6  C   UNL     1       0.006  -2.325  -3.209  0.00  0.00    +0.079 A 
ATOM      7  S   UNL     1       0.021  -2.354  -1.443  0.00  0.00    -0.049 S 
ATOM      8  C   UNL     1       0.018  -3.338  -4.159  0.00  0.00    +0.172 C 
ATOM      9  O   UNL     1       0.012  -4.510  -3.837  0.00  0.00    -0.291 OA
ATOM     10  C   UNL     1       0.040  -2.918  -5.618  0.00  0.00    +0.080 C 
ATOM     11  C   UNL     1      -0.695  -1.586  -5.774  0.00  0.00    +0.014 C 
ATOM     12  C   UNL     1      -0.032  -0.490  -4.935  0.00  0.00    +0.057 C 
ENDROOT
BRANCH   2  13
ATOM     13  C   UNL     1       0.024  -0.743   1.267  0.00  0.00    +0.141 C 
BRANCH  13  14
ATOM     14  C   UNL     1      -1.389  -1.016   1.714  0.00  0.00    -0.030 A 
ATOM     15  C   UNL     1      -2.047  -0.105   2.518  0.00  0.00    +0.006 A 
ATOM     16  C   UNL     1      -3.343  -0.354   2.928  0.00  0.00    +0.015 A 
ATOM     17  C   UNL     1      -3.982  -1.516   2.533  0.00  0.00    +0.018 A 
ATOM     18  C   UNL     1      -3.323  -2.428   1.728  0.00  0.00    +0.015 A 
ATOM     19  C   UNL     1      -2.029  -2.175   1.314  0.00  0.00    +0.006 A 
ATOM     20 BR   UNL     1      -5.755  -1.859   3.094  0.00  0.00    -0.050 Br
ENDBRANCH  13  14
ENDBRANCH   2  13
TORSDOF 2
