REMARK  Name = ZINC06143126
REMARK  7 active torsions:
REMARK  status: ('A' for Active; 'I' for Inactive)
REMARK    1  A    between atoms: C_1  and  C_2
REMARK    2  A    between atoms: C_5  and  N_9
REMARK    3  A    between atoms: C_6  and  C_8
REMARK    4  A    between atoms: C_19  and  N_20
REMARK    5  A    between atoms: N_20  and  C_21
REMARK    6  A    between atoms: C_24  and  S_27
REMARK    7  A    between atoms: S_27  and  N_30
REMARK                            x       y       z     vdW  Elec       q    Type
REMARK                         _______ _______ _______ _____ _____    ______ ____
ROOT
ATOM      1  N   UNL     1       0.058  -4.172   0.005  0.00  0.00    -0.202 N 
ATOM      2  C   UNL     1      -1.113  -4.830  -0.030  0.00  0.00    +0.258 C 
ATOM      3  O   UNL     1      -2.153  -4.199  -0.026  0.00  0.00    -0.269 OA
ATOM      4  C   UNL     1      -1.158  -6.297  -0.073  0.00  0.00    +0.046 A 
ATOM      5  C   UNL     1      -2.371  -6.986  -0.110  0.00  0.00    +0.014 A 
ATOM      6  C   UNL     1      -2.371  -8.364  -0.150  0.00  0.00    +0.001 A 
ATOM      7  C   UNL     1      -1.179  -9.073  -0.154  0.00  0.00    +0.001 A 
ATOM      8  C   UNL     1       0.031  -8.411  -0.117  0.00  0.00    +0.009 A 
ATOM      9  C   UNL     1       0.052  -7.021  -0.077  0.00  0.00    +0.000 A 
ATOM     10  C   UNL     1       1.320  -6.263  -0.037  0.00  0.00    +0.059 C 
ATOM     11  C   UNL     1       2.535  -6.913  -0.039  0.00  0.00    +0.085 C 
ATOM     12  C   UNL     1       1.246  -4.798  -0.002  0.00  0.00    +0.259 C 
ATOM     13  O   UNL     1       2.272  -4.144   0.026  0.00  0.00    -0.269 OA
ENDROOT
BRANCH   1  18
ATOM     14  C   UNL     1      -0.021   1.500   0.163  0.00  0.00    +0.044 C 
ATOM     15  C   UNL     1      -0.000  -0.007   0.121  0.00  0.00    -0.050 A 
ATOM     16  C   UNL     1       0.021  -0.663  -1.096  0.00  0.00    +0.005 A 
ATOM     17  C   UNL     1       0.041  -2.043  -1.138  0.00  0.00    +0.024 A 
ATOM     18  C   UNL     1       0.039  -2.772   0.044  0.00  0.00    +0.047 A 
ATOM     19  C   UNL     1       0.018  -2.111   1.264  0.00  0.00    -0.028 A 
ATOM     20  C   UNL     1       0.003  -0.730   1.300  0.00  0.00    +0.008 A 
ATOM     21  C   UNL     1       0.016  -2.898   2.549  0.00  0.00    +0.046 C 
ENDBRANCH   1  18
BRANCH  11  22
ATOM     22  N   UNL     1       3.687  -6.198  -0.138  0.00  0.00    -0.320 N 
ATOM     23  H   UNL     1       3.659  -5.228  -0.132  0.00  0.00    +0.152 HD
BRANCH  22  24
ATOM     24  C   UNL     1       4.913  -6.860  -0.248  0.00  0.00    +0.031 A 
ATOM     25  C   UNL     1       4.955  -8.249  -0.262  0.00  0.00    +0.025 A 
ATOM     26  C   UNL     1       6.168  -8.900  -0.372  0.00  0.00    +0.030 A 
ATOM     27  C   UNL     1       7.339  -8.172  -0.467  0.00  0.00    +0.105 A 
ATOM     28  C   UNL     1       7.301  -6.790  -0.453  0.00  0.00    +0.030 A 
ATOM     29  C   UNL     1       6.091  -6.132  -0.349  0.00  0.00    +0.025 A 
BRANCH  27  30
ATOM     30  S   UNL     1       8.885  -9.007  -0.605  0.00  0.00    +0.056 S 
ATOM     31  O   UNL     1       9.877  -8.107  -0.130  0.00  0.00    -0.153 OA
ATOM     32  O   UNL     1       8.699 -10.300  -0.046  0.00  0.00    -0.153 OA
BRANCH  30  33
ATOM     33  N   UNL     1       9.179  -9.227  -2.219  0.00  0.00    -0.204 NA
ATOM     34  H   UNL     1      10.092  -9.253  -2.547  0.00  0.00    +0.144 HD
ATOM     35  H   UNL     1       8.439  -9.331  -2.838  0.00  0.00    +0.144 HD
ENDBRANCH  30  33
ENDBRANCH  27  30
ENDBRANCH  22  24
ENDBRANCH  11  22
TORSDOF 5
