REMARK  Name = ZINC22453139
REMARK  6 active torsions:
REMARK  status: ('A' for Active; 'I' for Inactive)
REMARK    1  A    between atoms: C_1  and  C_2
REMARK    2  A    between atoms: C_5  and  S_8
REMARK    3  A    between atoms: S_8  and  C_9
REMARK    4  A    between atoms: C_9  and  C_10
REMARK    5  A    between atoms: C_19  and  C_27
REMARK    6  A    between atoms: C_24  and  C_26
REMARK                            x       y       z     vdW  Elec       q    Type
REMARK                         _______ _______ _______ _____ _____    ______ ____
ROOT
ATOM      1  C   UNL     1      -1.673   1.489  -2.856  0.00  0.00    +0.060 A 
ATOM      2  C   UNL     1      -1.587   0.961  -4.112  0.00  0.00    +0.094 A 
ATOM      3  C   UNL     1      -0.693  -0.098  -4.344  0.00  0.00    +0.253 A 
ATOM      4  O   UNL     1      -0.590  -0.594  -5.454  0.00  0.00    -0.268 OA
ATOM      5  N   UNL     1       0.056  -0.553  -3.316  0.00  0.00    -0.295 N 
ATOM      6  H   UNL     1       0.769  -1.375  -3.476  0.00  0.00    +0.172 HD
ATOM      7  C   UNL     1      -0.076   0.009  -2.084  0.00  0.00    +0.199 A 
ATOM      8  N   UNL     1      -0.917   1.002  -1.875  0.00  0.00    -0.220 NA
ATOM      9  N   UNL     1       0.682  -0.460  -1.046  0.00  0.00    -0.296 N 
ATOM     10  C   UNL     1       2.115  -0.320  -1.335  0.00  0.00    +0.073 C 
ATOM     11  C   UNL     1       2.927  -0.718  -0.100  0.00  0.00    +0.022 C 
ATOM     12  C   UNL     1       2.602  -2.167   0.273  0.00  0.00    +0.004 C 
ATOM     13  C   UNL     1       1.097  -2.296   0.522  0.00  0.00    +0.022 C 
ATOM     14  C   UNL     1       0.338  -1.853  -0.731  0.00  0.00    +0.073 C 
ATOM     15  C   UNL     1      -1.167  -1.962  -0.480  0.00  0.00    +0.028 C 
ATOM     16  C   UNL     1       2.421   1.134  -1.699  0.00  0.00    +0.028 C 
ENDROOT
BRANCH   1  17
ATOM     17  C   UNL     1      -2.624   2.625  -2.581  0.00  0.00    +0.130 C 
BRANCH  17  18
ATOM     18  S   UNL     1      -4.064   2.001  -1.671  0.00  0.00    -0.119 S 
BRANCH  18  23
ATOM     19  C   UNL     1      -7.501   6.894  -0.844  0.00  0.00    +0.044 C 
ATOM     20  C   UNL     1      -6.643   5.672  -1.050  0.00  0.00    -0.050 A 
ATOM     21  C   UNL     1      -7.061   4.446  -0.566  0.00  0.00    +0.004 A 
ATOM     22  C   UNL     1      -6.277   3.325  -0.753  0.00  0.00    +0.015 A 
ATOM     23  C   UNL     1      -5.067   3.429  -1.429  0.00  0.00    +0.008 A 
ATOM     24  C   UNL     1      -4.648   4.665  -1.909  0.00  0.00    +0.015 A 
ATOM     25  C   UNL     1      -5.439   5.781  -1.723  0.00  0.00    +0.004 A 
ENDBRANCH  18  23
ENDBRANCH  17  18
ENDBRANCH   1  17
TORSDOF 3
