REMARK  Name = ZINC12553866
REMARK  5 active torsions:
REMARK  status: ('A' for Active; 'I' for Inactive)
REMARK    1  A    between atoms: C_4  and  N_20
REMARK    2  A    between atoms: C_5  and  N_7
REMARK    3  A    between atoms: N_7  and  C_8
REMARK    4  A    between atoms: C_8  and  C_9
REMARK    5  A    between atoms: N_11  and  C_12
REMARK                            x       y       z     vdW  Elec       q    Type
REMARK                         _______ _______ _______ _____ _____    ______ ____
ROOT
ATOM      1  N   UNL     1      -2.641   7.876  -0.245  0.00  0.00    -0.334 N 
ATOM      2  H   UNL     1      -3.372   7.238  -0.225  0.00  0.00    +0.147 HD
ENDROOT
BRANCH   1   7
ATOM      3  C   UNL     1      -2.133  11.510  -0.482  0.00  0.00    +0.002 A 
ATOM      4  C   UNL     1      -3.440  11.957  -0.559  0.00  0.00    +0.002 A 
ATOM      5  C   UNL     1      -4.486  11.053  -0.532  0.00  0.00    +0.025 A 
ATOM      6  C   UNL     1      -4.227   9.695  -0.428  0.00  0.00    +0.057 A 
ATOM      7  C   UNL     1      -2.909   9.245  -0.351  0.00  0.00    +0.049 A 
ATOM      8  C   UNL     1      -1.866  10.158  -0.373  0.00  0.00    +0.025 A 
BRANCH   6   9
ATOM      9  N   UNL     1      -5.286   8.778  -0.400  0.00  0.00    -0.270 N 
ATOM     10  C   UNL     1      -5.950   8.316   0.825  0.00  0.00    +0.114 C 
ATOM     11  C   UNL     1      -7.287   7.695   0.357  0.00  0.00    +0.029 C 
ATOM     12  C   UNL     1      -6.948   7.277  -1.092  0.00  0.00    +0.098 C 
ATOM     13  C   UNL     1      -5.821   8.203  -1.491  0.00  0.00    +0.220 C 
ATOM     14  O   UNL     1      -5.452   8.399  -2.631  0.00  0.00    -0.275 OA
ENDBRANCH   6   9
ENDBRANCH   1   7
BRANCH   1  15
ATOM     15  C   UNL     1      -1.256   7.405  -0.164  0.00  0.00    +0.198 C 
BRANCH  15  16
ATOM     16  C   UNL     1      -1.242   5.902  -0.058  0.00  0.00    +0.234 C 
ATOM     17  O   UNL     1      -2.286   5.284  -0.050  0.00  0.00    -0.274 OA
ATOM     18  N   UNL     1      -0.069   5.243   0.029  0.00  0.00    -0.284 N 
ATOM     19  H   UNL     1       0.761   5.739   0.101  0.00  0.00    +0.155 HD
BRANCH  18  20
ATOM     20  C   UNL     1      -0.050   3.844   0.017  0.00  0.00    +0.036 A 
ATOM     21  C   UNL     1      -0.989   3.142  -0.727  0.00  0.00    +0.043 A 
ATOM     22  C   UNL     1      -0.968   1.760  -0.738  0.00  0.00    +0.044 A 
ATOM     23  C   UNL     1      -0.012   1.076  -0.007  0.00  0.00    +0.040 A 
ATOM     24  C   UNL     1       0.921   1.773   0.740  0.00  0.00    +0.044 A 
ATOM     25  C   UNL     1       0.908   3.155   0.749  0.00  0.00    +0.043 A 
ATOM     26 CL   UNL     1       2.114   0.911   1.661  0.00  0.00    -0.083 Cl
ATOM     27 CL   UNL     1      -2.141   0.882  -1.668  0.00  0.00    -0.083 Cl
ENDBRANCH  18  20
ENDBRANCH  15  16
ENDBRANCH   1  15
TORSDOF 5
