REMARK  Name = ZINC35780902
REMARK  13 active torsions:
REMARK  status: ('A' for Active; 'I' for Inactive)
REMARK    1  A    between atoms: C_1  and  C_2
REMARK    2  A    between atoms: N_8  and  C_9
REMARK    3  A    between atoms: C_10  and  C_20
REMARK    4  A    between atoms: C_11  and  C_14
REMARK    5  A    between atoms: C_20  and  N_21
REMARK    6  A    between atoms: N_21  and  C_22
REMARK    7  A    between atoms: N_21  and  C_29
REMARK    8  A    between atoms: C_22  and  C_23
REMARK    9  A    between atoms: C_29  and  C_30
REMARK   10  A    between atoms: C_30  and  C_32
REMARK   11  A    between atoms: C_30  and  O_36
REMARK   12  A    between atoms: C_32  and  C_33
REMARK   13  A    between atoms: C_33  and  C_34
REMARK                            x       y       z     vdW  Elec       q    Type
REMARK                         _______ _______ _______ _____ _____    ______ ____
ROOT
ATOM      1  C   UNL     1       2.243   0.784   1.161  0.00  0.00    +0.222 A 
ATOM      2  C   UNL     1       2.448   0.266   2.399  0.00  0.00    +0.025 A 
ATOM      3  C   UNL     1       2.154   1.270   3.345  0.00  0.00    +0.117 A 
ATOM      4  N   UNL     1       1.787   2.348   2.690  0.00  0.00    -0.076 NA
ATOM      5  O   UNL     1       1.842   2.059   1.305  0.00  0.00    -0.339 OA
ENDROOT
BRANCH   1  12
ATOM      6  C   UNL     1       0.073  -0.535   0.234  0.00  0.00    +0.028 C 
ATOM      7  C   UNL     1       1.342  -0.705  -0.603  0.00  0.00    +0.073 C 
ATOM      8  C   UNL     1       1.073  -0.251  -2.042  0.00  0.00    +0.022 C 
ATOM      9  C   UNL     1       2.380  -0.292  -2.838  0.00  0.00    +0.003 C 
ATOM     10  C   UNL     1       3.393   0.668  -2.209  0.00  0.00    +0.019 C 
ATOM     11  C   UNL     1       3.688   0.224  -0.773  0.00  0.00    +0.108 C 
ATOM     12  N   UNL     1       2.420   0.118  -0.038  0.00  0.00    -0.296 N 
ENDBRANCH   1  12
BRANCH   3  13
ATOM     13  C   UNL     1       2.244   1.133   4.820  0.00  0.00    +0.004 A 
ATOM     14  C   UNL     1       1.744  -0.006   5.448  0.00  0.00    +0.010 A 
ATOM     15  C   UNL     1       1.831  -0.129   6.820  0.00  0.00    +0.001 A 
ATOM     16  C   UNL     1       2.413   0.876   7.572  0.00  0.00    +0.000 A 
ATOM     17  C   UNL     1       2.910   2.009   6.953  0.00  0.00    +0.001 A 
ATOM     18  C   UNL     1       2.834   2.140   5.581  0.00  0.00    +0.010 A 
ENDBRANCH   3  13
BRANCH   2  19
ATOM     19  C   UNL     1       2.908  -1.135   2.708  0.00  0.00    -0.035 C 
BRANCH  19  20
ATOM     20  N   UNL     1       4.372  -1.203   2.607  0.00  0.00    +0.386 N 
ATOM     21  H   UNL     1       4.663  -0.870   1.700  0.00  0.00    -0.081 HD
BRANCH  20  22
ATOM     22  C   UNL     1       4.811  -2.595   2.780  0.00  0.00    -0.046 C 
BRANCH  22  23
ATOM     23  C   UNL     1       4.204  -3.462   1.675  0.00  0.00    +0.102 C 
ATOM     24  C   UNL     1       4.711  -4.914   1.812  0.00  0.00    +0.032 C 
ATOM     25  C   UNL     1       4.926  -5.329   0.331  0.00  0.00    +0.030 C 
ATOM     26  C   UNL     1       5.387  -3.985  -0.287  0.00  0.00    +0.160 C 
ATOM     27  O   UNL     1       4.619  -2.976   0.393  0.00  0.00    -0.378 OA
ENDBRANCH  22  23
ENDBRANCH  20  22
BRANCH  20  28
ATOM     28  C   UNL     1       4.974  -0.366   3.653  0.00  0.00    -0.047 C 
BRANCH  28  29
ATOM     29  C   UNL     1       6.484  -0.272   3.425  0.00  0.00    +0.098 C 
BRANCH  29  30
ATOM     30  O   UNL     1       7.083  -1.547   3.668  0.00  0.00    -0.394 OA
ATOM     31  H   UNL     1       6.950  -1.878   4.567  0.00  0.00    +0.210 HD
ENDBRANCH  29  30
BRANCH  29  32
ATOM     32  C   UNL     1       7.081   0.762   4.381  0.00  0.00    +0.033 C 
BRANCH  32  33
ATOM     33  C   UNL     1       8.568   0.947   4.069  0.00  0.00    +0.029 C 
BRANCH  33  34
ATOM     34  C   UNL     1       9.155   1.967   5.011  0.00  0.00    -0.034 C 
ATOM     35  C   UNL     1      10.202   1.661   5.737  0.00  0.00    +0.004 C 
ENDBRANCH  33  34
ENDBRANCH  32  33
ENDBRANCH  29  32
ENDBRANCH  28  29
ENDBRANCH  20  28
ENDBRANCH  19  20
ENDBRANCH   2  19
TORSDOF 12
