REMARK  Name = ZINC43548629
REMARK  10 active torsions:
REMARK  status: ('A' for Active; 'I' for Inactive)
REMARK    1  A    between atoms: C_1  and  C_2
REMARK    2  A    between atoms: C_2  and  C_3
REMARK    3  A    between atoms: C_3  and  C_4
REMARK    4  A    between atoms: C_4  and  N_5
REMARK    5  A    between atoms: C_12  and  C_36
REMARK    6  A    between atoms: C_15  and  C_25
REMARK    7  A    between atoms: C_17  and  O_24
REMARK    8  A    between atoms: C_21  and  C_23
REMARK    9  A    between atoms: C_25  and  C_27
REMARK   10  A    between atoms: C_25  and  C_28
REMARK                            x       y       z     vdW  Elec       q    Type
REMARK                         _______ _______ _______ _____ _____    ______ ____
ROOT
ATOM      1  N   UNL     1       1.834  -2.647  -2.874  0.00  0.00    -0.325 N 
ATOM      2  C   UNL     1       1.898  -4.023  -3.025  0.00  0.00    +0.136 A 
ATOM      3  N   UNL     1       2.415  -4.713  -4.018  0.00  0.00    -0.340 N 
ATOM      4  C   UNL     1       2.406  -6.044  -4.029  0.00  0.00    +0.031 A 
ATOM      5  C   UNL     1       1.825  -6.620  -2.947  0.00  0.00    +0.013 A 
ATOM      6  S   UNL     1       1.338  -5.219  -1.979  0.00  0.00    -0.059 S 
ATOM      7  C   UNL     1       1.658  -8.074  -2.668  0.00  0.00    +0.051 C 
ATOM      8  C   UNL     1       2.582  -8.866  -3.612  0.00  0.00    -0.022 C 
ATOM      9  C   UNL     1       2.116 -10.329  -3.611  0.00  0.00    +0.008 C 
ATOM     10  C   UNL     1       0.637 -10.379  -4.002  0.00  0.00    +0.007 C 
ATOM     11  C   UNL     1       0.448  -9.789  -5.400  0.00  0.00    +0.029 C 
ATOM     12  C   UNL     1       0.947  -8.341  -5.422  0.00  0.00    +0.123 C 
ATOM     13  C   UNL     1       2.424  -8.316  -5.033  0.00  0.00    +0.033 C 
ATOM     14  C   UNL     1       2.988  -6.904  -5.141  0.00  0.00    +0.039 C 
ATOM     15  C   UNL     1       4.511  -6.950  -5.006  0.00  0.00    +0.014 C 
ATOM     16  C   UNL     1       4.038  -8.755  -3.154  0.00  0.00    +0.012 C 
ATOM     17  H   UNL     1       2.200  -2.066  -3.559  0.00  0.00    +0.148 HD
ATOM     18  H   UNL     1       2.815  -4.239  -4.764  0.00  0.00    +0.167 HD
ENDROOT
BRANCH  12  19
ATOM     19  O   UNL     1       0.192  -7.562  -4.492  0.00  0.00    -0.391 OA
ATOM     20  H   UNL     1      -0.757  -7.539  -4.677  0.00  0.00    +0.210 HD
ENDBRANCH  12  19
BRANCH  11  21
ATOM     21  C   UNL     1      -1.036  -9.821  -5.770  0.00  0.00    +0.078 C 
ATOM     22  C   UNL     1      -1.535 -11.267  -5.754  0.00  0.00    +0.017 C 
BRANCH  21  23
ATOM     23  C   UNL     1      -1.223  -9.240  -7.148  0.00  0.00    +0.219 C 
ATOM     24  O   UNL     1      -0.305  -9.252  -7.940  0.00  0.00    -0.275 OA
ATOM     25  N   UNL     1      -2.411  -8.709  -7.499  0.00  0.00    -0.297 N 
ATOM     26  C   UNL     1      -3.502  -8.578  -6.521  0.00  0.00    +0.136 C 
ATOM     27  C   UNL     1      -4.025  -7.138  -6.569  0.00  0.00    +0.179 C 
ATOM     28  O   UNL     1      -4.340  -6.796  -7.921  0.00  0.00    -0.377 OA
ATOM     29  C   UNL     1      -3.218  -6.817  -8.807  0.00  0.00    +0.179 C 
ATOM     30  C   UNL     1      -2.652  -8.236  -8.872  0.00  0.00    +0.136 C 
ENDBRANCH  21  23
ENDBRANCH  11  21
BRANCH   1  31
ATOM     31  C   UNL     1       1.216  -2.069  -1.678  0.00  0.00    +0.103 C 
BRANCH  31  32
ATOM     32  C   UNL     1       1.276  -0.543  -1.759  0.00  0.00    +0.018 C 
BRANCH  32  34
ATOM     33  C   UNL     1       0.689   1.587  -0.591  0.00  0.00    +0.004 C 
ATOM     34  C   UNL     1       0.629   0.060  -0.510  0.00  0.00    -0.002 C 
ENDBRANCH  32  34
ENDBRANCH  31  32
ENDBRANCH   1  31
TORSDOF 6
