REMARK  Name = ZINC59855804
REMARK  8 active torsions:
REMARK  status: ('A' for Active; 'I' for Inactive)
REMARK    1  A    between atoms: C_10  and  C_11
REMARK    2  A    between atoms: C_11  and  S_12
REMARK    3  A    between atoms: S_12  and  C_13
REMARK    4  A    between atoms: C_18  and  N_22
REMARK    5  A    between atoms: C_23  and  C_25
REMARK    6  A    between atoms: C_25  and  S_26
REMARK    7  A    between atoms: S_26  and  C_27
REMARK    8  A    between atoms: C_27  and  N_29
REMARK                            x       y       z     vdW  Elec       q    Type
REMARK                         _______ _______ _______ _____ _____    ______ ____
ROOT
ATOM      1  C   UNL     1       7.015   1.342   1.500  0.00  0.00    +0.136 A 
ATOM      2  N   UNL     1       7.615   1.728   0.396  0.00  0.00    -0.233 NA
ATOM      3  C   UNL     1       8.771   2.428   0.406  0.00  0.00    +0.080 A 
ATOM      4  C   UNL     1       9.514   2.899  -0.702  0.00  0.00    +0.031 A 
ATOM      5  C   UNL     1      10.677   3.600  -0.521  0.00  0.00    +0.025 A 
ATOM      6  C   UNL     1      11.169   3.873   0.753  0.00  0.00    +0.035 A 
ATOM      7  C   UNL     1      10.463   3.424   1.862  0.00  0.00    +0.040 A 
ATOM      8  C   UNL     1       9.298   2.722   1.683  0.00  0.00    +0.042 A 
ATOM      9  S   UNL     1       8.100   1.983   2.767  0.00  0.00    -0.061 S 
ENDROOT
BRANCH   6  10
ATOM     10  N   UNL     1      12.361   4.591   0.914  0.00  0.00    -0.285 N 
ATOM     11  C   UNL     1      12.502   5.439   1.952  0.00  0.00    +0.227 C 
ATOM     12  O   UNL     1      11.633   5.517   2.793  0.00  0.00    -0.275 OA
ATOM     13  H   UNL     1      13.085   4.478   0.278  0.00  0.00    +0.155 HD
BRANCH  11  14
ATOM     14  C   UNL     1      13.741   6.289   2.067  0.00  0.00    +0.172 C 
BRANCH  14  15
ATOM     15  S   UNL     1      13.634   7.315   3.559  0.00  0.00    -0.093 S 
BRANCH  15  16
ATOM     16  C   UNL     1      15.135   8.238   3.551  0.00  0.00    +0.110 C 
ATOM     17  S   UNL     1      16.270   8.015   2.289  0.00  0.00    -0.028 S 
BRANCH  16  18
ATOM     18  N   UNL     1      15.390   9.119   4.539  0.00  0.00    -0.319 N 
ATOM     19  C   UNL     1      14.510   9.403   5.682  0.00  0.00    +0.106 C 
ATOM     20  C   UNL     1      15.199  10.491   6.531  0.00  0.00    +0.020 C 
ATOM     21  C   UNL     1      16.162  11.165   5.518  0.00  0.00    +0.020 C 
ATOM     22  C   UNL     1      16.600   9.952   4.656  0.00  0.00    +0.106 C 
ENDBRANCH  16  18
ENDBRANCH  15  16
ENDBRANCH  14  15
ENDBRANCH  11  14
ENDBRANCH   6  10
BRANCH   1  23
ATOM     23  S   UNL     1       5.517   0.432   1.683  0.00  0.00    -0.094 S 
BRANCH  23  24
ATOM     24  C   UNL     1       4.977   0.128  -0.021  0.00  0.00    +0.112 C 
BRANCH  24  34
ATOM     25  C   UNL     1      -0.005   1.302   0.053  0.00  0.00    +0.001 A 
ATOM     26  C   UNL     1       1.177   2.041   0.042  0.00  0.00    +0.001 A 
ATOM     27  C   UNL     1       2.389   1.424   0.021  0.00  0.00    +0.009 A 
ATOM     28  C   UNL     1       2.455   0.020   0.012  0.00  0.00    -0.014 A 
ATOM     29  C   UNL     1       1.253  -0.732   0.024  0.00  0.00    -0.018 A 
ATOM     30  C   UNL     1       0.020  -0.059   0.044  0.00  0.00    +0.008 A 
ATOM     31  C   UNL     1       1.319  -2.135   0.015  0.00  0.00    +0.008 A 
ATOM     32  C   UNL     1       2.532  -2.753  -0.004  0.00  0.00    +0.001 A 
ATOM     33  C   UNL     1       3.713  -2.014  -0.016  0.00  0.00    +0.005 A 
ATOM     34  C   UNL     1       3.688  -0.653  -0.008  0.00  0.00    -0.029 A 
ENDBRANCH  24  34
ENDBRANCH  23  24
ENDBRANCH   1  23
TORSDOF 8
