REMARK  Name = ZINC22875469
REMARK  5 active torsions:
REMARK  status: ('A' for Active; 'I' for Inactive)
REMARK    1  A    between atoms: C_4  and  C_7
REMARK    2  A    between atoms: C_8  and  C_9
REMARK    3  A    between atoms: C_9  and  N_10
REMARK    4  A    between atoms: N_13  and  C_16
REMARK    5  A    between atoms: C_16  and  N_17
REMARK                            x       y       z     vdW  Elec       q    Type
REMARK                         _______ _______ _______ _____ _____    ______ ____
ROOT
ATOM      1  N   UNL     1      -3.502   2.773   3.533  0.00  0.00    +0.384 N 
ATOM      2  C   UNL     1      -2.777   3.920   2.969  0.00  0.00    -0.063 C 
ATOM      3  C   UNL     1      -2.446   3.640   1.501  0.00  0.00    +0.067 C 
ATOM      4  N   UNL     1      -1.641   2.414   1.408  0.00  0.00    -0.290 NA
ATOM      5  C   UNL     1      -2.366   1.267   1.972  0.00  0.00    +0.067 C 
ATOM      6  C   UNL     1      -2.697   1.547   3.440  0.00  0.00    -0.063 C 
ATOM      7  H   UNL     1      -4.416   2.624   2.940  0.00  0.00    -0.081 HD
ENDROOT
BRANCH   1   8
ATOM      8  C   UNL     1      -3.904   3.035   4.921  0.00  0.00    -0.051 C 
BRANCH   8  10
ATOM      9  C   UNL     1      -3.891   1.314   6.672  0.00  0.00    +0.002 C 
ATOM     10  C   UNL     1      -4.421   1.764   5.543  0.00  0.00    -0.045 C 
BRANCH   9  14
ATOM     11  C   UNL     1      -5.348  -2.269   8.425  0.00  0.00    +0.000 A 
ATOM     12  C   UNL     1      -4.320  -1.573   9.034  0.00  0.00    +0.001 A 
ATOM     13  C   UNL     1      -3.842  -0.408   8.470  0.00  0.00    +0.008 A 
ATOM     14  C   UNL     1      -4.398   0.067   7.282  0.00  0.00    -0.025 A 
ATOM     15  C   UNL     1      -5.439  -0.637   6.675  0.00  0.00    +0.008 A 
ATOM     16  C   UNL     1      -5.904  -1.803   7.246  0.00  0.00    +0.001 A 
ENDBRANCH   9  14
ENDBRANCH   8  10
ENDBRANCH   1   8
BRANCH   4  17
ATOM     17  C   UNL     1      -1.239   2.152   0.020  0.00  0.00    +0.204 C 
BRANCH  17  18
ATOM     18  N   UNL     1      -0.016   1.345   0.009  0.00  0.00    -0.211 N 
ATOM     19  C   UNL     1       0.002  -0.004   0.002  0.00  0.00    +0.248 C 
ATOM     20  O   UNL     1      -0.953  -0.751   0.007  0.00  0.00    -0.273 OA
ATOM     21  C   UNL     1       1.464  -0.388  -0.014  0.00  0.00    +0.113 C 
ATOM     22  C   UNL     1       1.792  -1.178  -1.276  0.00  0.00    +0.035 C 
ATOM     23  C   UNL     1       3.281  -1.532  -1.287  0.00  0.00    +0.003 C 
ATOM     24  C   UNL     1       3.616  -2.361  -0.045  0.00  0.00    +0.000 C 
ATOM     25  C   UNL     1       3.305  -1.546   1.212  0.00  0.00    +0.003 C 
ATOM     26  C   UNL     1       1.816  -1.192   1.233  0.00  0.00    +0.035 C 
ATOM     27  N   UNL     1       2.171   0.899  -0.014  0.00  0.00    -0.285 N 
ATOM     28  C   UNL     1       1.222   1.855   0.000  0.00  0.00    +0.310 C 
ATOM     29  O   UNL     1       1.462   3.046   0.004  0.00  0.00    -0.252 OA
ATOM     30  H   UNL     1       3.270   0.923  -0.024  0.00  0.00    +0.151 HD
ENDBRANCH  17  18
ENDBRANCH   4  17
TORSDOF 5
