REMARK  Name = ZINC43066194
REMARK  14 active torsions:
REMARK  status: ('A' for Active; 'I' for Inactive)
REMARK    1  A    between atoms: C_1  and  C_2
REMARK    2  A    between atoms: C_2  and  C_4
REMARK    3  A    between atoms: C_2  and  O_20
REMARK    4  A    between atoms: C_7  and  C_14
REMARK    5  A    between atoms: C_9  and  O_10
REMARK    6  A    between atoms: O_10  and  C_11
REMARK    7  A    between atoms: C_14  and  N_15
REMARK    8  A    between atoms: N_15  and  C_16
REMARK    9  A    between atoms: C_16  and  C_17
REMARK   10  A    between atoms: C_16  and  C_18
REMARK   11  A    between atoms: C_16  and  C_19
REMARK   12  A    between atoms: O_20  and  C_21
REMARK   13  A    between atoms: C_23  and  C_29
REMARK   14  A    between atoms: C_25  and  C_26
REMARK                            x       y       z     vdW  Elec       q    Type
REMARK                         _______ _______ _______ _____ _____    ______ ____
ROOT
ATOM      1  C   UNL     1      -0.244   1.494  -0.095  0.00  0.00    +0.057 C 
ATOM      2  C   UNL     1       0.001  -0.013   0.005  0.00  0.00    +0.204 C 
ENDROOT
BRANCH   2   3
ATOM      3  C   UNL     1       0.857  -0.303   1.211  0.00  0.00    +0.034 A 
ATOM      4  C   UNL     1       2.227  -0.417   1.076  0.00  0.00    +0.011 A 
ATOM      5  C   UNL     1       3.012  -0.684   2.183  0.00  0.00    +0.002 A 
ATOM      6  C   UNL     1       2.428  -0.838   3.427  0.00  0.00    -0.061 A 
ATOM      7  C   UNL     1       1.059  -0.725   3.567  0.00  0.00    +0.048 A 
ATOM      8  C   UNL     1       0.269  -0.451   2.459  0.00  0.00    +0.134 A 
BRANCH   8   9
ATOM      9  O   UNL     1      -1.078  -0.334   2.595  0.00  0.00    -0.434 OA
BRANCH   9  10
ATOM     10  C   UNL     1      -1.614  -0.498   3.910  0.00  0.00    +0.541 C 
ATOM     11  F   UNL     1      -1.298  -1.776   4.386  0.00  0.00    -0.166 F 
ATOM     12  F   UNL     1      -1.064   0.466   4.762  0.00  0.00    -0.166 F 
ENDBRANCH   9  10
ENDBRANCH   8   9
BRANCH   6  13
ATOM     13  C   UNL     1       3.287  -1.130   4.630  0.00  0.00    -0.046 C 
BRANCH  13  14
ATOM     14  N   UNL     1       3.702   0.134   5.253  0.00  0.00    +0.385 N 
ATOM     15  H   UNL     1       4.229   0.680   4.588  0.00  0.00    -0.085 HD
ATOM     16  H   UNL     1       2.885   0.652   5.540  0.00  0.00    -0.085 HD
BRANCH  14  17
ATOM     17  C   UNL     1       4.539  -0.150   6.427  0.00  0.00    -0.077 C 
ATOM     18  C   UNL     1       5.778  -0.936   5.991  0.00  0.00    -0.011 C 
ATOM     19  C   UNL     1       4.972   1.166   7.075  0.00  0.00    -0.011 C 
ATOM     20  C   UNL     1       3.739  -0.977   7.435  0.00  0.00    -0.011 C 
ENDBRANCH  14  17
ENDBRANCH  13  14
ENDBRANCH   6  13
ENDBRANCH   2   3
BRANCH   2  21
ATOM     21  O   UNL     1       0.671  -0.465  -1.174  0.00  0.00    -0.483 OA
BRANCH  21  22
ATOM     22  C   UNL     1      -0.106  -0.774  -2.244  0.00  0.00    +0.141 A 
ATOM     23  C   UNL     1      -1.456  -0.550  -2.217  0.00  0.00    +0.064 A 
ATOM     24  C   UNL     1      -2.210  -0.883  -3.336  0.00  0.00    +0.042 A 
ATOM     25  S   UNL     1      -0.973  -1.529  -4.449  0.00  0.00    -0.079 S 
ATOM     26  C   UNL     1       0.454  -1.324  -3.397  0.00  0.00    +0.116 A 
BRANCH  24  27
ATOM     27  C   UNL     1      -3.655  -0.740  -3.548  0.00  0.00    +0.080 A 
ATOM     28  C   UNL     1      -4.560  -0.140  -2.694  0.00  0.00    +0.140 A 
ATOM     29  N   UNL     1      -5.765  -0.215  -3.246  0.00  0.00    -0.235 NA
ATOM     30  C   UNL     1      -5.683  -0.836  -4.418  0.00  0.00    +0.138 A 
ATOM     31  N   UNL     1      -4.375  -1.173  -4.641  0.00  0.00    -0.299 N 
ATOM     32  C   UNL     1      -4.011  -1.820  -5.784  0.00  0.00    +0.093 A 
ATOM     33  C   UNL     1      -4.934  -2.138  -6.719  0.00  0.00    +0.018 A 
ATOM     34  C   UNL     1      -6.282  -1.802  -6.521  0.00  0.00    +0.005 A 
ATOM     35  C   UNL     1      -6.658  -1.163  -5.379  0.00  0.00    +0.047 A 
ENDBRANCH  24  27
BRANCH  26  36
ATOM     36  C   UNL     1       1.805  -1.639  -3.664  0.00  0.00    +0.252 C 
ATOM     37  O   UNL     1       2.657  -1.431  -2.818  0.00  0.00    -0.270 OA
ATOM     38  N   UNL     1       2.151  -2.170  -4.853  0.00  0.00    -0.325 N 
ATOM     39  H   UNL     1       1.472  -2.335  -5.526  0.00  0.00    +0.145 HD
ATOM     40  H   UNL     1       3.078  -2.386  -5.037  0.00  0.00    +0.145 HD
ENDBRANCH  26  36
ENDBRANCH  21  22
ENDBRANCH   2  21
TORSDOF 10
