REMARK  Name = ZINC52094549
REMARK  4 active torsions:
REMARK  status: ('A' for Active; 'I' for Inactive)
REMARK    1  A    between atoms: C_1  and  N_2
REMARK    2  A    between atoms: N_2  and  C_3
REMARK    3  A    between atoms: C_3  and  C_5
REMARK    4  A    between atoms: C_3  and  C_12
REMARK                            x       y       z     vdW  Elec       q    Type
REMARK                         _______ _______ _______ _____ _____    ______ ____
ROOT
ATOM      1  C   UNL     1       0.603  -1.981  -1.277  0.00  0.00    -0.041 A 
ATOM      2  C   UNL     1       0.326  -2.708  -0.136  0.00  0.00    +0.031 A 
ATOM      3  C   UNL     1       0.247  -4.090  -0.201  0.00  0.00    +0.067 A 
ATOM      4  C   UNL     1       0.447  -4.742  -1.420  0.00  0.00    +0.068 A 
ATOM      5  C   UNL     1       0.724  -4.005  -2.560  0.00  0.00    +0.043 A 
ATOM      6  C   UNL     1       0.796  -2.626  -2.487  0.00  0.00    +0.022 A 
ATOM      7 BR   UNL     1       1.166  -1.619  -4.044  0.00  0.00    -0.050 Br
ATOM      8  N   UNL     1       0.306  -6.106  -1.175  0.00  0.00    -0.306 N 
ATOM      9  H   UNL     1       0.391  -6.813  -1.834  0.00  0.00    +0.170 HD
ATOM     10  C   UNL     1       0.033  -6.277   0.133  0.00  0.00    +0.325 A 
ATOM     11  O   UNL     1      -0.147  -7.350   0.677  0.00  0.00    -0.247 OA
ATOM     12  N   UNL     1      -0.009  -5.079   0.747  0.00  0.00    -0.306 N 
ATOM     13  H   UNL     1      -0.187  -4.930   1.688  0.00  0.00    +0.170 HD
ENDROOT
BRANCH   1  14
ATOM     14  C   UNL     1       0.690  -0.478  -1.207  0.00  0.00    -0.009 C 
BRANCH  14  15
ATOM     15  C   UNL     1       2.137  -0.060  -1.158  0.00  0.00    -0.057 A 
ATOM     16  C   UNL     1       2.836  -0.127   0.033  0.00  0.00    +0.003 A 
ATOM     17  C   UNL     1       4.163   0.256   0.078  0.00  0.00    +0.015 A 
ATOM     18  C   UNL     1       4.792   0.707  -1.069  0.00  0.00    +0.018 A 
ATOM     19  C   UNL     1       4.092   0.774  -2.260  0.00  0.00    +0.015 A 
ATOM     20  C   UNL     1       2.766   0.386  -2.305  0.00  0.00    +0.003 A 
ATOM     21 BR   UNL     1       6.608   1.231  -1.007  0.00  0.00    -0.050 Br
ENDBRANCH  14  15
BRANCH  14  23
ATOM     22  C   UNL     1      -0.018   1.465   0.010  0.00  0.00    -0.099 C 
ATOM     23  N   UNL     1       0.002  -0.004   0.002  0.00  0.00    +0.384 N 
ATOM     24  H   UNL     1       0.490  -0.338   0.820  0.00  0.00    -0.085 HD
ATOM     25  H   UNL     1      -0.945  -0.353   0.009  0.00  0.00    -0.085 HD
ENDBRANCH  14  23
ENDBRANCH   1  14
TORSDOF 3
