REMARK  Name = ZINC61697810
REMARK  6 active torsions:
REMARK  status: ('A' for Active; 'I' for Inactive)
REMARK    1  A    between atoms: C_1  and  C_2
REMARK    2  A    between atoms: C_2  and  C_4
REMARK    3  A    between atoms: C_2  and  O_22
REMARK    4  A    between atoms: C_7  and  O_11
REMARK    5  A    between atoms: O_11  and  C_12
REMARK    6  A    between atoms: C_15  and  N_19
REMARK                            x       y       z     vdW  Elec       q    Type
REMARK                         _______ _______ _______ _____ _____    ______ ____
ROOT
ATOM      1  C   UNL     1       0.691  -0.504   1.247  0.00  0.00    -0.018 A 
ATOM      2  C   UNL     1       2.073  -0.542   1.241  0.00  0.00    +0.010 A 
ATOM      3  C   UNL     1       2.758  -0.998   2.351  0.00  0.00    +0.048 A 
ATOM      4  C   UNL     1       2.057  -1.419   3.472  0.00  0.00    +0.147 A 
ATOM      5  C   UNL     1       0.669  -1.380   3.476  0.00  0.00    +0.083 A 
ATOM      6  C   UNL     1      -0.010  -0.918   2.364  0.00  0.00    +0.029 A 
ATOM      7 CL   UNL     1      -0.211  -1.907   4.876  0.00  0.00    -0.080 Cl
ENDROOT
BRANCH   1   9
ATOM      8  C   UNL     1      -0.043   1.525   0.024  0.00  0.00    +0.043 C 
ATOM      9  C   UNL     1      -0.053  -0.005   0.035  0.00  0.00    +0.141 C 
BRANCH   9  10
ATOM     10  O   UNL     1       0.583  -0.494  -1.148  0.00  0.00    -0.387 OA
ATOM     11  H   UNL     1       0.156  -0.212  -1.969  0.00  0.00    +0.210 HD
ENDBRANCH   9  10
ENDBRANCH   1   9
BRANCH   4  12
ATOM     12  O   UNL     1       2.729  -1.869   4.565  0.00  0.00    -0.453 OA
BRANCH  12  13
ATOM     13  C   UNL     1       2.854  -3.212   4.729  0.00  0.00    +0.147 A 
ATOM     14  C   UNL     1       2.412  -4.077   3.738  0.00  0.00    +0.050 A 
ATOM     15  C   UNL     1       2.541  -5.442   3.907  0.00  0.00    +0.036 A 
ATOM     16  C   UNL     1       3.111  -5.947   5.061  0.00  0.00    +0.128 A 
ATOM     17  C   UNL     1       3.553  -5.088   6.050  0.00  0.00    +0.056 A 
ATOM     18  C   UNL     1       3.431  -3.721   5.884  0.00  0.00    +0.085 A 
ATOM     19 CL   UNL     1       3.993  -2.643   7.123  0.00  0.00    -0.080 Cl
BRANCH  16  20
ATOM     20  N   UNL     1       3.247  -7.411   5.238  0.00  0.00    +0.056 N 
ATOM     21  O   UNL     1       2.861  -8.163   4.374  0.00  0.00    -0.126 OA
ATOM     22  O   UNL     1       3.746  -7.854   6.247  0.00  0.00    -0.126 OA
ENDBRANCH  16  20
ENDBRANCH  12  13
ENDBRANCH   4  12
TORSDOF 5
