REMARK  Name = ZINC39601116
REMARK  8 active torsions:
REMARK  status: ('A' for Active; 'I' for Inactive)
REMARK    1  A    between atoms: C_1  and  C_2
REMARK    2  A    between atoms: C_2  and  C_3
REMARK    3  A    between atoms: C_2  and  C_4
REMARK    4  A    between atoms: C_4  and  C_5
REMARK    5  A    between atoms: C_5  and  N_6
REMARK    6  A    between atoms: C_7  and  C_9
REMARK    7  A    between atoms: C_20  and  C_22
REMARK    8  A    between atoms: C_24  and  C_29
REMARK                            x       y       z     vdW  Elec       q    Type
REMARK                         _______ _______ _______ _____ _____    ______ ____
ROOT
ATOM      1  C   UNL     1      -5.258  -1.243  -2.688  0.00  0.00    +0.100 C 
ATOM      2  C   UNL     1      -5.537  -2.756  -2.545  0.00  0.00    +0.121 C 
ATOM      3  N   UNL     1      -6.739  -2.996  -3.377  0.00  0.00    -0.296 N 
ATOM      4  C   UNL     1      -6.535  -2.144  -4.573  0.00  0.00    +0.115 C 
ATOM      5  C   UNL     1      -5.914  -0.845  -4.021  0.00  0.00    -0.004 C 
ATOM      6  C   UNL     1      -7.000   0.200  -3.784  0.00  0.00    -0.010 C 
ATOM      7  C   UNL     1      -7.598   0.621  -5.129  0.00  0.00    -0.082 C 
ATOM      8  N   UNL     1      -6.541   1.170  -5.987  0.00  0.00    +0.379 N 
ATOM      9  C   UNL     1      -5.548   0.132  -6.285  0.00  0.00    -0.082 C 
ATOM     10  C   UNL     1      -4.863  -0.311  -4.989  0.00  0.00    -0.010 C 
ATOM     11  C   UNL     1      -7.782  -3.806  -3.108  0.00  0.00    +0.247 C 
ATOM     12  O   UNL     1      -7.868  -4.346  -2.022  0.00  0.00    -0.270 OA
ATOM     13  H   UNL     1      -6.948   1.503  -6.848  0.00  0.00    -0.086 HD
ATOM     14  H   UNL     1      -6.090   1.938  -5.512  0.00  0.00    -0.086 HD
ENDROOT
BRANCH  11  15
ATOM     15  C   UNL     1      -8.822  -4.037  -4.133  0.00  0.00    +0.040 A 
ATOM     16  C   UNL     1     -10.088  -4.488  -3.757  0.00  0.00    +0.025 A 
ATOM     17  C   UNL     1     -11.055  -4.702  -4.718  0.00  0.00    +0.058 A 
ATOM     18  C   UNL     1     -10.773  -4.471  -6.052  0.00  0.00    +0.050 A 
ATOM     19  C   UNL     1      -9.518  -4.023  -6.433  0.00  0.00    +0.125 A 
ATOM     20  C   UNL     1      -8.543  -3.800  -5.480  0.00  0.00    +0.051 A 
ATOM     21  F   UNL     1      -9.250  -3.800  -7.738  0.00  0.00    -0.205 F 
BRANCH  17  22
ATOM     22  C   UNL     1     -12.422  -5.190  -4.312  0.00  0.00    +0.418 C 
ATOM     23  F   UNL     1     -13.252  -4.093  -4.055  0.00  0.00    -0.166 F 
ATOM     24  F   UNL     1     -12.970  -5.956  -5.346  0.00  0.00    -0.166 F 
ATOM     25  F   UNL     1     -12.315  -5.973  -3.158  0.00  0.00    -0.166 F 
ENDBRANCH  17  22
ENDBRANCH  11  15
BRANCH   1  27
ATOM     26  N   UNL     1      -3.275   0.175  -2.266  0.00  0.00    -0.315 N 
ATOM     27  C   UNL     1      -3.773  -0.986  -2.737  0.00  0.00    +0.218 C 
ATOM     28  O   UNL     1      -3.027  -1.822  -3.200  0.00  0.00    -0.275 OA
ATOM     29  H   UNL     1      -3.872   0.844  -1.896  0.00  0.00    +0.149 HD
BRANCH  26  30
ATOM     30  C   UNL     1      -1.833   0.425  -2.313  0.00  0.00    +0.104 C 
BRANCH  30  31
ATOM     31  C   UNL     1      -1.535   1.804  -1.721  0.00  0.00    +0.022 C 
BRANCH  31  33
ATOM     32  C   UNL     1       0.429   2.144  -3.228  0.00  0.00    +0.007 C 
ATOM     33  C   UNL     1      -0.028   2.066  -1.770  0.00  0.00    -0.016 C 
ATOM     34  C   UNL     1       0.283   3.388  -1.066  0.00  0.00    +0.007 C 
ENDBRANCH  31  33
ENDBRANCH  30  31
ENDBRANCH  26  30
ENDBRANCH   1  27
TORSDOF 6
