REMARK  Name = ZINC13036969
REMARK  5 active torsions:
REMARK  status: ('A' for Active; 'I' for Inactive)
REMARK    1  A    between atoms: C_1  and  C_2
REMARK    2  A    between atoms: C_2  and  C_3
REMARK    3  A    between atoms: C_6  and  N_9
REMARK    4  A    between atoms: C_11  and  C_16
REMARK    5  A    between atoms: C_18  and  C_21
REMARK                            x       y       z     vdW  Elec       q    Type
REMARK                         _______ _______ _______ _____ _____    ______ ____
ROOT
ATOM      1  N   UNL     1      -0.016   1.340   0.009  0.00  0.00    -0.271 N 
ATOM      2  C   UNL     1       1.344   1.892  -0.016  0.00  0.00    +0.127 C 
ATOM      3  C   UNL     1       2.268   0.730   0.410  0.00  0.00    +0.104 C 
ATOM      4  C   UNL     1       1.430  -0.505   0.005  0.00  0.00    +0.111 C 
ATOM      5  C   UNL     1       0.002  -0.004   0.016  0.00  0.00    +0.221 C 
ATOM      6  O   UNL     1      -0.982  -0.712   0.030  0.00  0.00    -0.275 OA
ENDROOT
BRANCH   1  10
ATOM      7  C   UNL     1      -3.487   3.644   0.040  0.00  0.00    -0.048 A 
ATOM      8  C   UNL     1      -2.252   4.256   0.141  0.00  0.00    +0.005 A 
ATOM      9  C   UNL     1      -1.099   3.495   0.131  0.00  0.00    +0.024 A 
ATOM     10  C   UNL     1      -1.182   2.114   0.019  0.00  0.00    +0.036 A 
ATOM     11  C   UNL     1      -2.424   1.502  -0.088  0.00  0.00    +0.024 A 
ATOM     12  C   UNL     1      -3.573   2.268  -0.072  0.00  0.00    +0.005 A 
BRANCH   7  14
ATOM     13  C   UNL     1      -5.106   4.871  -1.383  0.00  0.00    +0.009 C 
ATOM     14  C   UNL     1      -4.743   4.477   0.050  0.00  0.00    +0.032 C 
ENDBRANCH   7  14
ENDBRANCH   1  10
BRANCH   3  15
ATOM     15  C   UNL     1       3.570   0.770  -0.348  0.00  0.00    +0.233 A 
ATOM     16  N   UNL     1       4.772   0.780   0.172  0.00  0.00    -0.191 NA
ATOM     17  C   UNL     1       5.622   0.817  -0.880  0.00  0.00    +0.205 A 
ATOM     18  N   UNL     1       4.892   0.834  -1.965  0.00  0.00    -0.056 NA
ATOM     19  O   UNL     1       3.714   0.808  -1.676  0.00  0.00    -0.337 OA
BRANCH  17  20
ATOM     20  C   UNL     1       7.104   0.839  -0.815  0.00  0.00    +0.058 A 
ATOM     21  C   UNL     1       7.750   0.823   0.420  0.00  0.00    +0.014 A 
ATOM     22  C   UNL     1       9.129   0.839   0.474  0.00  0.00    +0.001 A 
ATOM     23  C   UNL     1       9.871   0.882  -0.693  0.00  0.00    +0.003 A 
ATOM     24  C   UNL     1       9.237   0.904  -1.921  0.00  0.00    +0.039 A 
ATOM     25  C   UNL     1       7.856   0.883  -1.989  0.00  0.00    +0.134 A 
ATOM     26  F   UNL     1       7.237   0.904  -3.190  0.00  0.00    -0.205 F 
ENDBRANCH  17  20
ENDBRANCH   3  15
TORSDOF 4
