REMARK  Name = ZINC22362979
REMARK  10 active torsions:
REMARK  status: ('A' for Active; 'I' for Inactive)
REMARK    1  A    between atoms: C_1  and  C_2
REMARK    2  A    between atoms: C_5  and  N_9
REMARK    3  A    between atoms: C_7  and  C_8
REMARK    4  A    between atoms: N_9  and  C_10
REMARK    5  A    between atoms: N_9  and  S_27
REMARK    6  A    between atoms: C_10  and  C_11
REMARK    7  A    between atoms: N_13  and  C_14
REMARK    8  A    between atoms: C_17  and  C_25
REMARK    9  A    between atoms: C_17  and  C_26
REMARK   10  A    between atoms: S_27  and  C_30
REMARK                            x       y       z     vdW  Elec       q    Type
REMARK                         _______ _______ _______ _____ _____    ______ ____
ROOT
ATOM      1  N   UNL     1       1.154   4.329   1.596  0.00  0.00    -0.194 N 
ENDROOT
BRANCH   1   6
ATOM      2  C   UNL     1       6.065   4.812   4.390  0.00  0.00    +0.044 C 
ATOM      3  C   UNL     1       4.760   4.684   3.647  0.00  0.00    -0.047 A 
ATOM      4  C   UNL     1       3.847   5.722   3.672  0.00  0.00    +0.005 A 
ATOM      5  C   UNL     1       2.650   5.608   2.993  0.00  0.00    +0.025 A 
ATOM      6  C   UNL     1       2.364   4.448   2.283  0.00  0.00    +0.052 A 
ATOM      7  C   UNL     1       3.281   3.405   2.264  0.00  0.00    +0.028 A 
ATOM      8  C   UNL     1       4.478   3.528   2.942  0.00  0.00    -0.046 A 
ATOM      9  C   UNL     1       5.476   2.399   2.917  0.00  0.00    +0.044 C 
ENDBRANCH   1   6
BRANCH   1  10
ATOM     10  S   UNL     1       1.153   4.072  -0.040  0.00  0.00    +0.075 S 
ATOM     11  O   UNL     1       2.444   4.436  -0.509  0.00  0.00    -0.150 OA
ATOM     12  O   UNL     1      -0.036   4.665  -0.544  0.00  0.00    -0.150 OA
BRANCH  10  13
ATOM     13  C   UNL     1       0.997   2.335  -0.294  0.00  0.00    +0.109 A 
ATOM     14  C   UNL     1      -0.257   1.764  -0.411  0.00  0.00    +0.030 A 
ATOM     15  C   UNL     1      -0.380   0.402  -0.611  0.00  0.00    +0.022 A 
ATOM     16  C   UNL     1       0.752  -0.390  -0.694  0.00  0.00    +0.041 A 
ATOM     17  C   UNL     1       2.006   0.182  -0.578  0.00  0.00    +0.022 A 
ATOM     18  C   UNL     1       2.128   1.544  -0.378  0.00  0.00    +0.030 A 
ATOM     19 CL   UNL     1       0.598  -2.101  -0.945  0.00  0.00    -0.084 Cl
ENDBRANCH  10  13
ENDBRANCH   1  10
BRANCH   1  20
ATOM     20  C   UNL     1      -0.114   4.432   2.321  0.00  0.00    +0.227 C 
BRANCH  20  21
ATOM     21  C   UNL     1      -0.474   3.086   2.896  0.00  0.00    +0.233 C 
ATOM     22  O   UNL     1       0.256   2.135   2.717  0.00  0.00    -0.274 OA
ATOM     23  N   UNL     1      -1.609   2.939   3.609  0.00  0.00    -0.307 N 
ATOM     24  H   UNL     1      -2.272   3.802   3.772  0.00  0.00    +0.149 HD
BRANCH  23  25
ATOM     25  C   UNL     1      -1.959   1.631   4.168  0.00  0.00    +0.110 C 
ATOM     26  C   UNL     1      -3.475   1.550   4.362  0.00  0.00    +0.074 C 
ATOM     27  C   UNL     1      -3.785   0.308   5.209  0.00  0.00    +0.107 C 
ATOM     28  O   UNL     1      -3.218   0.494   6.506  0.00  0.00    -0.486 OA
ATOM     29  C   UNL     1      -1.922   0.896   6.581  0.00  0.00    +0.126 A 
ATOM     30  C   UNL     1      -1.267   1.451   5.495  0.00  0.00    +0.015 A 
ATOM     31  C   UNL     1       0.053   1.852   5.619  0.00  0.00    +0.009 A 
ATOM     32  C   UNL     1       0.719   1.698   6.819  0.00  0.00    +0.001 A 
ATOM     33  C   UNL     1       0.068   1.142   7.904  0.00  0.00    +0.004 A 
ATOM     34  C   UNL     1      -1.248   0.742   7.787  0.00  0.00    +0.046 A 
ATOM     35  C   UNL     1      -5.301   0.133   5.330  0.00  0.00    +0.055 C 
ATOM     36  C   UNL     1      -3.174  -0.930   4.551  0.00  0.00    +0.055 C 
ENDBRANCH  23  25
ENDBRANCH  20  21
ENDBRANCH   1  20
TORSDOF 6
