REMARK  Name = ZINC31089160
REMARK  8 active torsions:
REMARK  status: ('A' for Active; 'I' for Inactive)
REMARK    1  A    between atoms: C_1  and  C_2
REMARK    2  A    between atoms: C_3  and  C_25
REMARK    3  A    between atoms: C_4  and  C_24
REMARK    4  A    between atoms: C_7  and  C_8
REMARK    5  A    between atoms: C_8  and  N_10
REMARK    6  A    between atoms: N_12  and  C_16
REMARK    7  A    between atoms: C_16  and  C_17
REMARK    8  A    between atoms: C_25  and  C_27
REMARK                            x       y       z     vdW  Elec       q    Type
REMARK                         _______ _______ _______ _____ _____    ______ ____
ROOT
ATOM      1  N   UNL     1      -4.979   2.462   2.561  0.00  0.00    -0.151 NA
ATOM      2  C   UNL     1      -6.104   2.864   3.146  0.00  0.00    +0.166 A 
ATOM      3  N   UNL     1      -6.281   3.390   4.394  0.00  0.00    -0.324 N 
ATOM      4  C   UNL     1      -7.535   3.735   4.789  0.00  0.00    +0.095 A 
ATOM      5  C   UNL     1      -8.550   3.547   3.940  0.00  0.00    +0.066 A 
ATOM      6  S   UNL     1      -7.721   2.862   2.516  0.00  0.00    -0.061 S 
ENDROOT
BRANCH   1   7
ATOM      7  C   UNL     1      -3.860   2.332   3.282  0.00  0.00    +0.286 C 
ATOM      8  O   UNL     1      -3.849   1.613   4.268  0.00  0.00    -0.266 OA
BRANCH   7  15
ATOM      9  C   UNL     1      -1.122   2.215   4.770  0.00  0.00    +0.047 C 
ATOM     10  C   UNL     1      -1.442   3.010   3.530  0.00  0.00    -0.010 A 
ATOM     11  C   UNL     1      -0.554   3.851   2.814  0.00  0.00    +0.041 A 
ATOM     12  C   UNL     1      -1.267   4.378   1.750  0.00  0.00    +0.024 A 
ATOM     13  N   UNL     1      -2.520   3.900   1.804  0.00  0.00    -0.354 N 
ATOM     14  H   UNL     1      -3.258   4.204   1.046  0.00  0.00    +0.166 HD
ATOM     15  C   UNL     1      -2.640   3.057   2.886  0.00  0.00    +0.108 A 
ATOM     16  C   UNL     1      -0.729   5.330   0.713  0.00  0.00    +0.064 C 
BRANCH  11  17
ATOM     17  C   UNL     1       0.851   4.114   3.139  0.00  0.00    +0.162 C 
ATOM     18  O   UNL     1       1.728   3.467   2.607  0.00  0.00    -0.292 OA
ATOM     19  C   UNL     1       1.206   5.189   4.135  0.00  0.00    +0.091 C 
ENDBRANCH  11  17
ENDBRANCH   7  15
ENDBRANCH   1   7
BRANCH   3  20
ATOM     20  C   UNL     1      -5.138   3.579   5.291  0.00  0.00    +0.161 C 
BRANCH  20  21
ATOM     21  C   UNL     1      -5.181   4.969   5.872  0.00  0.00    +0.007 A 
ATOM     22  C   UNL     1      -5.645   5.167   7.159  0.00  0.00    +0.008 A 
ATOM     23  C   UNL     1      -5.683   6.441   7.692  0.00  0.00    +0.000 A 
ATOM     24  C   UNL     1      -5.258   7.520   6.939  0.00  0.00    +0.003 A 
ATOM     25  C   UNL     1      -4.794   7.325   5.653  0.00  0.00    +0.039 A 
ATOM     26  C   UNL     1      -4.750   6.048   5.119  0.00  0.00    +0.128 A 
ATOM     27  F   UNL     1      -4.292   5.856   3.863  0.00  0.00    -0.205 F 
ENDBRANCH  20  21
ENDBRANCH   3  20
TORSDOF 5
