REMARK  Name = ZINC36751258
REMARK  6 active torsions:
REMARK  status: ('A' for Active; 'I' for Inactive)
REMARK    1  A    between atoms: C_1  and  C_2
REMARK    2  A    between atoms: C_2  and  C_4
REMARK    3  A    between atoms: C_2  and  N_12
REMARK    4  A    between atoms: C_7  and  O_11
REMARK    5  A    between atoms: C_9  and  O_10
REMARK    6  A    between atoms: N_12  and  C_13
REMARK                            x       y       z     vdW  Elec       q    Type
REMARK                         _______ _______ _______ _____ _____    ______ ____
ROOT
ATOM      1  C   UNL     1      -0.019   1.526   0.010  0.00  0.00    +0.033 C 
ATOM      2  C   UNL     1       0.002  -0.004   0.002  0.00  0.00    +0.101 C 
ENDROOT
BRANCH   2   3
ATOM      3  C   UNL     1       0.731  -0.503   1.223  0.00  0.00    +0.014 A 
ATOM      4  C   UNL     1       2.077  -0.808   1.147  0.00  0.00    +0.012 A 
ATOM      5  C   UNL     1       2.748  -1.266   2.265  0.00  0.00    +0.046 A 
ATOM      6  C   UNL     1       2.071  -1.421   3.466  0.00  0.00    +0.120 A 
ATOM      7  C   UNL     1       0.721  -1.116   3.545  0.00  0.00    +0.091 A 
ATOM      8  C   UNL     1       0.051  -0.651   2.424  0.00  0.00    +0.125 A 
BRANCH   8   9
ATOM      9  O   UNL     1      -1.271  -0.346   2.499  0.00  0.00    -0.506 OA
ATOM     10  H   UNL     1      -1.858  -1.089   2.303  0.00  0.00    +0.292 HD
ENDBRANCH   8   9
BRANCH   6  11
ATOM     11  O   UNL     1       2.732  -1.872   4.565  0.00  0.00    -0.507 OA
ATOM     12  H   UNL     1       3.124  -1.171   5.104  0.00  0.00    +0.292 HD
ENDBRANCH   6  11
ENDBRANCH   2   3
BRANCH   2  13
ATOM     13  N   UNL     1       0.688  -0.476  -1.203  0.00  0.00    -0.335 N 
ATOM     14  H   UNL     1       1.632  -0.695  -1.170  0.00  0.00    +0.147 HD
BRANCH  13  15
ATOM     15  C   UNL     1      -0.019  -0.613  -2.402  0.00  0.00    +0.064 A 
ATOM     16  C   UNL     1      -1.370  -0.296  -2.453  0.00  0.00    +0.041 A 
ATOM     17  C   UNL     1      -2.066  -0.432  -3.639  0.00  0.00    +0.020 A 
ATOM     18  C   UNL     1      -1.419  -0.884  -4.776  0.00  0.00    +0.018 A 
ATOM     19  C   UNL     1      -0.074  -1.201  -4.729  0.00  0.00    +0.041 A 
ATOM     20  C   UNL     1       0.630  -1.062  -3.547  0.00  0.00    +0.144 A 
ATOM     21  F   UNL     1       1.946  -1.366  -3.503  0.00  0.00    -0.204 F 
ATOM     22 BR   UNL     1      -3.906  -0.001  -3.709  0.00  0.00    -0.050 Br
ENDBRANCH  13  15
ENDBRANCH   2  13
TORSDOF 5
