REMARK  Name = ZINC40110934
REMARK  7 active torsions:
REMARK  status: ('A' for Active; 'I' for Inactive)
REMARK    1  A    between atoms: C_1  and  C_2
REMARK    2  A    between atoms: C_7  and  O_8
REMARK    3  A    between atoms: O_8  and  C_9
REMARK    4  A    between atoms: C_9  and  C_10
REMARK    5  A    between atoms: N_12  and  C_13
REMARK    6  A    between atoms: C_17  and  C_19
REMARK    7  A    between atoms: C_19  and  C_26
REMARK                            x       y       z     vdW  Elec       q    Type
REMARK                         _______ _______ _______ _____ _____    ______ ____
ROOT
ATOM      1  C   UNL     1       0.157   0.369   7.161  0.00  0.00    +0.034 A 
ATOM      2  C   UNL     1       0.126   1.753   7.047  0.00  0.00    +0.023 A 
ATOM      3  C   UNL     1       0.216   2.539   8.178  0.00  0.00    +0.002 A 
ATOM      4  C   UNL     1       0.337   1.951   9.424  0.00  0.00    +0.006 A 
ATOM      5  C   UNL     1       0.369   0.574   9.541  0.00  0.00    -0.014 A 
ATOM      6  C   UNL     1       0.272  -0.219   8.414  0.00  0.00    +0.029 A 
ENDROOT
BRANCH   5   7
ATOM      7  C   UNL     1       0.501  -0.063  10.900  0.00  0.00    +0.135 C 
ATOM      8  C   UNL     1      -0.755  -0.835  11.252  0.00  0.00    +0.248 C 
ATOM      9  O   UNL     1      -1.221  -1.784  10.660  0.00  0.00    -0.273 OA
ATOM     10  N   UNL     1      -1.245  -0.246  12.361  0.00  0.00    -0.238 N 
ATOM     11  C   UNL     1      -0.481   0.779  12.755  0.00  0.00    +0.307 C 
ATOM     12  O   UNL     1      -0.719   1.464  13.730  0.00  0.00    -0.252 OA
ATOM     13  N   UNL     1       0.581   0.967  11.950  0.00  0.00    -0.282 N 
ATOM     14  C   UNL     1       1.729  -0.976  10.948  0.00  0.00    +0.047 C 
ATOM     15  H   UNL     1      -2.052  -0.531  12.818  0.00  0.00    +0.159 HD
ATOM     16  H   UNL     1       1.265   1.648  12.043  0.00  0.00    +0.152 HD
ENDBRANCH   5   7
BRANCH   1  19
ATOM     17  C   UNL     1       0.634  -0.026   4.864  0.00  0.00    +0.255 C 
ATOM     18  O   UNL     1       1.151   1.069   4.795  0.00  0.00    -0.272 OA
ATOM     19  N   UNL     1       0.066  -0.431   6.017  0.00  0.00    -0.283 N 
ATOM     20  H   UNL     1      -0.406  -1.278   6.053  0.00  0.00    +0.155 HD
BRANCH  17  21
ATOM     21  C   UNL     1       0.627  -0.933   3.661  0.00  0.00    +0.324 C 
BRANCH  21  22
ATOM     22  O   UNL     1       1.285  -0.283   2.571  0.00  0.00    -0.483 OA
BRANCH  22  29
ATOM     23  C   UNL     1       2.579   0.984   0.404  0.00  0.00    +0.047 C 
ATOM     24  C   UNL     1       1.990  -0.399   0.302  0.00  0.00    -0.007 A 
ATOM     25  C   UNL     1       2.077  -1.102  -0.885  0.00  0.00    +0.027 A 
ATOM     26  C   UNL     1       1.536  -2.372  -0.979  0.00  0.00    +0.041 A 
ATOM     27  C   UNL     1       0.908  -2.941   0.115  0.00  0.00    +0.023 A 
ATOM     28  C   UNL     1       0.819  -2.242   1.303  0.00  0.00    +0.047 A 
ATOM     29  C   UNL     1       1.366  -0.970   1.401  0.00  0.00    +0.124 A 
ATOM     30 CL   UNL     1       1.646  -3.252  -2.471  0.00  0.00    -0.084 Cl
ENDBRANCH  22  29
ENDBRANCH  21  22
ENDBRANCH  17  21
ENDBRANCH   1  19
TORSDOF 5
