REMARK  Name = ZINC44451623
REMARK  3 active torsions:
REMARK  status: ('A' for Active; 'I' for Inactive)
REMARK    1  A    between atoms: C_4  and  C_7
REMARK    2  A    between atoms: C_7  and  C_8
REMARK    3  A    between atoms: C_7  and  N_14
REMARK                            x       y       z     vdW  Elec       q    Type
REMARK                         _______ _______ _______ _____ _____    ______ ____
ROOT
ATOM      1  N   UNL     1       3.611  -1.865  -0.930  0.00  0.00    -0.288 N 
ATOM      2  C   UNL     1       3.825  -1.716  -2.253  0.00  0.00    +0.306 C 
ATOM      3  O   UNL     1       4.099  -0.621  -2.705  0.00  0.00    -0.252 OA
ATOM      4  N   UNL     1       3.733  -2.781  -3.074  0.00  0.00    -0.248 N 
ATOM      5  C   UNL     1       3.951  -2.628  -4.430  0.00  0.00    +0.166 A 
ATOM      6  N   UNL     1       3.899  -3.553  -5.376  0.00  0.00    -0.229 NA
ATOM      7  C   UNL     1       4.128  -3.275  -6.636  0.00  0.00    +0.061 A 
ATOM      8  C   UNL     1       4.427  -1.930  -6.886  0.00  0.00    +0.079 A 
ATOM      9  S   UNL     1       4.341  -1.219  -5.271  0.00  0.00    -0.049 S 
ATOM     10  C   UNL     1       4.700  -1.383  -8.135  0.00  0.00    +0.172 C 
ATOM     11  O   UNL     1       4.973  -0.206  -8.265  0.00  0.00    -0.291 OA
ATOM     12  C   UNL     1       4.644  -2.320  -9.328  0.00  0.00    +0.080 C 
ATOM     13  C   UNL     1       5.044  -3.728  -8.887  0.00  0.00    +0.014 C 
ATOM     14  C   UNL     1       4.101  -4.254  -7.801  0.00  0.00    +0.057 C 
ATOM     15  H   UNL     1       3.392  -2.738  -0.569  0.00  0.00    +0.151 HD
ATOM     16  H   UNL     1       3.514  -3.654  -2.713  0.00  0.00    +0.158 HD
ENDROOT
BRANCH   1  17
ATOM     17  C   UNL     1       3.711  -0.707  -0.038  0.00  0.00    +0.135 C 
BRANCH  17  21
ATOM     18  C   UNL     1      -0.017   1.378   0.010  0.00  0.00    +0.000 A 
ATOM     19  C   UNL     1       1.171   2.086   0.002  0.00  0.00    +0.000 A 
ATOM     20  C   UNL     1       2.377   1.411  -0.013  0.00  0.00    +0.006 A 
ATOM     21  C   UNL     1       2.396   0.029  -0.020  0.00  0.00    -0.023 A 
ATOM     22  C   UNL     1       1.208  -0.679  -0.012  0.00  0.00    +0.006 A 
ATOM     23  C   UNL     1       0.002  -0.004   0.002  0.00  0.00    +0.000 A 
ENDBRANCH  17  21
BRANCH  17  24
ATOM     24  C   UNL     1       4.044  -1.175   1.356  0.00  0.00    -0.023 A 
ATOM     25  C   UNL     1       3.455  -2.320   1.860  0.00  0.00    +0.006 A 
ATOM     26  C   UNL     1       3.760  -2.748   3.138  0.00  0.00    +0.000 A 
ATOM     27  C   UNL     1       4.654  -2.033   3.912  0.00  0.00    +0.000 A 
ATOM     28  C   UNL     1       5.243  -0.888   3.408  0.00  0.00    +0.000 A 
ATOM     29  C   UNL     1       4.941  -0.462   2.128  0.00  0.00    +0.006 A 
ENDBRANCH  17  24
ENDBRANCH   1  17
TORSDOF 3
