REMARK  Name = ZINC46581299
REMARK  8 active torsions:
REMARK  status: ('A' for Active; 'I' for Inactive)
REMARK    1  A    between atoms: C_1  and  C_2
REMARK    2  A    between atoms: C_3  and  C_28
REMARK    3  A    between atoms: C_7  and  N_27
REMARK    4  A    between atoms: C_9  and  S_11
REMARK    5  A    between atoms: S_11  and  C_12
REMARK    6  A    between atoms: C_12  and  C_14
REMARK    7  A    between atoms: C_12  and  C_15
REMARK    8  A    between atoms: C_15  and  C_17
REMARK                            x       y       z     vdW  Elec       q    Type
REMARK                         _______ _______ _______ _____ _____    ______ ____
ROOT
ATOM      1  S   UNL     1       1.725  -3.460   4.328  0.00  0.00    -0.075 S 
ENDROOT
BRANCH   1  10
ATOM      2  C   UNL     1      -1.287   1.427   0.444  0.00  0.00    +0.045 C 
ATOM      3  C   UNL     1      -1.146  -0.073   0.394  0.00  0.00    -0.028 A 
ATOM      4  C   UNL     1      -1.693  -0.773  -0.610  0.00  0.00    -0.008 A 
ATOM      5  S   UNL     1      -1.260  -2.459  -0.227  0.00  0.00    -0.073 S 
ATOM      6  C   UNL     1      -0.356  -2.179   1.272  0.00  0.00    +0.115 A 
ATOM      7  C   UNL     1      -0.410  -0.777   1.431  0.00  0.00    +0.050 A 
ATOM      8  C   UNL     1       0.255  -0.264   2.579  0.00  0.00    +0.129 A 
ATOM      9  N   UNL     1       0.869  -1.101   3.400  0.00  0.00    -0.207 NA
ATOM     10  C   UNL     1       0.886  -2.411   3.188  0.00  0.00    +0.192 A 
ATOM     11  N   UNL     1       0.274  -2.947   2.139  0.00  0.00    -0.214 NA
ATOM     12  C   UNL     1      -2.486  -0.257  -1.783  0.00  0.00    +0.052 C 
BRANCH   8  13
ATOM     13  N   UNL     1       0.261   1.095   2.835  0.00  0.00    -0.343 N 
ATOM     14  H   UNL     1       0.109   1.725   2.113  0.00  0.00    +0.144 HD
ATOM     15  H   UNL     1       0.416   1.418   3.736  0.00  0.00    +0.144 HD
ENDBRANCH   8  13
ENDBRANCH   1  10
BRANCH   1  16
ATOM     16  C   UNL     1       2.381  -2.318   5.575  0.00  0.00    +0.122 C 
ATOM     17  C   UNL     1       1.220  -1.653   6.318  0.00  0.00    +0.028 C 
BRANCH  16  18
ATOM     18  C   UNL     1       3.234  -3.080   6.555  0.00  0.00    +0.178 C 
ATOM     19  O   UNL     1       3.046  -4.267   6.729  0.00  0.00    -0.291 OA
BRANCH  18  20
ATOM     20  C   UNL     1       4.256  -2.412   7.275  0.00  0.00    +0.043 A 
ATOM     21  C   UNL     1       4.587  -1.076   7.194  0.00  0.00    +0.095 A 
ATOM     22  N   UNL     1       5.610  -0.812   8.029  0.00  0.00    -0.360 N 
ATOM     23  H   UNL     1       6.016   0.061   8.145  0.00  0.00    +0.165 HD
ATOM     24  C   UNL     1       6.002  -1.955   8.697  0.00  0.00    +0.047 A 
ATOM     25  C   UNL     1       5.176  -3.004   8.266  0.00  0.00    +0.010 A 
ATOM     26  C   UNL     1       5.344  -4.285   8.784  0.00  0.00    +0.011 A 
ATOM     27  C   UNL     1       6.324  -4.517   9.725  0.00  0.00    +0.001 A 
ATOM     28  C   UNL     1       7.139  -3.481  10.155  0.00  0.00    +0.002 A 
ATOM     29  C   UNL     1       6.988  -2.210   9.645  0.00  0.00    +0.026 A 
ENDBRANCH  18  20
ENDBRANCH  16  18
ENDBRANCH   1  16
TORSDOF 5
