REMARK  Name = ZINC28686820
REMARK  4 active torsions:
REMARK  status: ('A' for Active; 'I' for Inactive)
REMARK    1  A    between atoms: C_7  and  C_11
REMARK    2  A    between atoms: C_17  and  C_19
REMARK    3  A    between atoms: C_19  and  S_20
REMARK    4  A    between atoms: S_20  and  C_21
REMARK                            x       y       z     vdW  Elec       q    Type
REMARK                         _______ _______ _______ _____ _____    ______ ____
ROOT
ATOM      1  C   UNL     1       4.639   0.919  -0.037  0.00  0.00    +0.082 A 
ATOM      2  C   UNL     1       4.430  -0.431  -0.043  0.00  0.00    +0.077 A 
ATOM      3  S   UNL     1       2.645  -0.492  -0.018  0.00  0.00    -0.060 S 
ATOM      4  C   UNL     1       2.356   1.220  -0.014  0.00  0.00    +0.165 A 
ATOM      5  N   UNL     1       3.578   1.713  -0.023  0.00  0.00    -0.225 NA
ATOM      6  N   UNL     1       1.143   1.898   0.001  0.00  0.00    -0.264 N 
ATOM      7  C   UNL     1      -0.014   1.209   0.009  0.00  0.00    +0.229 C 
ATOM      8  O   UNL     1       0.002  -0.004   0.002  0.00  0.00    -0.275 OA
ATOM      9  H   UNL     1       1.129   2.998   0.007  0.00  0.00    +0.157 HD
ENDROOT
BRANCH   1  16
ATOM     10  C   UNL     1       6.302   5.293  -0.029  0.00  0.00    +0.001 A 
ATOM     11  C   UNL     1       7.689   5.339  -0.042  0.00  0.00    +0.002 A 
ATOM     12  C   UNL     1       8.430   4.178  -0.056  0.00  0.00    +0.026 A 
ATOM     13  C   UNL     1       7.784   2.945  -0.057  0.00  0.00    +0.047 A 
ATOM     14  C   UNL     1       6.379   2.905  -0.050  0.00  0.00    +0.009 A 
ATOM     15  C   UNL     1       5.648   4.093  -0.030  0.00  0.00    +0.010 A 
ATOM     16  C   UNL     1       6.012   1.480  -0.048  0.00  0.00    +0.026 A 
ATOM     17  C   UNL     1       7.171   0.780  -0.064  0.00  0.00    +0.093 A 
ATOM     18  N   UNL     1       8.233   1.643  -0.069  0.00  0.00    -0.360 N 
ATOM     19  H   UNL     1       9.312   1.434  -0.082  0.00  0.00    +0.165 HD
ENDBRANCH   1  16
BRANCH   7  20
ATOM     20  C   UNL     1      -1.330   1.944   0.019  0.00  0.00    +0.172 C 
BRANCH  20  21
ATOM     21  S   UNL     1      -2.692   0.747   0.019  0.00  0.00    -0.097 S 
BRANCH  21  22
ATOM     22  C   UNL     1      -4.141   1.750   0.031  0.00  0.00    +0.097 A 
ATOM     23  C   UNL     1      -5.396   1.148   0.034  0.00  0.00    +0.035 A 
ATOM     24  C   UNL     1      -6.525   1.948   0.044  0.00  0.00    +0.004 A 
ATOM     25  C   UNL     1      -6.360   3.327   0.050  0.00  0.00    +0.020 A 
ATOM     26  C   UNL     1      -5.085   3.856   0.047  0.00  0.00    +0.112 A 
ATOM     27  N   UNL     1      -4.026   3.069   0.043  0.00  0.00    -0.249 NA
ENDBRANCH  21  22
ENDBRANCH  20  21
ENDBRANCH   7  20
TORSDOF 4
