REMARK  Name = ZINC41585942
REMARK  6 active torsions:
REMARK  status: ('A' for Active; 'I' for Inactive)
REMARK    1  A    between atoms: C_1  and  O_2
REMARK    2  A    between atoms: O_2  and  C_3
REMARK    3  A    between atoms: C_6  and  C_9
REMARK    4  A    between atoms: C_14  and  O_33
REMARK    5  A    between atoms: C_15  and  C_20
REMARK    6  A    between atoms: C_20  and  N_21
REMARK                            x       y       z     vdW  Elec       q    Type
REMARK                         _______ _______ _______ _____ _____    ______ ____
ROOT
ATOM      1  C   UNL     1       2.592  -2.525   4.279  0.00  0.00    +0.067 A 
ATOM      2  C   UNL     1       1.889  -3.328   5.143  0.00  0.00    +0.027 A 
ATOM      3  C   UNL     1       2.588  -3.927   6.223  0.00  0.00    +0.019 A 
ATOM      4  C   UNL     1       1.971  -4.909   7.013  0.00  0.00    +0.015 A 
ATOM      5  C   UNL     1       2.667  -5.504   8.023  0.00  0.00    +0.046 A 
ATOM      6  C   UNL     1       3.987  -5.140   8.283  0.00  0.00    +0.125 A 
ATOM      7  C   UNL     1       4.607  -4.159   7.526  0.00  0.00    +0.051 A 
ATOM      8  C   UNL     1       3.912  -3.539   6.500  0.00  0.00    +0.147 A 
ATOM      9  O   UNL     1       4.492  -2.549   5.779  0.00  0.00    -0.421 OA
ATOM     10  C   UNL     1       4.037  -2.374   4.514  0.00  0.00    +0.345 A 
ATOM     11  O   UNL     1       4.796  -2.098   3.603  0.00  0.00    -0.245 OA
ENDROOT
BRANCH   1  15
ATOM     12  C   UNL     1       0.669  -0.560   1.035  0.00  0.00    +0.120 A 
ATOM     13  C   UNL     1       1.232   0.186   2.062  0.00  0.00    +0.046 A 
ATOM     14  C   UNL     1       1.857  -0.448   3.115  0.00  0.00    +0.012 A 
ATOM     15  C   UNL     1       1.922  -1.841   3.149  0.00  0.00    -0.011 A 
ATOM     16  C   UNL     1       1.354  -2.587   2.117  0.00  0.00    +0.012 A 
ATOM     17  C   UNL     1       0.727  -1.947   1.069  0.00  0.00    +0.046 A 
BRANCH  12  19
ATOM     18  C   UNL     1       0.032   1.496   0.027  0.00  0.00    +0.277 C 
ATOM     19  O   UNL     1       0.055   0.068  -0.002  0.00  0.00    -0.495 OA
ENDBRANCH  12  19
ENDBRANCH   1  15
BRANCH   6  20
ATOM     20  O   UNL     1       4.670  -5.751   9.285  0.00  0.00    -0.506 OA
ATOM     21  H   UNL     1       5.149  -6.544   9.008  0.00  0.00    +0.292 HD
ENDBRANCH   6  20
BRANCH   7  22
ATOM     22  C   UNL     1       6.033  -3.768   7.818  0.00  0.00    +0.127 C 
BRANCH  22  23
ATOM     23  N   UNL     1       6.943  -4.607   7.026  0.00  0.00    -0.295 NA
ATOM     24  C   UNL     1       6.865  -6.011   7.448  0.00  0.00    +0.103 C 
ATOM     25  C   UNL     1       7.686  -6.877   6.486  0.00  0.00    +0.122 C 
ATOM     26  N   UNL     1       9.047  -6.325   6.407  0.00  0.00    -0.314 N 
ATOM     27  C   UNL     1       9.201  -4.891   6.123  0.00  0.00    +0.122 C 
ATOM     28  C   UNL     1       8.321  -4.104   7.100  0.00  0.00    +0.103 C 
ATOM     29  C   UNL     1      10.158  -7.139   6.596  0.00  0.00    +0.099 A 
ATOM     30  C   UNL     1       9.985  -8.464   6.981  0.00  0.00    +0.042 A 
ATOM     31  C   UNL     1      11.099  -9.262   7.166  0.00  0.00    +0.005 A 
ATOM     32  C   UNL     1      12.355  -8.706   6.957  0.00  0.00    +0.018 A 
ATOM     33  C   UNL     1      12.453  -7.383   6.576  0.00  0.00    +0.084 A 
ATOM     34  N   UNL     1      11.372  -6.647   6.402  0.00  0.00    -0.350 N 
ATOM     35  H   UNL     1      11.469  -5.721   6.130  0.00  0.00    +0.166 HD
ENDBRANCH  22  23
ENDBRANCH   7  22
TORSDOF 5
