REMARK  Name = ZINC02865816
REMARK  9 active torsions:
REMARK  status: ('A' for Active; 'I' for Inactive)
REMARK    1  A    between atoms: C_1  and  N_2
REMARK    2  A    between atoms: C_3  and  C_22
REMARK    3  A    between atoms: C_6  and  S_7
REMARK    4  A    between atoms: S_7  and  C_8
REMARK    5  A    between atoms: C_8  and  C_9
REMARK    6  A    between atoms: N_11  and  C_12
REMARK    7  A    between atoms: C_15  and  S_18
REMARK    8  A    between atoms: S_18  and  N_21
REMARK    9  A    between atoms: C_22  and  C_23
REMARK                            x       y       z     vdW  Elec       q    Type
REMARK                         _______ _______ _______ _____ _____    ______ ____
ROOT
ATOM      1  C   UNL     1       2.720   5.893   7.258  0.00  0.00    +0.227 C 
ATOM      2  O   UNL     1       3.917   5.737   7.380  0.00  0.00    -0.275 OA
ATOM      3  N   UNL     1       1.995   6.375   8.287  0.00  0.00    -0.285 N 
ATOM      4  H   UNL     1       1.051   6.564   8.169  0.00  0.00    +0.155 HD
ENDROOT
BRANCH   3   5
ATOM      5  C   UNL     1       2.605   6.603   9.526  0.00  0.00    +0.034 A 
ATOM      6  C   UNL     1       1.895   6.390  10.700  0.00  0.00    +0.025 A 
ATOM      7  C   UNL     1       2.501   6.609  11.921  0.00  0.00    +0.030 A 
ATOM      8  C   UNL     1       3.810   7.053  11.975  0.00  0.00    +0.105 A 
ATOM      9  C   UNL     1       4.518   7.272  10.808  0.00  0.00    +0.030 A 
ATOM     10  C   UNL     1       3.919   7.048   9.583  0.00  0.00    +0.025 A 
BRANCH   8  11
ATOM     11  S   UNL     1       4.577   7.339  13.535  0.00  0.00    +0.056 S 
ATOM     12  O   UNL     1       3.883   6.540  14.482  0.00  0.00    -0.153 OA
ATOM     13  O   UNL     1       5.978   7.228  13.325  0.00  0.00    -0.153 OA
BRANCH  11  14
ATOM     14  N   UNL     1       4.284   8.918  13.943  0.00  0.00    -0.204 NA
ATOM     15  H   UNL     1       3.769   9.485  13.348  0.00  0.00    +0.144 HD
ATOM     16  H   UNL     1       4.628   9.275  14.777  0.00  0.00    +0.144 HD
ENDBRANCH  11  14
ENDBRANCH   8  11
ENDBRANCH   3   5
BRANCH   1  17
ATOM     17  C   UNL     1       2.044   5.550   5.956  0.00  0.00    +0.173 C 
BRANCH  17  18
ATOM     18  S   UNL     1       3.275   4.932   4.781  0.00  0.00    -0.077 S 
BRANCH  18  24
ATOM     19  C   UNL     1       3.994   3.759   1.774  0.00  0.00    +0.152 C 
ATOM     20  N   UNL     1       2.635   4.127   2.179  0.00  0.00    -0.309 N 
ATOM     21  C   UNL     1       1.499   4.050   1.422  0.00  0.00    +0.139 A 
ATOM     22  N   UNL     1       0.513   4.479   2.158  0.00  0.00    -0.133 NA
ATOM     23  N   UNL     1       0.943   4.810   3.323  0.00  0.00    -0.122 NA
ATOM     24  C   UNL     1       2.240   4.617   3.390  0.00  0.00    +0.192 A 
BRANCH  21  25
ATOM     25  C   UNL     1       1.405   3.567  -0.002  0.00  0.00    +0.118 C 
BRANCH  25  26
ATOM     26  C   UNL     1       1.154   2.081  -0.013  0.00  0.00    -0.003 A 
ATOM     27  C   UNL     1      -0.027   1.415  -0.010  0.00  0.00    +0.011 A 
ATOM     28  C   UNL     1      -0.017   0.033  -0.021  0.00  0.00    +0.008 A 
ATOM     29  C   UNL     1       1.173  -0.616  -0.035  0.00  0.00    +0.045 A 
ATOM     30  S   UNL     1       2.333   0.741  -0.032  0.00  0.00    -0.101 S 
ENDBRANCH  25  26
ENDBRANCH  21  25
ENDBRANCH  18  24
ENDBRANCH  17  18
ENDBRANCH   1  17
TORSDOF 8
