REMARK  Name = ZINC33072291
REMARK  3 active torsions:
REMARK  status: ('A' for Active; 'I' for Inactive)
REMARK    1  A    between atoms: C_4  and  N_7
REMARK    2  A    between atoms: C_8  and  N_18
REMARK    3  A    between atoms: N_18  and  C_19
REMARK                            x       y       z     vdW  Elec       q    Type
REMARK                         _______ _______ _______ _____ _____    ______ ____
ROOT
ATOM      1  N   UNL     1       0.792   1.310   0.447  0.00  0.00    -0.243 N 
ATOM      2  C   UNL     1       2.055   1.709  -0.184  0.00  0.00    +0.217 C 
ATOM      3  C   UNL     1       2.743   0.431  -0.600  0.00  0.00    +0.092 A 
ATOM      4  C   UNL     1       1.896  -0.611  -0.213  0.00  0.00    +0.062 A 
ATOM      5  C   UNL     1       2.285  -1.929  -0.476  0.00  0.00    +0.016 A 
ATOM      6  C   UNL     1       3.497  -2.139  -1.111  0.00  0.00    +0.020 A 
ATOM      7  C   UNL     1       4.277  -1.052  -1.461  0.00  0.00    +0.111 A 
ATOM      8  N   UNL     1       3.885   0.181  -1.200  0.00  0.00    -0.256 NA
ATOM      9  C   UNL     1       0.704  -0.031   0.428  0.00  0.00    +0.254 C 
ATOM     10  O   UNL     1      -0.226  -0.673   0.877  0.00  0.00    -0.270 OA
ENDROOT
BRANCH   1  14
ATOM     11  C   UNL     1      -2.059   3.908   2.023  0.00  0.00    +0.000 A 
ATOM     12  C   UNL     1      -2.331   2.555   1.935  0.00  0.00    +0.002 A 
ATOM     13  C   UNL     1      -1.389   1.691   1.413  0.00  0.00    +0.023 A 
ATOM     14  C   UNL     1      -0.165   2.183   0.976  0.00  0.00    +0.039 A 
ATOM     15  C   UNL     1       0.108   3.541   1.070  0.00  0.00    +0.023 A 
ATOM     16  C   UNL     1      -0.842   4.400   1.588  0.00  0.00    +0.002 A 
ENDBRANCH   1  14
BRANCH   2  17
ATOM     17  N   UNL     1       1.789   2.542  -1.360  0.00  0.00    -0.319 N 
ATOM     18  H   UNL     1       1.353   2.094  -2.265  0.00  0.00    +0.148 HD
BRANCH  17  19
ATOM     19  C   UNL     1       2.089   3.907  -1.331  0.00  0.00    +0.047 A 
ATOM     20  C   UNL     1       2.787   4.444  -0.257  0.00  0.00    +0.026 A 
ATOM     21  C   UNL     1       3.082   5.793  -0.232  0.00  0.00    +0.022 A 
ATOM     22  C   UNL     1       2.682   6.611  -1.274  0.00  0.00    +0.042 A 
ATOM     23  C   UNL     1       1.986   6.080  -2.345  0.00  0.00    +0.041 A 
ATOM     24  C   UNL     1       1.693   4.729  -2.380  0.00  0.00    +0.063 A 
ATOM     25 CL   UNL     1       0.827   4.062  -3.728  0.00  0.00    -0.082 Cl
ATOM     26 CL   UNL     1       3.055   8.306  -1.238  0.00  0.00    -0.083 Cl
ENDBRANCH  17  19
ENDBRANCH   2  17
TORSDOF 3
