REMARK  Name = ZINC36585797
REMARK  18 active torsions:
REMARK  status: ('A' for Active; 'I' for Inactive)
REMARK    1  A    between atoms: C_1  and  C_2
REMARK    2  A    between atoms: C_2  and  C_3
REMARK    3  A    between atoms: C_2  and  C_4
REMARK    4  A    between atoms: C_2  and  C_5
REMARK    5  A    between atoms: C_5  and  C_6
REMARK    6  A    between atoms: C_6  and  C_7
REMARK    7  A    between atoms: C_6  and  C_8
REMARK    8  A    between atoms: C_6  and  N_9
REMARK    9  A    between atoms: C_10  and  C_12
REMARK   10  A    between atoms: C_12  and  C_14
REMARK   11  A    between atoms: C_12  and  N_21
REMARK   12  A    between atoms: C_17  and  O_20
REMARK   13  A    between atoms: N_21  and  C_34
REMARK   14  A    between atoms: C_22  and  C_24
REMARK   15  A    between atoms: C_26  and  N_31
REMARK   16  A    between atoms: C_34  and  C_35
REMARK   17  A    between atoms: C_34  and  C_36
REMARK   18  A    between atoms: C_34  and  C_37
REMARK                            x       y       z     vdW  Elec       q    Type
REMARK                         _______ _______ _______ _____ _____    ______ ____
ROOT
ATOM      1  C   UNL     1       5.230  -1.538  -1.946  0.00  0.00    +0.193 C 
ENDROOT
BRANCH   1   2
ATOM      2  C   UNL     1       5.677  -2.974  -2.053  0.00  0.00    -0.018 A 
ATOM      3  C   UNL     1       6.505  -3.513  -1.086  0.00  0.00    +0.009 A 
ATOM      4  C   UNL     1       6.917  -4.828  -1.182  0.00  0.00    +0.046 A 
ATOM      5  C   UNL     1       6.498  -5.608  -2.250  0.00  0.00    +0.117 A 
ATOM      6  C   UNL     1       5.668  -5.065  -3.219  0.00  0.00    +0.046 A 
ATOM      7  C   UNL     1       5.254  -3.751  -3.116  0.00  0.00    +0.009 A 
BRANCH   5   8
ATOM      8  O   UNL     1       6.902  -6.902  -2.347  0.00  0.00    -0.507 OA
ATOM      9  H   UNL     1       6.312  -7.532  -1.912  0.00  0.00    +0.292 HD
ENDBRANCH   5   8
ENDBRANCH   1   2
BRANCH   1  11
ATOM     10  N   UNL     1       2.899  -2.199  -1.446  0.00  0.00    -0.308 N 
ATOM     11  C   UNL     1       3.978  -1.463  -1.111  0.00  0.00    +0.239 C 
ATOM     12  O   UNL     1       3.941  -0.741  -0.137  0.00  0.00    -0.273 OA
ATOM     13  H   UNL     1       2.929  -2.776  -2.224  0.00  0.00    +0.149 HD
BRANCH  10  14
ATOM     14  C   UNL     1       1.682  -2.126  -0.633  0.00  0.00    +0.030 C 
ATOM     15  C   UNL     1       1.169  -0.685  -0.612  0.00  0.00    +0.031 C 
ATOM     16  C   UNL     1       1.994  -2.577   0.795  0.00  0.00    +0.031 C 
BRANCH  14  17
ATOM     17  C   UNL     1       0.612  -3.039  -1.235  0.00  0.00    +0.031 C 
BRANCH  17  19
ATOM     18  C   UNL     1       1.618  -3.215  -3.515  0.00  0.00    +0.010 C 
ATOM     19  C   UNL     1       0.422  -2.697  -2.714  0.00  0.00    -0.036 C 
ATOM     20  C   UNL     1       0.318  -1.179  -2.876  0.00  0.00    +0.010 C 
ATOM     21  C   UNL     1      -0.860  -3.354  -3.228  0.00  0.00    +0.010 C 
ENDBRANCH  17  19
ENDBRANCH  14  17
ENDBRANCH  10  14
ENDBRANCH   1  11
BRANCH   1  22
ATOM     22  N   UNL     1       6.286  -0.744  -1.315  0.00  0.00    -0.277 N 
ATOM     23  C   UNL     1       6.672  -1.016  -0.052  0.00  0.00    +0.252 C 
ATOM     24  O   UNL     1       6.134  -1.914   0.567  0.00  0.00    -0.270 OA
BRANCH  23  25
ATOM     25  C   UNL     1       7.747  -0.226   0.578  0.00  0.00    +0.086 A 
ATOM     26  C   UNL     1       8.408   0.767  -0.150  0.00  0.00    +0.049 A 
ATOM     27  C   UNL     1       9.411   1.501   0.444  0.00  0.00    +0.127 A 
ATOM     28  C   UNL     1       9.768   1.260   1.761  0.00  0.00    +0.036 A 
ATOM     29  C   UNL     1       9.123   0.281   2.491  0.00  0.00    +0.054 A 
ATOM     30  C   UNL     1       8.107  -0.464   1.911  0.00  0.00    +0.191 A 
ATOM     31  O   UNL     1       7.469  -1.421   2.629  0.00  0.00    -0.287 OA
BRANCH  27  32
ATOM     32  N   UNL     1      10.111   2.552  -0.328  0.00  0.00    +0.056 N 
ATOM     33  O   UNL     1       9.865   2.704  -1.502  0.00  0.00    -0.126 OA
ATOM     34  O   UNL     1      10.927   3.259   0.215  0.00  0.00    -0.126 OA
ENDBRANCH  27  32
ENDBRANCH  23  25
BRANCH  22  35
ATOM     35  C   UNL     1       6.924   0.348  -2.056  0.00  0.00    +0.030 C 
ATOM     36  C   UNL     1       6.290   0.460  -3.444  0.00  0.00    +0.031 C 
ATOM     37  C   UNL     1       6.726   1.662  -1.298  0.00  0.00    +0.031 C 
ATOM     38  C   UNL     1       8.420   0.062  -2.199  0.00  0.00    +0.031 C 
ENDBRANCH  22  35
ENDBRANCH   1  22
TORSDOF 10
