REMARK  Name = ZINC09560500
REMARK  9 active torsions:
REMARK  status: ('A' for Active; 'I' for Inactive)
REMARK    1  A    between atoms: C_1  and  C_2
REMARK    2  A    between atoms: C_2  and  O_3
REMARK    3  A    between atoms: O_3  and  C_4
REMARK    4  A    between atoms: C_9  and  O_10
REMARK    5  A    between atoms: O_10  and  C_11
REMARK    6  A    between atoms: C_11  and  C_12
REMARK    7  A    between atoms: C_15  and  C_28
REMARK    8  A    between atoms: N_30  and  C_31
REMARK    9  A    between atoms: C_31  and  C_32
REMARK                            x       y       z     vdW  Elec       q    Type
REMARK                         _______ _______ _______ _____ _____    ______ ____
ROOT
ATOM      1  C   UNL     1      -7.440  10.710   0.823  0.00  0.00    +0.162 A 
ATOM      2  C   UNL     1      -8.643  10.202   1.280  0.00  0.00    +0.053 A 
ATOM      3  C   UNL     1      -8.669   9.092   2.115  0.00  0.00    -0.037 A 
ATOM      4  C   UNL     1      -7.491   8.494   2.499  0.00  0.00    -0.019 A 
ATOM      5  C   UNL     1      -6.280   8.999   2.039  0.00  0.00    +0.055 A 
ATOM      6  C   UNL     1      -6.248  10.101   1.205  0.00  0.00    +0.162 A 
ATOM      7  C   UNL     1      -7.447   7.298   3.409  0.00  0.00    +0.123 C 
ATOM      8  C   UNL     1      -6.720   6.161   2.689  0.00  0.00    +0.130 C 
ATOM      9  C   UNL     1      -6.738   4.916   3.534  0.00  0.00    -0.021 A 
ATOM     10  C   UNL     1      -5.679   4.035   3.522  0.00  0.00    +0.005 A 
ATOM     11  C   UNL     1      -5.725   2.889   4.297  0.00  0.00    +0.000 A 
ATOM     12  C   UNL     1      -6.832   2.620   5.083  0.00  0.00    +0.001 A 
ATOM     13  C   UNL     1      -7.897   3.498   5.107  0.00  0.00    +0.013 A 
ATOM     14  C   UNL     1      -7.851   4.657   4.335  0.00  0.00    +0.041 A 
ATOM     15  C   UNL     1      -8.953   5.638   4.367  0.00  0.00    +0.247 C 
ATOM     16  O   UNL     1     -10.029   5.330   4.840  0.00  0.00    -0.270 OA
ATOM     17  N   UNL     1      -8.762   6.885   3.868  0.00  0.00    -0.289 N 
ATOM     18  C   UNL     1      -9.911   7.786   3.850  0.00  0.00    +0.113 C 
ATOM     19  C   UNL     1     -10.006   8.578   2.564  0.00  0.00    +0.054 C 
ENDROOT
BRANCH   8  20
ATOM     20  C   UNL     1      -5.292   6.568   2.429  0.00  0.00    +0.223 C 
ATOM     21  O   UNL     1      -4.897   6.699   1.290  0.00  0.00    -0.275 OA
ATOM     22  N   UNL     1      -4.455   6.785   3.462  0.00  0.00    -0.311 N 
ATOM     23  H   UNL     1      -4.790   6.758   4.372  0.00  0.00    +0.149 HD
BRANCH  22  24
ATOM     24  C   UNL     1      -3.038   7.062   3.211  0.00  0.00    +0.139 C 
BRANCH  24  25
ATOM     25  C   UNL     1      -2.326   7.266   4.523  0.00  0.00    -0.027 A 
ATOM     26  C   UNL     1      -1.761   6.187   5.176  0.00  0.00    +0.009 A 
ATOM     27  C   UNL     1      -1.106   6.370   6.380  0.00  0.00    +0.050 A 
ATOM     28  C   UNL     1      -1.015   7.636   6.935  0.00  0.00    +0.166 A 
ATOM     29  C   UNL     1      -1.584   8.723   6.277  0.00  0.00    +0.167 A 
ATOM     30  C   UNL     1      -2.239   8.533   5.071  0.00  0.00    +0.054 A 
ATOM     31  O   UNL     1      -1.359   9.850   7.016  0.00  0.00    -0.453 OA
ATOM     32  C   UNL     1      -0.300   9.504   7.928  0.00  0.00    +0.466 C 
ATOM     33  O   UNL     1      -0.435   8.079   8.088  0.00  0.00    -0.453 OA
ENDBRANCH  24  25
ENDBRANCH  22  24
ENDBRANCH   8  20
BRANCH   1  34
ATOM     34  O   UNL     1      -7.422  11.797   0.006  0.00  0.00    -0.489 OA
BRANCH  34  36
ATOM     35  C   UNL     1      -8.465  13.572  -1.260  0.00  0.00    +0.048 C 
ATOM     36  C   UNL     1      -8.685  12.367  -0.342  0.00  0.00    +0.226 C 
ENDBRANCH  34  36
ENDBRANCH   1  34
BRANCH   6  37
ATOM     37  O   UNL     1      -5.059  10.587   0.760  0.00  0.00    -0.489 OA
BRANCH  37  38
ATOM     38  C   UNL     1      -3.878   9.910   1.194  0.00  0.00    +0.226 C 
ATOM     39  C   UNL     1      -2.648  10.596   0.595  0.00  0.00    +0.048 C 
ENDBRANCH  37  38
ENDBRANCH   6  37
TORSDOF 7
