REMARK  Name = ZINC44340049
REMARK  10 active torsions:
REMARK  status: ('A' for Active; 'I' for Inactive)
REMARK    1  A    between atoms: C_1  and  C_2
REMARK    2  A    between atoms: C_2  and  O_3
REMARK    3  A    between atoms: O_3  and  C_4
REMARK    4  A    between atoms: C_4  and  C_6
REMARK    5  A    between atoms: C_6  and  C_8
REMARK    6  A    between atoms: C_6  and  N_20
REMARK    7  A    between atoms: C_8  and  C_9
REMARK    8  A    between atoms: C_11  and  O_18
REMARK    9  A    between atoms: C_12  and  O_17
REMARK   10  A    between atoms: O_18  and  C_19
REMARK                            x       y       z     vdW  Elec       q    Type
REMARK                         _______ _______ _______ _____ _____    ______ ____
ROOT
ATOM      1  C   UNL     1       1.238  -2.768  -4.984  0.00  0.00    -0.030 A 
ATOM      2  C   UNL     1       1.085  -4.061  -5.448  0.00  0.00    +0.054 A 
ATOM      3  C   UNL     1       1.754  -4.472  -6.589  0.00  0.00    +0.163 A 
ATOM      4  C   UNL     1       2.579  -3.580  -7.268  0.00  0.00    +0.174 A 
ATOM      5  C   UNL     1       2.729  -2.285  -6.799  0.00  0.00    +0.077 A 
ATOM      6  C   UNL     1       2.054  -1.879  -5.660  0.00  0.00    +0.039 A 
ATOM      7 BR   UNL     1       2.252  -0.109  -5.026  0.00  0.00    -0.049 Br
ATOM      8 BR   UNL     1       3.849  -1.069  -7.718  0.00  0.00    -0.045 Br
ENDROOT
BRANCH   4   9
ATOM      9  O   UNL     1       3.238  -3.979  -8.389  0.00  0.00    -0.503 OA
ATOM     10  H   UNL     1       2.743  -3.837  -9.208  0.00  0.00    +0.292 HD
ENDBRANCH   4   9
BRANCH   3  11
ATOM     11  O   UNL     1       1.605  -5.745  -7.046  0.00  0.00    -0.491 OA
ATOM     12  C   UNL     1       0.743  -6.605  -6.299  0.00  0.00    +0.277 C 
ENDBRANCH   3  11
BRANCH   1  13
ATOM     13  C   UNL     1       0.509  -2.323  -3.742  0.00  0.00    +0.031 C 
BRANCH  13  14
ATOM     14  C   UNL     1       1.468  -2.353  -2.550  0.00  0.00    +0.040 C 
BRANCH  14  15
ATOM     15  N   UNL     1       1.877  -3.739  -2.285  0.00  0.00    +0.387 N 
ATOM     16  H   UNL     1       2.341  -4.114  -3.099  0.00  0.00    -0.089 HD
ATOM     17  H   UNL     1       2.509  -3.759  -1.499  0.00  0.00    -0.089 HD
ATOM     18  H   UNL     1       1.062  -4.296  -2.076  0.00  0.00    -0.089 HD
ENDBRANCH  14  15
BRANCH  14  19
ATOM     19  C   UNL     1       0.775  -1.794  -1.334  0.00  0.00    +0.293 C 
ATOM     20  O   UNL     1       0.314  -2.540  -0.504  0.00  0.00    -0.253 OA
BRANCH  19  21
ATOM     21  O   UNL     1       0.671  -0.465  -1.174  0.00  0.00    -0.466 OA
BRANCH  21  23
ATOM     22  C   UNL     1      -0.019   1.526   0.010  0.00  0.00    +0.048 C 
ATOM     23  C   UNL     1       0.002  -0.004   0.002  0.00  0.00    +0.228 C 
ENDBRANCH  21  23
ENDBRANCH  19  21
ENDBRANCH  14  19
ENDBRANCH  13  14
ENDBRANCH   1  13
TORSDOF 8
