REMARK  Name = ZINC36309757
REMARK  15 active torsions:
REMARK  status: ('A' for Active; 'I' for Inactive)
REMARK    1  A    between atoms: C_1  and  C_2
REMARK    2  A    between atoms: C_2  and  C_3
REMARK    3  A    between atoms: C_2  and  N_4
REMARK    4  A    between atoms: N_4  and  C_5
REMARK    5  A    between atoms: N_4  and  C_17
REMARK    6  A    between atoms: C_5  and  C_6
REMARK    7  A    between atoms: C_6  and  C_8
REMARK    8  A    between atoms: C_6  and  O_16
REMARK    9  A    between atoms: C_8  and  O_9
REMARK   10  A    between atoms: O_9  and  C_10
REMARK   11  A    between atoms: C_10  and  C_11
REMARK   12  A    between atoms: C_17  and  C_18
REMARK   13  A    between atoms: C_28  and  C_30
REMARK   14  A    between atoms: C_30  and  O_31
REMARK   15  A    between atoms: O_31  and  C_32
REMARK                            x       y       z     vdW  Elec       q    Type
REMARK                         _______ _______ _______ _____ _____    ______ ____
ROOT
ATOM      1  C   UNL     1      -0.536  -2.588   1.275  0.00  0.00    +0.200 C 
ATOM      2  O   UNL     1      -0.471  -1.762   2.161  0.00  0.00    -0.278 OA
ATOM      3  N   UNL     1      -0.138  -3.855   1.505  0.00  0.00    -0.292 N 
ATOM      4  C   UNL     1      -0.206  -4.863   0.437  0.00  0.00    +0.113 C 
ATOM      5  C   UNL     1       1.225  -5.305   0.098  0.00  0.00    +0.061 C 
ATOM      6  C   UNL     1       1.982  -5.496   1.373  0.00  0.00    -0.004 A 
ATOM      7  C   UNL     1       1.656  -5.045   2.614  0.00  0.00    -0.014 A 
ATOM      8  C   UNL     1       2.542  -5.354   3.645  0.00  0.00    +0.013 A 
ATOM      9  C   UNL     1       3.658  -6.073   3.385  0.00  0.00    +0.046 A 
ATOM     10  S   UNL     1       3.511  -6.359   1.628  0.00  0.00    -0.101 S 
ATOM     11  C   UNL     1       0.376  -4.246   2.825  0.00  0.00    +0.144 C 
ENDROOT
BRANCH   1  12
ATOM     12  C   UNL     1      -1.061  -2.198  -0.082  0.00  0.00    +0.019 C 
BRANCH  12  13
ATOM     13  N   UNL     1      -1.272  -0.745  -0.126  0.00  0.00    +0.389 N 
ATOM     14  H   UNL     1      -1.617  -0.427   0.767  0.00  0.00    -0.081 HD
BRANCH  13  16
ATOM     15  C   UNL     1       1.052  -0.494   0.603  0.00  0.00    -0.014 C 
ATOM     16  C   UNL     1       0.000  -0.074  -0.426  0.00  0.00    -0.074 C 
ATOM     17  C   UNL     1       0.469  -0.472  -1.827  0.00  0.00    -0.014 C 
ENDBRANCH  13  16
BRANCH  13  18
ATOM     18  C   UNL     1      -2.253  -0.424  -1.172  0.00  0.00    -0.044 C 
BRANCH  18  19
ATOM     19  C   UNL     1      -2.602   1.064  -1.105  0.00  0.00    +0.124 C 
BRANCH  19  20
ATOM     20  O   UNL     1      -1.462   1.839  -1.481  0.00  0.00    -0.391 OA
ATOM     21  H   UNL     1      -1.192   1.719  -2.402  0.00  0.00    +0.210 HD
ENDBRANCH  19  20
BRANCH  19  22
ATOM     22  C   UNL     1      -3.759   1.361  -2.061  0.00  0.00    +0.189 C 
BRANCH  22  23
ATOM     23  O   UNL     1      -4.162   2.724  -1.913  0.00  0.00    -0.370 OA
BRANCH  23  24
ATOM     24  C   UNL     1      -5.242   3.106  -2.767  0.00  0.00    +0.234 C 
BRANCH  24  25
ATOM     25  C   UNL     1      -5.583   4.554  -2.528  0.00  0.00    +0.130 A 
ATOM     26  C   UNL     1      -5.051   5.605  -3.178  0.00  0.00    +0.047 A 
ATOM     27  C   UNL     1      -5.652   6.766  -2.640  0.00  0.00    +0.041 A 
ATOM     28  C   UNL     1      -6.514   6.356  -1.694  0.00  0.00    +0.195 A 
ATOM     29  O   UNL     1      -6.473   5.015  -1.634  0.00  0.00    -0.465 OA
ENDBRANCH  24  25
ENDBRANCH  23  24
ENDBRANCH  22  23
ENDBRANCH  19  22
ENDBRANCH  18  19
ENDBRANCH  13  18
ENDBRANCH  12  13
ENDBRANCH   1  12
BRANCH  11  30
ATOM     30  C   UNL     1      -0.658  -5.113   3.547  0.00  0.00    +0.256 C 
BRANCH  30  31
ATOM     31  O   UNL     1      -0.832  -6.339   2.834  0.00  0.00    -0.490 OA
BRANCH  31  32
ATOM     32  C   UNL     1      -1.723  -7.229   3.346  0.00  0.00    +0.121 A 
ATOM     33  C   UNL     1      -2.419  -6.925   4.508  0.00  0.00    +0.048 A 
ATOM     34  C   UNL     1      -3.324  -7.831   5.027  0.00  0.00    +0.042 A 
ATOM     35  C   UNL     1      -3.537  -9.041   4.389  0.00  0.00    +0.124 A 
ATOM     36  C   UNL     1      -2.843  -9.346   3.231  0.00  0.00    +0.042 A 
ATOM     37  C   UNL     1      -1.942  -8.440   2.705  0.00  0.00    +0.048 A 
ATOM     38  F   UNL     1      -4.422  -9.926   4.899  0.00  0.00    -0.205 F 
ENDBRANCH  31  32
ENDBRANCH  30  31
ENDBRANCH  11  30
TORSDOF 13
