REMARK  Name = ZINC57753909
REMARK  5 active torsions:
REMARK  status: ('A' for Active; 'I' for Inactive)
REMARK    1  A    between atoms: C_1  and  C_2
REMARK    2  A    between atoms: C_8  and  N_10
REMARK    3  A    between atoms: C_14  and  C_16
REMARK    4  A    between atoms: C_16  and  N_17
REMARK    5  A    between atoms: C_26  and  C_28
REMARK                            x       y       z     vdW  Elec       q    Type
REMARK                         _______ _______ _______ _____ _____    ______ ____
ROOT
ATOM      1  C   UNL     1      -0.164   1.532   7.112  0.00  0.00    +0.181 C 
ENDROOT
BRANCH   1   2
ATOM      2  N   UNL     1       0.898   1.401   8.118  0.00  0.00    -0.278 NA
ATOM      3  C   UNL     1       1.970   2.373   7.881  0.00  0.00    +0.121 C 
ATOM      4  C   UNL     1       3.004   2.294   8.974  0.00  0.00    -0.030 A 
ATOM      5  C   UNL     1       4.253   2.852   8.743  0.00  0.00    +0.005 A 
ATOM      6  C   UNL     1       5.229   2.806   9.717  0.00  0.00    +0.000 A 
ATOM      7  C   UNL     1       4.962   2.201  10.931  0.00  0.00    +0.000 A 
ATOM      8  C   UNL     1       3.721   1.644  11.163  0.00  0.00    +0.004 A 
ATOM      9  C   UNL     1       2.740   1.688  10.183  0.00  0.00    -0.041 A 
ATOM     10  C   UNL     1       1.403   1.056  10.476  0.00  0.00    +0.063 C 
ATOM     11  C   UNL     1       0.359   1.558   9.478  0.00  0.00    +0.148 C 
BRANCH  11  12
ATOM     12  C   UNL     1      -0.905   0.750   9.618  0.00  0.00    +0.228 C 
ATOM     13  O   UNL     1      -1.006  -0.320   9.056  0.00  0.00    -0.274 OA
ATOM     14  N   UNL     1      -1.923   1.216  10.368  0.00  0.00    -0.328 N 
ATOM     15  H   UNL     1      -1.842   2.071  10.818  0.00  0.00    +0.145 HD
ATOM     16  H   UNL     1      -2.737   0.695  10.459  0.00  0.00    +0.145 HD
ENDBRANCH  11  12
ENDBRANCH   1   2
BRANCH   1  21
ATOM     17  N   UNL     1      -0.869   0.519   2.466  0.00  0.00    -0.296 N 
ATOM     18  C   UNL     1      -0.058   0.503   3.542  0.00  0.00    +0.306 C 
ATOM     19  O   UNL     1       1.064   0.044   3.451  0.00  0.00    -0.252 OA
ATOM     20  N   UNL     1      -0.491   0.997   4.719  0.00  0.00    -0.239 N 
ATOM     21  C   UNL     1       0.320   0.981   5.795  0.00  0.00    +0.234 C 
ATOM     22  O   UNL     1       1.439   0.523   5.705  0.00  0.00    -0.274 OA
ATOM     23  H   UNL     1      -1.764   0.885   2.538  0.00  0.00    +0.151 HD
ATOM     24  H   UNL     1      -1.386   1.363   4.792  0.00  0.00    +0.159 HD
BRANCH  17  31
ATOM     25  C   UNL     1      -0.946   2.153   0.076  0.00  0.00    +0.009 C 
ATOM     26  C   UNL     1      -1.173   0.640   0.042  0.00  0.00    +0.006 C 
ATOM     27  C   UNL     1      -0.682   0.080  -1.294  0.00  0.00    +0.005 C 
ATOM     28  C   UNL     1      -0.909  -1.432  -1.328  0.00  0.00    +0.000 C 
ATOM     29  C   UNL     1      -0.134  -2.090  -0.184  0.00  0.00    +0.002 C 
ATOM     30  C   UNL     1      -0.626  -1.530   1.153  0.00  0.00    +0.022 C 
ATOM     31  C   UNL     1      -0.399  -0.017   1.186  0.00  0.00    +0.077 C 
ENDBRANCH  17  31
ENDBRANCH   1  21
TORSDOF 4
