REMARK  Name = ZINC16042824
REMARK  6 active torsions:
REMARK  status: ('A' for Active; 'I' for Inactive)
REMARK    1  A    between atoms: C_1  and  C_2
REMARK    2  A    between atoms: C_2  and  C_3
REMARK    3  A    between atoms: C_2  and  C_4
REMARK    4  A    between atoms: C_7  and  C_10
REMARK    5  A    between atoms: N_29  and  C_32
REMARK    6  A    between atoms: C_32  and  C_33
REMARK                            x       y       z     vdW  Elec       q    Type
REMARK                         _______ _______ _______ _____ _____    ______ ____
ROOT
ATOM      1  C   UNL     1      -1.335   4.849   0.042  0.00  0.00    +0.154 C 
ATOM      2  C   UNL     1      -0.256   3.795  -0.065  0.00  0.00    +0.046 A 
ATOM      3  C   UNL     1       1.065   4.073  -0.009  0.00  0.00    -0.015 A 
ATOM      4  C   UNL     1       1.768   2.814  -0.156  0.00  0.00    +0.003 A 
ATOM      5  C   UNL     1       3.127   2.485  -0.178  0.00  0.00    +0.010 A 
ATOM      6  C   UNL     1       3.441   1.158  -0.333  0.00  0.00    +0.001 A 
ATOM      7  C   UNL     1       2.467   0.181  -0.462  0.00  0.00    +0.002 A 
ATOM      8  C   UNL     1       1.115   0.479  -0.444  0.00  0.00    +0.026 A 
ATOM      9  C   UNL     1       0.766   1.819  -0.290  0.00  0.00    +0.047 A 
ATOM     10  N   UNL     1      -0.443   2.450  -0.238  0.00  0.00    -0.356 N 
ATOM     11  H   UNL     1      -1.305   2.011  -0.311  0.00  0.00    +0.166 HD
ATOM     12  C   UNL     1       1.645   5.451   0.181  0.00  0.00    +0.069 C 
ATOM     13  C   UNL     1       0.564   6.494  -0.135  0.00  0.00    +0.167 C 
ATOM     14  N   UNL     1      -0.690   6.096   0.504  0.00  0.00    -0.276 N 
ATOM     15  C   UNL     1      -1.269   6.802   1.478  0.00  0.00    +0.234 C 
ATOM     16  O   UNL     1      -2.272   6.347   1.986  0.00  0.00    -0.274 OA
ATOM     17  C   UNL     1      -0.747   8.097   2.009  0.00  0.00    +0.204 C 
ATOM     18  N   UNL     1       0.438   8.540   1.294  0.00  0.00    -0.287 N 
ATOM     19  C   UNL     1       1.031   7.835   0.333  0.00  0.00    +0.237 C 
ATOM     20  O   UNL     1       2.012   8.311  -0.197  0.00  0.00    -0.274 OA
ENDROOT
BRANCH   1  24
ATOM     21  C   UNL     1      -3.140   5.476  -3.778  0.00  0.00    -0.045 A 
ATOM     22  C   UNL     1      -3.361   4.295  -3.095  0.00  0.00    +0.004 A 
ATOM     23  C   UNL     1      -2.777   4.092  -1.858  0.00  0.00    +0.006 A 
ATOM     24  C   UNL     1      -1.972   5.070  -1.306  0.00  0.00    -0.021 A 
ATOM     25  C   UNL     1      -1.754   6.253  -1.987  0.00  0.00    +0.006 A 
ATOM     26  C   UNL     1      -2.334   6.454  -3.225  0.00  0.00    +0.004 A 
BRANCH  21  28
ATOM     27  C   UNL     1      -4.680   6.931  -5.066  0.00  0.00    +0.012 C 
ATOM     28  C   UNL     1      -3.777   5.697  -5.126  0.00  0.00    +0.013 C 
ATOM     29  C   UNL     1      -2.686   5.915  -6.176  0.00  0.00    +0.012 C 
ENDBRANCH  21  28
ENDBRANCH   1  24
BRANCH  18  30
ATOM     30  C   UNL     1       1.014   9.839   1.652  0.00  0.00    +0.135 C 
BRANCH  30  31
ATOM     31  C   UNL     1       0.390  10.917   0.804  0.00  0.00    -0.016 C 
ATOM     32  C   UNL     1      -0.179  11.950   1.373  0.00  0.00    +0.005 C 
ENDBRANCH  30  31
ENDBRANCH  18  30
TORSDOF 4
