REMARK  Name = ZINC36533844
REMARK  19 active torsions:
REMARK  status: ('A' for Active; 'I' for Inactive)
REMARK    1  A    between atoms: C_1  and  C_2
REMARK    2  A    between atoms: C_2  and  C_4
REMARK    3  A    between atoms: C_2  and  C_31
REMARK    4  A    between atoms: C_4  and  C_5
REMARK    5  A    between atoms: N_7  and  C_8
REMARK    6  A    between atoms: N_7  and  C_9
REMARK    7  A    between atoms: C_9  and  C_11
REMARK    8  A    between atoms: C_9  and  C_20
REMARK    9  A    between atoms: C_12  and  O_19
REMARK   10  A    between atoms: C_14  and  O_18
REMARK   11  A    between atoms: C_16  and  O_17
REMARK   12  A    between atoms: N_22  and  C_23
REMARK   13  A    between atoms: C_23  and  C_24
REMARK   14  A    between atoms: C_23  and  C_25
REMARK   15  A    between atoms: C_23  and  C_26
REMARK   16  A    between atoms: C_26  and  C_27
REMARK   17  A    between atoms: C_27  and  C_28
REMARK   18  A    between atoms: C_27  and  C_29
REMARK   19  A    between atoms: C_27  and  C_30
REMARK                            x       y       z     vdW  Elec       q    Type
REMARK                         _______ _______ _______ _____ _____    ______ ____
ROOT
ATOM      1  C   UNL     1      -4.167   0.455  -2.616  0.00  0.00    +0.199 C 
ENDROOT
BRANCH   1   2
ATOM      2  C   UNL     1      -5.137   0.917  -1.560  0.00  0.00    +0.065 A 
ATOM      3  C   UNL     1      -6.230   0.130  -1.230  0.00  0.00    +0.129 A 
ATOM      4  C   UNL     1      -7.122   0.555  -0.258  0.00  0.00    +0.091 A 
ATOM      5  C   UNL     1      -6.922   1.768   0.384  0.00  0.00    +0.124 A 
ATOM      6  C   UNL     1      -5.829   2.555   0.055  0.00  0.00    +0.091 A 
ATOM      7  C   UNL     1      -4.934   2.127  -0.914  0.00  0.00    +0.129 A 
BRANCH   7   8
ATOM      8  O   UNL     1      -3.860   2.896  -1.234  0.00  0.00    -0.506 OA
ATOM      9  H   UNL     1      -4.027   3.530  -1.946  0.00  0.00    +0.292 HD
ENDBRANCH   7   8
BRANCH   5  10
ATOM     10  O   UNL     1      -7.798   2.186   1.336  0.00  0.00    -0.507 OA
ATOM     11  H   UNL     1      -7.571   1.899   2.232  0.00  0.00    +0.292 HD
ENDBRANCH   5  10
BRANCH   3  12
ATOM     12  O   UNL     1      -6.426  -1.059  -1.859  0.00  0.00    -0.506 OA
ATOM     13  H   UNL     1      -6.077  -1.821  -1.377  0.00  0.00    +0.292 HD
ENDBRANCH   3  12
ENDBRANCH   1   2
BRANCH   1  16
ATOM     14  C   UNL     1      -1.765   0.862  -2.540  0.00  0.00    +0.217 C 
ATOM     15  O   UNL     1      -1.885   1.574  -3.514  0.00  0.00    -0.276 OA
ATOM     16  N   UNL     1      -2.847   0.254  -2.013  0.00  0.00    -0.289 N 
ATOM     17  C   UNL     1      -2.702  -0.607  -0.836  0.00  0.00    +0.133 C 
BRANCH  14  18
ATOM     18  C   UNL     1      -0.408   0.655  -1.920  0.00  0.00    +0.104 C 
BRANCH  18  20
ATOM     19  C   UNL     1       0.352   2.947  -2.564  0.00  0.00    +0.013 C 
ATOM     20  C   UNL     1       0.638   1.450  -2.704  0.00  0.00    +0.025 C 
BRANCH  20  21
ATOM     21  C   UNL     1       2.010   1.148  -2.161  0.00  0.00    -0.044 A 
ATOM     22  C   UNL     1       2.304   1.417  -0.837  0.00  0.00    +0.004 A 
ATOM     23  C   UNL     1       3.563   1.140  -0.338  0.00  0.00    +0.000 A 
ATOM     24  C   UNL     1       4.529   0.594  -1.163  0.00  0.00    +0.000 A 
ATOM     25  C   UNL     1       4.235   0.324  -2.487  0.00  0.00    +0.000 A 
ATOM     26  C   UNL     1       2.974   0.597  -2.985  0.00  0.00    +0.004 A 
ENDBRANCH  20  21
ENDBRANCH  18  20
ENDBRANCH  14  18
ENDBRANCH   1  16
BRANCH   1  27
ATOM     27  C   UNL     1      -4.650  -0.844  -3.209  0.00  0.00    +0.239 C 
ATOM     28  O   UNL     1      -4.170  -1.895  -2.840  0.00  0.00    -0.273 OA
ATOM     29  N   UNL     1      -5.617  -0.837  -4.149  0.00  0.00    -0.308 N 
ATOM     30  H   UNL     1      -5.974   0.005  -4.471  0.00  0.00    +0.149 HD
BRANCH  29  31
ATOM     31  C   UNL     1      -6.128  -2.102  -4.683  0.00  0.00    +0.030 C 
ATOM     32  C   UNL     1      -4.963  -2.936  -5.221  0.00  0.00    +0.031 C 
ATOM     33  C   UNL     1      -6.838  -2.876  -3.570  0.00  0.00    +0.031 C 
BRANCH  31  34
ATOM     34  C   UNL     1      -7.115  -1.815  -5.815  0.00  0.00    +0.031 C 
BRANCH  34  35
ATOM     35  C   UNL     1      -6.369  -1.195  -6.998  0.00  0.00    -0.036 C 
ATOM     36  C   UNL     1      -5.584  -2.284  -7.733  0.00  0.00    +0.010 C 
ATOM     37  C   UNL     1      -7.375  -0.556  -7.958  0.00  0.00    +0.010 C 
ATOM     38  C   UNL     1      -5.402  -0.126  -6.487  0.00  0.00    +0.010 C 
ENDBRANCH  34  35
ENDBRANCH  31  34
ENDBRANCH  29  31
ENDBRANCH   1  27
TORSDOF 12
