REMARK  Name = ZINC21254147
REMARK  9 active torsions:
REMARK  status: ('A' for Active; 'I' for Inactive)
REMARK    1  A    between atoms: C_1  and  C_2
REMARK    2  A    between atoms: C_2  and  C_3
REMARK    3  A    between atoms: C_3  and  O_4
REMARK    4  A    between atoms: O_4  and  C_5
REMARK    5  A    between atoms: C_8  and  C_11
REMARK    6  A    between atoms: C_16  and  C_26
REMARK    7  A    between atoms: C_29  and  O_32
REMARK    8  A    between atoms: O_32  and  C_33
REMARK    9  A    between atoms: C_33  and  C_34
REMARK                            x       y       z     vdW  Elec       q    Type
REMARK                         _______ _______ _______ _____ _____    ______ ____
ROOT
ATOM      1  C   UNL     1      -7.343  -6.418   2.195  0.00  0.00    +0.032 C 
ATOM      2  C   UNL     1      -7.444  -5.820   0.793  0.00  0.00    +0.059 C 
ATOM      3  C   UNL     1      -7.838  -4.355   0.883  0.00  0.00    +0.017 C 
ATOM      4  C   UNL     1      -7.426  -3.603   1.916  0.00  0.00    +0.036 C 
ATOM      5  C   UNL     1      -7.710  -2.133   2.112  0.00  0.00    +0.136 C 
ATOM      6  N   UNL     1      -8.712  -1.592   1.218  0.00  0.00    -0.331 N 
ATOM      7  C   UNL     1      -8.495  -1.539  -0.158  0.00  0.00    +0.049 A 
ATOM      8  C   UNL     1      -8.398  -0.331  -0.830  0.00  0.00    +0.025 A 
ATOM      9  C   UNL     1      -8.138  -0.327  -2.189  0.00  0.00    +0.002 A 
ATOM     10  C   UNL     1      -7.972  -1.517  -2.873  0.00  0.00    +0.002 A 
ATOM     11  C   UNL     1      -8.085  -2.727  -2.208  0.00  0.00    +0.025 A 
ATOM     12  C   UNL     1      -8.367  -2.732  -0.853  0.00  0.00    +0.052 A 
ATOM     13  N   UNL     1      -8.599  -3.908  -0.149  0.00  0.00    -0.316 N 
ATOM     14  C   UNL     1      -6.654  -4.178   2.953  0.00  0.00    +0.163 C 
ATOM     15  O   UNL     1      -6.284  -3.471   3.870  0.00  0.00    -0.292 OA
ATOM     16  C   UNL     1      -6.276  -5.629   2.962  0.00  0.00    +0.088 C 
ATOM     17  H   UNL     1      -9.663  -1.214   1.621  0.00  0.00    +0.147 HD
ATOM     18  H   UNL     1      -9.471  -4.490  -0.481  0.00  0.00    +0.152 HD
ENDROOT
BRANCH   1  22
ATOM     19  C   UNL     1      -6.204 -10.529   1.937  0.00  0.00    +0.121 A 
ATOM     20  C   UNL     1      -7.406 -10.177   2.533  0.00  0.00    +0.046 A 
ATOM     21  C   UNL     1      -7.772  -8.847   2.615  0.00  0.00    +0.007 A 
ATOM     22  C   UNL     1      -6.941  -7.868   2.104  0.00  0.00    -0.043 A 
ATOM     23  C   UNL     1      -5.745  -8.216   1.504  0.00  0.00    +0.007 A 
ATOM     24  C   UNL     1      -5.372  -9.544   1.425  0.00  0.00    +0.046 A 
BRANCH  19  25
ATOM     25  O   UNL     1      -5.841 -11.836   1.856  0.00  0.00    -0.492 OA
BRANCH  25  26
ATOM     26  C   UNL     1      -4.590 -12.124   1.229  0.00  0.00    +0.229 C 
BRANCH  26  28
ATOM     27  C   UNL     1      -3.015 -13.945   0.560  0.00  0.00    +0.007 C 
ATOM     28  C   UNL     1      -4.355 -13.636   1.231  0.00  0.00    +0.038 C 
ENDBRANCH  26  28
ENDBRANCH  25  26
ENDBRANCH  19  25
ENDBRANCH   1  22
BRANCH   5  29
ATOM     29  C   UNL     1      -6.428  -1.367   1.913  0.00  0.00    -0.023 A 
ATOM     30  C   UNL     1      -5.855  -0.693   2.975  0.00  0.00    +0.009 A 
ATOM     31  C   UNL     1      -4.679   0.010   2.795  0.00  0.00    +0.046 A 
ATOM     32  C   UNL     1      -4.073   0.038   1.547  0.00  0.00    +0.121 A 
ATOM     33  C   UNL     1      -4.653  -0.635   0.482  0.00  0.00    +0.046 A 
ATOM     34  C   UNL     1      -5.826  -1.341   0.668  0.00  0.00    +0.009 A 
BRANCH  32  35
ATOM     35  O   UNL     1      -2.917   0.728   1.367  0.00  0.00    -0.487 OA
BRANCH  35  36
ATOM     36  C   UNL     1      -2.349   0.714   0.056  0.00  0.00    +0.264 C 
BRANCH  36  37
ATOM     37  C   UNL     1      -1.080   1.526   0.048  0.00  0.00    -0.010 A 
ATOM     38  C   UNL     1       0.130   0.919   0.328  0.00  0.00    +0.007 A 
ATOM     39  C   UNL     1       1.295   1.664   0.315  0.00  0.00    +0.000 A 
ATOM     40  C   UNL     1       1.249   3.015   0.029  0.00  0.00    +0.000 A 
ATOM     41  C   UNL     1       0.038   3.623  -0.246  0.00  0.00    +0.000 A 
ATOM     42  C   UNL     1      -1.127   2.878  -0.234  0.00  0.00    +0.007 A 
ENDBRANCH  36  37
ENDBRANCH  35  36
ENDBRANCH  32  35
ENDBRANCH   5  29
TORSDOF 8
