REMARK  Name = ZINC21576238
REMARK  12 active torsions:
REMARK  status: ('A' for Active; 'I' for Inactive)
REMARK    1  A    between atoms: C_1  and  C_2
REMARK    2  A    between atoms: C_2  and  C_25
REMARK    3  A    between atoms: N_5  and  C_9
REMARK    4  A    between atoms: C_9  and  C_10
REMARK    5  A    between atoms: C_10  and  C_12
REMARK    6  A    between atoms: C_10  and  O_24
REMARK    7  A    between atoms: C_12  and  O_13
REMARK    8  A    between atoms: O_13  and  C_14
REMARK    9  A    between atoms: C_25  and  C_26
REMARK   10  A    between atoms: C_26  and  C_27
REMARK   11  A    between atoms: C_30  and  O_33
REMARK   12  A    between atoms: O_33  and  C_34
REMARK                            x       y       z     vdW  Elec       q    Type
REMARK                         _______ _______ _______ _____ _____    ______ ____
ROOT
ATOM      1  C   UNL     1       2.038   1.925   1.252  0.00  0.00    +0.041 C 
ATOM      2  C   UNL     1       1.181   2.140   0.002  0.00  0.00    +0.110 C 
ATOM      3  C   UNL     1      -0.014   1.208   0.009  0.00  0.00    +0.246 C 
ATOM      4  O   UNL     1       0.002  -0.004   0.002  0.00  0.00    -0.273 OA
ATOM      5  N   UNL     1      -1.099   2.007   0.017  0.00  0.00    -0.222 N 
ATOM      6  C   UNL     1      -0.759   3.301   0.026  0.00  0.00    +0.309 C 
ATOM      7  O   UNL     1      -1.564   4.212   0.038  0.00  0.00    -0.252 OA
ATOM      8  N   UNL     1       0.574   3.482   0.015  0.00  0.00    -0.285 N 
ATOM      9  H   UNL     1       1.215   4.376   0.013  0.00  0.00    +0.151 HD
ENDROOT
BRANCH   5  10
ATOM     10  C   UNL     1      -2.481   1.520   0.020  0.00  0.00    +0.152 C 
BRANCH  10  11
ATOM     11  C   UNL     1      -2.956   1.342   1.463  0.00  0.00    +0.170 C 
BRANCH  11  12
ATOM     12  O   UNL     1      -2.116   0.397   2.128  0.00  0.00    -0.387 OA
ATOM     13  H   UNL     1      -2.304   0.138   3.181  0.00  0.00    +0.210 HD
ENDBRANCH  11  12
BRANCH  11  14
ATOM     14  C   UNL     1      -4.399   0.833   1.466  0.00  0.00    +0.262 C 
BRANCH  14  15
ATOM     15  O   UNL     1      -4.882   0.777   2.810  0.00  0.00    -0.489 OA
BRANCH  15  16
ATOM     16  C   UNL     1      -6.156   0.343   2.990  0.00  0.00    +0.128 A 
ATOM     17  C   UNL     1      -6.918  -0.019   1.914  0.00  0.00    +0.046 A 
ATOM     18  C   UNL     1      -8.225  -0.466   2.082  0.00  0.00    +0.004 A 
ATOM     19  C   UNL     1      -8.783  -0.557   3.320  0.00  0.00    +0.009 A 
ATOM     20  C   UNL     1      -8.033  -0.195   4.452  0.00  0.00    -0.014 A 
ATOM     21  C   UNL     1      -6.700   0.256   4.287  0.00  0.00    +0.024 A 
ATOM     22  C   UNL     1      -5.952   0.622   5.418  0.00  0.00    +0.012 A 
ATOM     23  C   UNL     1      -6.512   0.531   6.655  0.00  0.00    +0.001 A 
ATOM     24  C   UNL     1      -7.821   0.083   6.818  0.00  0.00    +0.001 A 
ATOM     25  C   UNL     1      -8.578  -0.276   5.745  0.00  0.00    +0.008 A 
ENDBRANCH  15  16
ENDBRANCH  14  15
ENDBRANCH  11  14
ENDBRANCH  10  11
ENDBRANCH   5  10
BRANCH   2  26
ATOM     26  C   UNL     1       2.014   1.938  -1.265  0.00  0.00    +0.039 C 
BRANCH  26  27
ATOM     27  C   UNL     1       3.212   2.890  -1.245  0.00  0.00    +0.038 C 
BRANCH  27  28
ATOM     28  C   UNL     1       4.033   2.691  -2.493  0.00  0.00    -0.047 A 
ATOM     29  C   UNL     1       5.065   1.770  -2.501  0.00  0.00    +0.007 A 
ATOM     30  C   UNL     1       5.815   1.582  -3.645  0.00  0.00    +0.046 A 
ATOM     31  C   UNL     1       5.540   2.325  -4.784  0.00  0.00    +0.120 A 
ATOM     32  C   UNL     1       4.507   3.252  -4.772  0.00  0.00    +0.046 A 
ATOM     33  C   UNL     1       3.756   3.433  -3.626  0.00  0.00    +0.007 A 
BRANCH  31  34
ATOM     34  O   UNL     1       6.279   2.145  -5.910  0.00  0.00    -0.495 OA
ATOM     35  C   UNL     1       7.326   1.174  -5.850  0.00  0.00    +0.277 C 
ENDBRANCH  31  34
ENDBRANCH  27  28
ENDBRANCH  26  27
ENDBRANCH   2  26
TORSDOF 10
