REMARK  Name = ZINC07541047
REMARK  11 active torsions:
REMARK  status: ('A' for Active; 'I' for Inactive)
REMARK    1  A    between atoms: C_1  and  C_2
REMARK    2  A    between atoms: C_2  and  C_4
REMARK    3  A    between atoms: C_2  and  O_28
REMARK    4  A    between atoms: C_7  and  C_10
REMARK    5  A    between atoms: C_13  and  C_15
REMARK    6  A    between atoms: C_15  and  N_51
REMARK    7  A    between atoms: C_16  and  C_17
REMARK    8  A    between atoms: C_16  and  N_51
REMARK    9  A    between atoms: C_17  and  C_18
REMARK   10  A    between atoms: C_21  and  S_24
REMARK   11  A    between atoms: S_24  and  N_27
REMARK                            x       y       z     vdW  Elec       q    Type
REMARK                         _______ _______ _______ _____ _____    ______ ____
ROOT
ATOM      1  N   UNL     1      -5.374  -0.992   1.445  0.00  0.00    +0.384 N 
ATOM      2  H   UNL     1      -4.922  -0.204   1.924  0.00  0.00    -0.085 HD
ATOM      3  H   UNL     1      -5.124  -1.869   1.917  0.00  0.00    -0.085 HD
ENDROOT
BRANCH   1   4
ATOM      4  C   UNL     1      -4.909  -1.042   0.047  0.00  0.00    -0.007 C 
BRANCH   4   8
ATOM      5  C   UNL     1      -1.266  -0.764   0.011  0.00  0.00    +0.135 A 
ATOM      6  C   UNL     1      -1.384  -2.118   0.004  0.00  0.00    +0.050 A 
ATOM      7  C   UNL     1      -2.764  -2.405   0.017  0.00  0.00    +0.043 A 
ATOM      8  C   UNL     1      -3.413  -1.224   0.030  0.00  0.00    +0.089 A 
ATOM      9  O   UNL     1      -2.504  -0.234   0.032  0.00  0.00    -0.462 OA
BRANCH   5  13
ATOM     10  C   UNL     1       2.378   1.419  -0.013  0.00  0.00    -0.019 A 
ATOM     11  C   UNL     1       1.170   2.095   0.002  0.00  0.00    +0.007 A 
ATOM     12  C   UNL     1      -0.017   1.392   0.010  0.00  0.00    +0.012 A 
ATOM     13  C   UNL     1       0.002  -0.004   0.002  0.00  0.00    +0.017 A 
ATOM     14  C   UNL     1       1.224  -0.679  -0.013  0.00  0.00    +0.012 A 
ATOM     15  C   UNL     1       2.404   0.036  -0.021  0.00  0.00    +0.007 A 
BRANCH  10  17
ATOM     16  C   UNL     1       4.057   2.556   1.414  0.00  0.00    +0.043 C 
ATOM     17  C   UNL     1       3.670   2.194  -0.021  0.00  0.00    +0.141 C 
BRANCH  17  18
ATOM     18  O   UNL     1       3.505   3.389  -0.786  0.00  0.00    -0.387 OA
ATOM     19  H   UNL     1       4.299   3.938  -0.834  0.00  0.00    +0.210 HD
ENDBRANCH  17  18
ENDBRANCH  10  17
ENDBRANCH   5  13
ENDBRANCH   4   8
ENDBRANCH   1   4
BRANCH   1  20
ATOM     20  C   UNL     1      -6.838  -0.815   1.492  0.00  0.00    -0.077 C 
BRANCH  20  21
ATOM     21  C   UNL     1      -7.290  -0.766   2.953  0.00  0.00    +0.016 C 
BRANCH  21  22
ATOM     22  C   UNL     1      -8.786  -0.586   3.009  0.00  0.00    -0.049 A 
ATOM     23  C   UNL     1      -9.327   0.686   3.046  0.00  0.00    +0.005 A 
ATOM     24  C   UNL     1     -10.699   0.851   3.093  0.00  0.00    +0.029 A 
ATOM     25  C   UNL     1     -11.528  -0.254   3.113  0.00  0.00    +0.105 A 
ATOM     26  C   UNL     1     -10.986  -1.526   3.082  0.00  0.00    +0.029 A 
ATOM     27  C   UNL     1      -9.615  -1.691   3.030  0.00  0.00    +0.005 A 
BRANCH  25  28
ATOM     28  S   UNL     1     -13.277  -0.043   3.178  0.00  0.00    +0.056 S 
ATOM     29  O   UNL     1     -13.550   1.247   2.649  0.00  0.00    -0.153 OA
ATOM     30  O   UNL     1     -13.849  -1.225   2.637  0.00  0.00    -0.153 OA
BRANCH  28  31
ATOM     31  N   UNL     1     -13.705   0.001   4.777  0.00  0.00    -0.204 NA
ATOM     32  H   UNL     1     -13.026  -0.085   5.464  0.00  0.00    +0.144 HD
ATOM     33  H   UNL     1     -14.636   0.113   5.027  0.00  0.00    +0.144 HD
ENDBRANCH  28  31
ENDBRANCH  25  28
ENDBRANCH  21  22
ENDBRANCH  20  21
ENDBRANCH   1  20
TORSDOF 10
