REMARK  Name = ZINC03073024
REMARK  9 active torsions:
REMARK  status: ('A' for Active; 'I' for Inactive)
REMARK    1  A    between atoms: C_1  and  C_2
REMARK    2  A    between atoms: C_2  and  N_3
REMARK    3  A    between atoms: N_3  and  C_4
REMARK    4  A    between atoms: N_3  and  C_6
REMARK    5  A    between atoms: C_4  and  C_5
REMARK    6  A    between atoms: C_11  and  C_17
REMARK    7  A    between atoms: C_19  and  C_22
REMARK    8  A    between atoms: C_25  and  O_28
REMARK    9  A    between atoms: O_28  and  C_29
REMARK                            x       y       z     vdW  Elec       q    Type
REMARK                         _______ _______ _______ _____ _____    ______ ____
ROOT
ATOM      1  C   UNL     1       2.207  -0.071   0.177  0.00  0.00    +0.033 A 
ATOM      2  C   UNL     1       0.995  -0.759   0.115  0.00  0.00    +0.024 A 
ATOM      3  C   UNL     1      -0.184  -0.075   0.078  0.00  0.00    +0.013 A 
ATOM      4  C   UNL     1      -0.182   1.326   0.103  0.00  0.00    +0.018 A 
ATOM      5  C   UNL     1      -1.442   2.069   0.059  0.00  0.00    +0.027 A 
ATOM      6  C   UNL     1      -1.392   3.438   0.091  0.00  0.00    +0.067 A 
ATOM      7  C   UNL     1      -0.080   4.102   0.156  0.00  0.00    +0.202 A 
ATOM      8  N   UNL     1      -0.016   5.406   0.181  0.00  0.00    -0.369 N 
ATOM      9  O   UNL     1       1.055   3.377   0.190  0.00  0.00    -0.439 OA
ATOM     10  C   UNL     1       1.037   2.026   0.167  0.00  0.00    +0.139 A 
ATOM     11  C   UNL     1       2.227   1.316   0.203  0.00  0.00    +0.070 A 
ATOM     12  H   UNL     1       0.961   5.908   0.229  0.00  0.00    +0.159 HD
ATOM     13  H   UNL     1      -0.940   6.003   0.153  0.00  0.00    +0.159 HD
ENDROOT
BRANCH   6  14
ATOM     14  C   UNL     1      -2.633   4.233   0.053  0.00  0.00    +0.114 A 
ATOM     15  N   UNL     1      -2.786   5.549   0.069  0.00  0.00    -0.239 NA
ATOM     16  C   UNL     1      -3.985   6.099   0.029  0.00  0.00    +0.079 A 
ATOM     17  C   UNL     1      -5.093   5.295  -0.030  0.00  0.00    +0.075 A 
ATOM     18  S   UNL     1      -4.330   3.678  -0.034  0.00  0.00    -0.075 S 
BRANCH  16  19
ATOM     19  C   UNL     1      -4.132   7.576   0.047  0.00  0.00    +0.001 A 
ATOM     20  C   UNL     1      -5.401   8.152  -0.002  0.00  0.00    +0.013 A 
ATOM     21  C   UNL     1      -5.535   9.524   0.021  0.00  0.00    +0.047 A 
ATOM     22  C   UNL     1      -4.407  10.332   0.081  0.00  0.00    +0.128 A 
ATOM     23  C   UNL     1      -3.142   9.761   0.124  0.00  0.00    +0.047 A 
ATOM     24  C   UNL     1      -3.002   8.389   0.107  0.00  0.00    +0.013 A 
BRANCH  22  25
ATOM     25  O   UNL     1      -4.542  11.684   0.097  0.00  0.00    -0.456 OA
BRANCH  25  26
ATOM     26  C   UNL     1      -5.109  12.256   1.192  0.00  0.00    +0.128 A 
ATOM     27  C   UNL     1      -5.419  11.479   2.299  0.00  0.00    +0.046 A 
ATOM     28  C   UNL     1      -5.990  12.064   3.413  0.00  0.00    +0.004 A 
ATOM     29  C   UNL     1      -6.262  13.419   3.421  0.00  0.00    +0.000 A 
ATOM     30  C   UNL     1      -5.959  14.194   2.316  0.00  0.00    +0.004 A 
ATOM     31  C   UNL     1      -5.383  13.616   1.202  0.00  0.00    +0.046 A 
ENDBRANCH  25  26
ENDBRANCH  22  25
ENDBRANCH  16  19
ENDBRANCH   6  14
BRANCH   1  32
ATOM     32  N   UNL     1       3.404  -0.781   0.215  0.00  0.00    -0.330 N 
BRANCH  32  34
ATOM     33  C   UNL     1       3.443  -2.730  -1.262  0.00  0.00    +0.024 C 
ATOM     34  C   UNL     1       3.388  -2.246   0.188  0.00  0.00    +0.102 C 
ENDBRANCH  32  34
BRANCH  32  35
ATOM     35  C   UNL     1       4.680  -0.063   0.280  0.00  0.00    +0.102 C 
ATOM     36  C   UNL     1       5.064   0.162   1.744  0.00  0.00    +0.024 C 
ENDBRANCH  32  35
ENDBRANCH   1  32
TORSDOF 7
