REMARK  Name = ZINC15675448
REMARK  6 active torsions:
REMARK  status: ('A' for Active; 'I' for Inactive)
REMARK    1  A    between atoms: C_1  and  C_2
REMARK    2  A    between atoms: C_2  and  C_24
REMARK    3  A    between atoms: N_14  and  C_15
REMARK    4  A    between atoms: C_15  and  C_16
REMARK    5  A    between atoms: C_16  and  C_17
REMARK    6  A    between atoms: N_26  and  C_27
REMARK                            x       y       z     vdW  Elec       q    Type
REMARK                         _______ _______ _______ _____ _____    ______ ____
ROOT
ATOM      1  C   UNL     1       5.678  -4.510   0.874  0.00  0.00    +0.043 C 
ATOM      2  C   UNL     1       4.525  -3.867   1.648  0.00  0.00    +0.128 C 
ATOM      3  C   UNL     1       3.647  -4.973   2.231  0.00  0.00    +0.157 C 
ATOM      4  N   UNL     1       2.723  -4.389   3.209  0.00  0.00    -0.331 N 
ATOM      5  C   UNL     1       1.477  -4.791   3.584  0.00  0.00    +0.088 A 
ATOM      6  C   UNL     1       0.440  -5.735   3.389  0.00  0.00    +0.067 A 
ATOM      7  C   UNL     1      -0.556  -5.412   4.232  0.00  0.00    +0.198 A 
ATOM      8  O   UNL     1      -0.209  -4.326   4.942  0.00  0.00    -0.461 OA
ATOM      9  C   UNL     1       1.024  -3.917   4.572  0.00  0.00    +0.153 A 
ATOM     10  C   UNL     1       2.027  -2.959   4.785  0.00  0.00    +0.079 A 
ATOM     11  C   UNL     1       3.057  -3.252   3.941  0.00  0.00    +0.109 A 
ATOM     12  C   UNL     1       4.344  -2.577   3.733  0.00  0.00    +0.264 C 
ATOM     13  O   UNL     1       4.731  -1.692   4.475  0.00  0.00    -0.268 OA
ATOM     14  N   UNL     1       5.078  -2.990   2.674  0.00  0.00    -0.280 N 
ENDROOT
BRANCH   2  15
ATOM     15  C   UNL     1       3.700  -3.042   0.694  0.00  0.00    +0.238 C 
ATOM     16  O   UNL     1       3.672  -3.324  -0.485  0.00  0.00    -0.273 OA
ATOM     17  N   UNL     1       2.994  -1.989   1.152  0.00  0.00    -0.311 N 
ATOM     18  H   UNL     1       3.016  -1.763   2.095  0.00  0.00    +0.149 HD
BRANCH  17  19
ATOM     19  C   UNL     1       2.192  -1.187   0.225  0.00  0.00    +0.073 C 
ATOM     20  C   UNL     1       1.056  -0.506   0.991  0.00  0.00    +0.022 C 
ATOM     21  C   UNL     1       0.002  -0.004   0.002  0.00  0.00    +0.002 C 
ATOM     22  C   UNL     1      -0.019   1.526   0.010  0.00  0.00    +0.000 C 
ATOM     23  C   UNL     1       1.417   2.055  -0.000  0.00  0.00    +0.000 C 
ATOM     24  C   UNL     1       2.003   1.910  -1.406  0.00  0.00    +0.000 C 
ATOM     25  C   UNL     1       2.370   0.447  -1.657  0.00  0.00    +0.002 C 
ATOM     26  C   UNL     1       3.077  -0.121  -0.425  0.00  0.00    +0.022 C 
ENDBRANCH  17  19
ENDBRANCH   2  15
BRANCH  14  27
ATOM     27  C   UNL     1       6.468  -2.544   2.554  0.00  0.00    +0.114 C 
BRANCH  27  28
ATOM     28  C   UNL     1       6.517  -1.236   1.761  0.00  0.00    +0.054 C 
BRANCH  28  29
ATOM     29  C   UNL     1       7.947  -0.776   1.638  0.00  0.00    -0.046 A 
ATOM     30  C   UNL     1       8.489   0.060   2.596  0.00  0.00    +0.005 A 
ATOM     31  C   UNL     1       9.802   0.477   2.487  0.00  0.00    +0.020 A 
ATOM     32  C   UNL     1      10.570   0.067   1.412  0.00  0.00    +0.041 A 
ATOM     33  C   UNL     1      10.025  -0.765   0.450  0.00  0.00    +0.020 A 
ATOM     34  C   UNL     1       8.714  -1.186   0.564  0.00  0.00    +0.005 A 
ATOM     35 CL   UNL     1      12.217   0.596   1.270  0.00  0.00    -0.084 Cl
ENDBRANCH  28  29
ENDBRANCH  27  28
ENDBRANCH  14  27
TORSDOF 5
