REMARK  Name = ZINC46634243
REMARK  7 active torsions:
REMARK  status: ('A' for Active; 'I' for Inactive)
REMARK    1  A    between atoms: C_1  and  C_2
REMARK    2  A    between atoms: C_2  and  C_3
REMARK    3  A    between atoms: C_2  and  C_4
REMARK    4  A    between atoms: C_2  and  C_5
REMARK    5  A    between atoms: C_12  and  C_14
REMARK    6  A    between atoms: C_19  and  C_22
REMARK    7  A    between atoms: N_24  and  C_25
REMARK                            x       y       z     vdW  Elec       q    Type
REMARK                         _______ _______ _______ _____ _____    ______ ____
ROOT
ATOM      1  C   UNL     1       0.731  -0.011  -1.308  0.00  0.00    -0.001 C 
ATOM      2  C   UNL     1      -0.080  -0.215  -2.591  0.00  0.00    +0.009 C 
ATOM      3  C   UNL     1       0.611  -1.285  -3.447  0.00  0.00    +0.043 C 
ATOM      4  C   UNL     1       2.072  -0.954  -3.533  0.00  0.00    -0.006 A 
ATOM      5  C   UNL     1       2.757  -0.075  -2.745  0.00  0.00    -0.036 A 
ATOM      6  C   UNL     1       4.110   0.073  -3.009  0.00  0.00    +0.024 A 
ATOM      7  C   UNL     1       4.632  -0.684  -4.042  0.00  0.00    +0.075 A 
ATOM      8  S   UNL     1       3.193  -1.576  -4.602  0.00  0.00    -0.088 S 
ATOM      9  C   UNL     1       2.047   0.696  -1.636  0.00  0.00    +0.040 C 
ENDROOT
BRANCH   7  10
ATOM     10  C   UNL     1       6.007  -0.739  -4.545  0.00  0.00    +0.253 C 
ATOM     11  O   UNL     1       6.930  -0.385  -3.835  0.00  0.00    -0.269 OA
ATOM     12  N   UNL     1       6.251  -1.181  -5.795  0.00  0.00    -0.297 N 
ATOM     13  C   UNL     1       7.629  -1.383  -6.262  0.00  0.00    +0.109 C 
ATOM     14  C   UNL     1       7.825  -0.607  -7.569  0.00  0.00    +0.032 C 
ATOM     15  C   UNL     1       6.752  -1.030  -8.575  0.00  0.00    +0.078 C 
ATOM     16  C   UNL     1       5.367  -0.695  -8.017  0.00  0.00    +0.032 C 
ATOM     17  C   UNL     1       5.143  -1.477  -6.713  0.00  0.00    +0.109 C 
BRANCH  15  18
ATOM     18  C   UNL     1       6.962  -0.294  -9.873  0.00  0.00    +0.216 C 
ATOM     19  O   UNL     1       7.880   0.491  -9.983  0.00  0.00    -0.276 OA
ATOM     20  N   UNL     1       6.130  -0.509 -10.911  0.00  0.00    -0.318 N 
ATOM     21  C   UNL     1       6.335   0.206 -12.173  0.00  0.00    +0.128 C 
ATOM     22  H   UNL     1       5.397  -1.137 -10.823  0.00  0.00    +0.148 HD
ENDBRANCH  15  18
ENDBRANCH   7  10
BRANCH   1  24
ATOM     23  C   UNL     1      -0.372   2.204  -0.963  0.00  0.00    +0.011 C 
ATOM     24  C   UNL     1      -0.074   0.844  -0.328  0.00  0.00    -0.035 C 
ATOM     25  C   UNL     1       0.733   1.047   0.956  0.00  0.00    +0.011 C 
ATOM     26  C   UNL     1      -1.390   0.137   0.004  0.00  0.00    +0.011 C 
ENDBRANCH   1  24
TORSDOF 3
