REMARK  Name = ZINC13713363
REMARK  4 active torsions:
REMARK  status: ('A' for Active; 'I' for Inactive)
REMARK    1  A    between atoms: C_1  and  S_2
REMARK    2  A    between atoms: S_2  and  C_3
REMARK    3  A    between atoms: C_6  and  C_30
REMARK    4  A    between atoms: C_17  and  C_19
REMARK                            x       y       z     vdW  Elec       q    Type
REMARK                         _______ _______ _______ _____ _____    ______ ____
ROOT
ATOM      1  C   UNL     1       0.848  -0.411  -1.489  0.00  0.00    +0.210 A 
ATOM      2  N   UNL     1       1.097  -1.629  -1.918  0.00  0.00    -0.141 NA
ATOM      3  N   UNL     1       1.779  -1.498  -3.128  0.00  0.00    -0.220 N 
ATOM      4  C   UNL     1       2.284  -2.527  -4.029  0.00  0.00    +0.175 C 
ATOM      5  C   UNL     1       3.224  -1.918  -5.040  0.00  0.00    +0.025 C 
ATOM      6  C   UNL     1       3.310  -0.600  -5.230  0.00  0.00    +0.050 C 
ATOM      7  C   UNL     1       4.248  -0.095  -6.260  0.00  0.00    +0.039 A 
ATOM      8  C   UNL     1       4.640   1.238  -6.295  0.00  0.00    +0.033 A 
ATOM      9  C   UNL     1       5.517   1.665  -7.274  0.00  0.00    +0.042 A 
ATOM     10  C   UNL     1       6.001   0.772  -8.216  0.00  0.00    +0.023 A 
ATOM     11  C   UNL     1       5.616  -0.556  -8.187  0.00  0.00    +0.048 A 
ATOM     12  C   UNL     1       4.740  -0.997  -7.213  0.00  0.00    +0.131 A 
ATOM     13  O   UNL     1       4.339  -2.292  -7.151  0.00  0.00    -0.479 OA
ATOM     14  C   UNL     1       4.104  -2.839  -5.853  0.00  0.00    +0.234 C 
ATOM     15 CL   UNL     1       6.012   3.328  -7.326  0.00  0.00    -0.084 Cl
ATOM     16  N   UNL     1       2.552   0.312  -4.486  0.00  0.00    -0.283 N 
ATOM     17  C   UNL     1       1.906  -0.168  -3.358  0.00  0.00    +0.220 A 
ATOM     18  N   UNL     1       1.338   0.472  -2.373  0.00  0.00    -0.187 NA
ATOM     19  H   UNL     1       2.482   1.243  -4.750  0.00  0.00    +0.155 HD
ENDROOT
BRANCH  14  20
ATOM     20  C   UNL     1       5.422  -3.020  -5.145  0.00  0.00    -0.003 A 
ATOM     21  C   UNL     1       6.398  -2.045  -5.240  0.00  0.00    +0.009 A 
ATOM     22  C   UNL     1       7.606  -2.211  -4.590  0.00  0.00    +0.020 A 
ATOM     23  C   UNL     1       7.840  -3.353  -3.845  0.00  0.00    +0.041 A 
ATOM     24  C   UNL     1       6.863  -4.328  -3.750  0.00  0.00    +0.020 A 
ATOM     25  C   UNL     1       5.652  -4.159  -4.395  0.00  0.00    +0.009 A 
ATOM     26 CL   UNL     1       9.358  -3.562  -3.029  0.00  0.00    -0.084 Cl
ENDBRANCH  14  20
BRANCH   4  27
ATOM     27  C   UNL     1       1.128  -3.171  -4.751  0.00  0.00    +0.016 A 
ATOM     28  C   UNL     1       0.301  -2.406  -5.552  0.00  0.00    +0.009 A 
ATOM     29  C   UNL     1      -0.759  -2.996  -6.214  0.00  0.00    +0.001 A 
ATOM     30  C   UNL     1      -0.994  -4.351  -6.075  0.00  0.00    +0.003 A 
ATOM     31  C   UNL     1      -0.169  -5.118  -5.275  0.00  0.00    +0.039 A 
ATOM     32  C   UNL     1       0.897  -4.529  -4.616  0.00  0.00    +0.129 A 
ATOM     33  F   UNL     1       1.707  -5.278  -3.837  0.00  0.00    -0.205 F 
ENDBRANCH   4  27
BRANCH   1  35
ATOM     34  C   UNL     1      -0.022   1.810   0.012  0.00  0.00    +0.093 C 
ATOM     35  S   UNL     1       0.002  -0.004   0.002  0.00  0.00    -0.088 S 
ENDBRANCH   1  35
TORSDOF 3
