REMARK  Name = ZINC58964143
REMARK  9 active torsions:
REMARK  status: ('A' for Active; 'I' for Inactive)
REMARK    1  A    between atoms: C_1  and  C_2
REMARK    2  A    between atoms: C_5  and  O_34
REMARK    3  A    between atoms: C_6  and  N_8
REMARK    4  A    between atoms: C_9  and  C_11
REMARK    5  A    between atoms: C_11  and  C_13
REMARK    6  A    between atoms: C_11  and  S_14
REMARK    7  A    between atoms: S_14  and  C_15
REMARK    8  A    between atoms: C_17  and  C_25
REMARK    9  A    between atoms: C_19  and  C_21
REMARK                            x       y       z     vdW  Elec       q    Type
REMARK                         _______ _______ _______ _____ _____    ______ ____
ROOT
ATOM      1  C   UNL     1       1.195  -2.870   7.525  0.00  0.00    +0.190 A 
ATOM      2  N   UNL     1       1.690  -2.370   8.648  0.00  0.00    -0.222 NA
ATOM      3  C   UNL     1       1.872  -3.147   9.713  0.00  0.00    +0.076 A 
ATOM      4  C   UNL     1       1.533  -4.501   9.630  0.00  0.00    +0.060 A 
ATOM      5  C   UNL     1       1.020  -4.980   8.438  0.00  0.00    +0.148 A 
ATOM      6  N   UNL     1       0.861  -4.149   7.420  0.00  0.00    -0.218 NA
ENDROOT
BRANCH   3   7
ATOM      7  C   UNL     1       2.426  -2.586  10.968  0.00  0.00    +0.004 A 
ATOM      8  C   UNL     1       2.618  -3.410  12.076  0.00  0.00    +0.014 A 
ATOM      9  C   UNL     1       3.134  -2.887  13.243  0.00  0.00    +0.050 A 
ATOM     10  C   UNL     1       3.463  -1.541  13.319  0.00  0.00    +0.166 A 
ATOM     11  C   UNL     1       3.273  -0.713  12.214  0.00  0.00    +0.167 A 
ATOM     12  C   UNL     1       2.761  -1.234  11.040  0.00  0.00    +0.059 A 
ATOM     13  O   UNL     1       3.670   0.551  12.543  0.00  0.00    -0.453 OA
ATOM     14  C   UNL     1       3.720   0.576  13.982  0.00  0.00    +0.466 C 
ATOM     15  O   UNL     1       3.979  -0.795  14.339  0.00  0.00    -0.453 OA
ENDBRANCH   3   7
BRANCH   5  16
ATOM     16  C   UNL     1       0.641  -6.433   8.301  0.00  0.00    +0.434 C 
ATOM     17  F   UNL     1      -0.697  -6.602   8.672  0.00  0.00    -0.164 F 
ATOM     18  F   UNL     1       0.811  -6.836   6.972  0.00  0.00    -0.164 F 
ATOM     19  F   UNL     1       1.457  -7.208   9.132  0.00  0.00    -0.164 F 
ENDBRANCH   5  16
BRANCH   1  20
ATOM     20  S   UNL     1       0.969  -1.807   6.138  0.00  0.00    -0.074 S 
BRANCH  20  21
ATOM     21  C   UNL     1       0.279  -2.894   4.860  0.00  0.00    +0.137 C 
ATOM     22  C   UNL     1      -1.101  -3.388   5.301  0.00  0.00    +0.029 C 
BRANCH  21  24
ATOM     23  N   UNL     1       0.050  -2.795   2.399  0.00  0.00    -0.282 N 
ATOM     24  C   UNL     1       0.149  -2.130   3.568  0.00  0.00    +0.230 C 
ATOM     25  O   UNL     1       0.134  -0.917   3.579  0.00  0.00    -0.274 OA
ATOM     26  H   UNL     1      -0.002  -3.763   2.395  0.00  0.00    +0.155 HD
BRANCH  23  32
ATOM     27  C   UNL     1      -1.307   1.189  -0.143  0.00  0.00    +0.044 C 
ATOM     28  C   UNL     1      -0.627  -0.153  -0.071  0.00  0.00    -0.048 A 
ATOM     29  C   UNL     1      -0.029  -0.685  -1.199  0.00  0.00    +0.007 A 
ATOM     30  C   UNL     1       0.596  -1.917  -1.139  0.00  0.00    +0.047 A 
ATOM     31  C   UNL     1       0.625  -2.622   0.054  0.00  0.00    +0.138 A 
ATOM     32  C   UNL     1       0.024  -2.086   1.191  0.00  0.00    +0.076 A 
ATOM     33  C   UNL     1      -0.597  -0.847   1.124  0.00  0.00    +0.030 A 
BRANCH  31  34
ATOM     34  O   UNL     1       1.239  -3.834   0.115  0.00  0.00    -0.505 OA
ATOM     35  H   UNL     1       2.177  -3.788   0.347  0.00  0.00    +0.292 HD
ENDBRANCH  31  34
ENDBRANCH  23  32
ENDBRANCH  21  24
ENDBRANCH  20  21
ENDBRANCH   1  20
TORSDOF 7
