REMARK  Name = ZINC39491291
REMARK  12 active torsions:
REMARK  status: ('A' for Active; 'I' for Inactive)
REMARK    1  A    between atoms: C_1  and  C_2
REMARK    2  A    between atoms: C_2  and  C_4
REMARK    3  A    between atoms: C_2  and  C_27
REMARK    4  A    between atoms: C_4  and  N_5
REMARK    5  A    between atoms: C_7  and  C_18
REMARK    6  A    between atoms: C_12  and  C_14
REMARK    7  A    between atoms: C_14  and  O_16
REMARK    8  A    between atoms: O_16  and  C_17
REMARK    9  A    between atoms: C_18  and  N_19
REMARK   10  A    between atoms: N_19  and  C_20
REMARK   11  A    between atoms: C_25  and  O_26
REMARK   12  A    between atoms: C_32  and  O_33
REMARK                            x       y       z     vdW  Elec       q    Type
REMARK                         _______ _______ _______ _____ _____    ______ ____
ROOT
ATOM      1  N   UNL     1       2.125  -0.091  -1.209  0.00  0.00    -0.346 N 
ATOM      2  C   UNL     1       2.635   1.040  -1.786  0.00  0.00    +0.092 A 
ATOM      3  C   UNL     1       3.955   1.116  -1.557  0.00  0.00    -0.005 A 
ATOM      4  C   UNL     1       4.320  -0.065  -0.769  0.00  0.00    +0.005 A 
ATOM      5  C   UNL     1       3.125  -0.787  -0.575  0.00  0.00    +0.049 A 
ATOM      6  C   UNL     1       3.148  -1.974   0.155  0.00  0.00    +0.027 A 
ATOM      7  C   UNL     1       4.319  -2.434   0.681  0.00  0.00    +0.017 A 
ATOM      8  C   UNL     1       5.513  -1.723   0.498  0.00  0.00    +0.060 A 
ATOM      9  C   UNL     1       5.515  -0.538  -0.234  0.00  0.00    +0.025 A 
ENDROOT
BRANCH   8  10
ATOM     10  C   UNL     1       6.771  -2.234   1.075  0.00  0.00    +0.339 C 
ATOM     11  O   UNL     1       7.806  -1.618   0.917  0.00  0.00    -0.245 OA
BRANCH  10  12
ATOM     12  O   UNL     1       6.771  -3.384   1.778  0.00  0.00    -0.464 OA
ATOM     13  C   UNL     1       8.025  -3.819   2.308  0.00  0.00    +0.280 C 
ENDBRANCH  10  12
ENDBRANCH   8  10
BRANCH   1  14
ATOM     14  C   UNL     1       0.718  -0.497  -1.257  0.00  0.00    +0.129 C 
BRANCH  14  16
ATOM     15  C   UNL     1      -0.019   1.526   0.010  0.00  0.00    +0.014 C 
ATOM     16  C   UNL     1       0.002  -0.004   0.002  0.00  0.00    +0.039 C 
BRANCH  16  17
ATOM     17  C   UNL     1      -1.412  -0.526   0.013  0.00  0.00    -0.001 A 
ATOM     18  C   UNL     1      -2.276  -0.203  -1.016  0.00  0.00    +0.007 A 
ATOM     19  C   UNL     1      -3.573  -0.681  -1.007  0.00  0.00    +0.001 A 
ATOM     20  C   UNL     1      -4.009  -1.483   0.032  0.00  0.00    +0.004 A 
ATOM     21  C   UNL     1      -3.149  -1.809   1.062  0.00  0.00    +0.046 A 
ATOM     22  C   UNL     1      -1.845  -1.335   1.053  0.00  0.00    +0.120 A 
BRANCH  22  23
ATOM     23  O   UNL     1      -0.996  -1.659   2.063  0.00  0.00    -0.506 OA
ATOM     24  H   UNL     1      -1.010  -1.037   2.803  0.00  0.00    +0.292 HD
ENDBRANCH  22  23
ENDBRANCH  16  17
ENDBRANCH  14  16
ENDBRANCH   1  14
BRANCH   3  25
ATOM     25  C   UNL     1       4.885   2.207  -2.022  0.00  0.00    +0.139 C 
BRANCH  25  26
ATOM     26  N   UNL     1       5.609   1.756  -3.214  0.00  0.00    -0.337 N 
ATOM     27  H   UNL     1       5.445   0.871  -3.575  0.00  0.00    +0.147 HD
BRANCH  26  28
ATOM     28  C   UNL     1       6.537   2.603  -3.832  0.00  0.00    +0.069 A 
ATOM     29  C   UNL     1       6.776   3.867  -3.313  0.00  0.00    +0.026 A 
ATOM     30  C   UNL     1       7.693   4.702  -3.925  0.00  0.00    +0.002 A 
ATOM     31  C   UNL     1       8.373   4.279  -5.053  0.00  0.00    +0.004 A 
ATOM     32  C   UNL     1       8.139   3.020  -5.574  0.00  0.00    +0.047 A 
ATOM     33  C   UNL     1       7.226   2.176  -4.965  0.00  0.00    +0.138 A 
BRANCH  33  34
ATOM     34  O   UNL     1       6.998   0.936  -5.474  0.00  0.00    -0.505 OA
ATOM     35  H   UNL     1       6.292   0.905  -6.134  0.00  0.00    +0.292 HD
ENDBRANCH  33  34
ENDBRANCH  26  28
ENDBRANCH  25  26
ENDBRANCH   3  25
TORSDOF 10
