REMARK  Name = ZINC09316862
REMARK  6 active torsions:
REMARK  status: ('A' for Active; 'I' for Inactive)
REMARK    1  A    between atoms: C_7  and  C_22
REMARK    2  A    between atoms: C_8  and  N_21
REMARK    3  A    between atoms: C_9  and  C_10
REMARK    4  A    between atoms: C_10  and  C_12
REMARK    5  A    between atoms: C_16  and  N_18
REMARK    6  A    between atoms: N_24  and  C_25
REMARK                            x       y       z     vdW  Elec       q    Type
REMARK                         _______ _______ _______ _____ _____    ______ ____
ROOT
ATOM      1  C   UNL     1      -1.003   1.774  -0.459  0.00  0.00    +0.003 A 
ATOM      2  C   UNL     1      -1.013   3.171  -0.371  0.00  0.00    +0.018 A 
ATOM      3  C   UNL     1       0.146   3.850  -0.204  0.00  0.00    +0.092 A 
ATOM      4  N   UNL     1       1.334   3.191  -0.114  0.00  0.00    -0.311 N 
ATOM      5  C   UNL     1       1.370   1.829  -0.190  0.00  0.00    +0.061 A 
ATOM      6  C   UNL     1       0.184   1.105  -0.362  0.00  0.00    +0.027 A 
ATOM      7  C   UNL     1       2.716   1.413  -0.067  0.00  0.00    +0.083 A 
ATOM      8  C   UNL     1       3.497   2.575   0.087  0.00  0.00    +0.067 A 
ATOM      9  C   UNL     1       2.628   3.664   0.056  0.00  0.00    +0.116 A 
ENDROOT
BRANCH   7  10
ATOM     10  C   UNL     1       3.206   0.035  -0.094  0.00  0.00    +0.252 C 
ATOM     11  O   UNL     1       3.524  -0.477  -1.152  0.00  0.00    -0.270 OA
ATOM     12  N   UNL     1       3.304  -0.667   1.052  0.00  0.00    -0.281 N 
ATOM     13  H   UNL     1       3.122  -0.237   1.902  0.00  0.00    +0.155 HD
BRANCH  12  14
ATOM     14  C   UNL     1       3.669  -2.017   1.015  0.00  0.00    +0.036 A 
ATOM     15  C   UNL     1       3.281  -2.814  -0.054  0.00  0.00    +0.043 A 
ATOM     16  C   UNL     1       3.648  -4.146  -0.090  0.00  0.00    +0.044 A 
ATOM     17  C   UNL     1       4.391  -4.689   0.943  0.00  0.00    +0.040 A 
ATOM     18  C   UNL     1       4.774  -3.899   2.013  0.00  0.00    +0.044 A 
ATOM     19  C   UNL     1       4.415  -2.564   2.051  0.00  0.00    +0.043 A 
ATOM     20 CL   UNL     1       5.706  -4.583   3.307  0.00  0.00    -0.083 Cl
ATOM     21 CL   UNL     1       3.170  -5.141  -1.430  0.00  0.00    -0.083 Cl
ENDBRANCH  12  14
ENDBRANCH   7  10
BRANCH   8  22
ATOM     22  N   UNL     1       4.873   2.627   0.240  0.00  0.00    -0.356 N 
ATOM     23  H   UNL     1       5.383   1.806   0.324  0.00  0.00    +0.142 HD
ATOM     24  H   UNL     1       5.327   3.484   0.263  0.00  0.00    +0.142 HD
ENDBRANCH   8  22
BRANCH   9  25
ATOM     25  C   UNL     1       3.000   5.017   0.176  0.00  0.00    +0.212 C 
ATOM     26  O   UNL     1       3.111   5.523   1.279  0.00  0.00    -0.285 OA
BRANCH  25  27
ATOM     27  C   UNL     1       3.256   5.825  -1.038  0.00  0.00    +0.026 A 
ATOM     28  C   UNL     1       3.025   5.282  -2.303  0.00  0.00    +0.012 A 
ATOM     29  C   UNL     1       3.260   6.042  -3.429  0.00  0.00    +0.003 A 
ATOM     30  C   UNL     1       3.736   7.336  -3.308  0.00  0.00    +0.033 A 
ATOM     31  C   UNL     1       3.973   7.878  -2.058  0.00  0.00    +0.127 A 
ATOM     32  C   UNL     1       3.736   7.130  -0.922  0.00  0.00    +0.044 A 
BRANCH  31  33
ATOM     33  N   UNL     1       4.482   9.262  -1.937  0.00  0.00    +0.056 N 
ATOM     34  O   UNL     1       4.691   9.740  -0.836  0.00  0.00    -0.126 OA
ATOM     35  O   UNL     1       4.692   9.923  -2.938  0.00  0.00    -0.126 OA
ENDBRANCH  31  33
ENDBRANCH  25  27
ENDBRANCH   9  25
TORSDOF 6
