REMARK  Name = ZINC02775675
REMARK  7 active torsions:
REMARK  status: ('A' for Active; 'I' for Inactive)
REMARK    1  A    between atoms: C_4  and  N_7
REMARK    2  A    between atoms: C_8  and  N_17
REMARK    3  A    between atoms: C_9  and  C_15
REMARK    4  A    between atoms: C_10  and  C_12
REMARK    5  A    between atoms: C_12  and  C_13
REMARK    6  A    between atoms: C_18  and  C_19
REMARK    7  A    between atoms: C_24  and  O_25
REMARK                            x       y       z     vdW  Elec       q    Type
REMARK                         _______ _______ _______ _____ _____    ______ ____
ROOT
ATOM      1  N   UNL     1      -2.080   1.701   2.980  0.00  0.00    -0.213 N 
ATOM      2  C   UNL     1      -1.330   2.840   3.016  0.00  0.00    +0.174 A 
ATOM      3  C   UNL     1      -0.451   2.779   1.927  0.00  0.00    +0.120 A 
ATOM      4  C   UNL     1      -0.718   1.572   1.248  0.00  0.00    +0.097 A 
ATOM      5  N   UNL     1      -1.674   0.944   1.876  0.00  0.00    -0.167 NA
ENDROOT
BRANCH   1   9
ATOM      6  C   UNL     1      -5.068   0.658   5.691  0.00  0.00    +0.000 A 
ATOM      7  C   UNL     1      -5.197   0.317   4.357  0.00  0.00    +0.002 A 
ATOM      8  C   UNL     1      -4.209   0.661   3.456  0.00  0.00    +0.028 A 
ATOM      9  C   UNL     1      -3.084   1.351   3.891  0.00  0.00    +0.068 A 
ATOM     10  C   UNL     1      -2.955   1.687   5.232  0.00  0.00    +0.028 A 
ATOM     11  C   UNL     1      -3.950   1.345   6.127  0.00  0.00    +0.002 A 
ENDBRANCH   1   9
BRANCH   3  12
ATOM     12  C   UNL     1       0.531   3.758   1.570  0.00  0.00    +0.105 C 
ATOM     13  N   UNL     1       1.310   4.535   1.286  0.00  0.00    -0.191 NA
ENDBRANCH   3  12
BRANCH   2  14
ATOM     14  N   UNL     1      -1.414   3.832   3.929  0.00  0.00    -0.234 NA
ATOM     15  C   UNL     1      -0.686   3.785   5.014  0.00  0.00    +0.124 C 
BRANCH  15  16
ATOM     16  C   UNL     1      -0.777   4.864   6.006  0.00  0.00    +0.036 A 
ATOM     17  C   UNL     1      -0.004   4.815   7.172  0.00  0.00    +0.028 A 
ATOM     18  C   UNL     1      -0.093   5.833   8.097  0.00  0.00    +0.019 A 
ATOM     19  C   UNL     1      -0.951   6.901   7.882  0.00  0.00    +0.019 A 
ATOM     20  C   UNL     1      -1.724   6.959   6.738  0.00  0.00    +0.047 A 
ATOM     21  C   UNL     1      -1.645   5.947   5.794  0.00  0.00    +0.125 A 
ATOM     22 BR   UNL     1       0.957   5.771   9.669  0.00  0.00    -0.050 Br
BRANCH  21  23
ATOM     23  O   UNL     1      -2.404   6.003   4.670  0.00  0.00    -0.506 OA
ATOM     24  H   UNL     1      -3.270   5.583   4.759  0.00  0.00    +0.292 HD
ENDBRANCH  21  23
ENDBRANCH  15  16
ENDBRANCH   2  14
BRANCH   4  25
ATOM     25  C   UNL     1      -0.013   1.086   0.008  0.00  0.00    +0.177 C 
BRANCH  25  26
ATOM     26  C   UNL     1      -0.725   1.573  -1.185  0.00  0.00    +0.069 C 
ATOM     27  N   UNL     1      -1.274   1.950  -2.105  0.00  0.00    -0.196 NA
ENDBRANCH  25  26
ENDBRANCH   4  25
TORSDOF 7
