REMARK  Name = ZINC09971132
REMARK  5 active torsions:
REMARK  status: ('A' for Active; 'I' for Inactive)
REMARK    1  A    between atoms: C_1  and  C_2
REMARK    2  A    between atoms: C_5  and  N_9
REMARK    3  A    between atoms: C_7  and  C_8
REMARK    4  A    between atoms: C_19  and  S_22
REMARK    5  A    between atoms: S_22  and  C_25
REMARK                            x       y       z     vdW  Elec       q    Type
REMARK                         _______ _______ _______ _____ _____    ______ ____
ROOT
ATOM      1  N   UNL     1      -5.460   2.560   0.775  0.00  0.00    -0.298 N 
ATOM      2  C   UNL     1      -4.351   2.490   1.602  0.00  0.00    +0.141 A 
ATOM      3  C   UNL     1      -4.449   2.884   2.940  0.00  0.00    +0.078 A 
ATOM      4  C   UNL     1      -3.352   2.828   3.805  0.00  0.00    +0.087 A 
ATOM      5  C   UNL     1      -3.587   3.252   5.114  0.00  0.00    +0.036 A 
ATOM      6  C   UNL     1      -4.816   3.683   5.479  0.00  0.00    +0.048 A 
ATOM      7  S   UNL     1      -5.750   3.517   3.967  0.00  0.00    -0.092 S 
ATOM      8  N   UNL     1      -2.165   2.354   3.238  0.00  0.00    -0.192 N 
ATOM      9  C   UNL     1      -2.116   1.985   1.923  0.00  0.00    +0.204 A 
ATOM     10  N   UNL     1      -3.197   2.051   1.128  0.00  0.00    -0.208 NA
ATOM     11  C   UNL     1      -0.815   1.567   1.695  0.00  0.00    +0.249 A 
ATOM     12  N   UNL     1      -0.129   1.694   2.824  0.00  0.00    -0.108 NA
ATOM     13  N   UNL     1      -0.883   2.154   3.761  0.00  0.00    -0.057 NA
ATOM     14  H   UNL     1      -6.324   2.804   1.142  0.00  0.00    +0.154 HD
ENDROOT
BRANCH   1  19
ATOM     15  C   UNL     1      -4.947   1.414  -4.756  0.00  0.00    +0.044 C 
ATOM     16  C   UNL     1      -5.083   1.718  -3.287  0.00  0.00    -0.047 A 
ATOM     17  C   UNL     1      -4.038   2.317  -2.606  0.00  0.00    +0.005 A 
ATOM     18  C   UNL     1      -4.162   2.602  -1.261  0.00  0.00    +0.023 A 
ATOM     19  C   UNL     1      -5.333   2.278  -0.588  0.00  0.00    +0.033 A 
ATOM     20  C   UNL     1      -6.381   1.677  -1.275  0.00  0.00    +0.027 A 
ATOM     21  C   UNL     1      -6.253   1.399  -2.622  0.00  0.00    -0.046 A 
ATOM     22  C   UNL     1      -7.389   0.748  -3.367  0.00  0.00    +0.044 C 
ENDBRANCH   1  19
BRANCH  11  23
ATOM     23  S   UNL     1      -0.177   0.975   0.163  0.00  0.00    +0.047 S 
ATOM     24  O   UNL     1       1.226   1.197   0.194  0.00  0.00    -0.163 OA
ATOM     25  O   UNL     1      -1.010   1.508  -0.857  0.00  0.00    -0.163 OA
BRANCH  23  26
ATOM     26  C   UNL     1      -0.410  -0.772   0.141  0.00  0.00    +0.095 A 
ATOM     27  C   UNL     1       0.576  -1.606   0.633  0.00  0.00    +0.027 A 
ATOM     28  C   UNL     1       0.391  -2.976   0.621  0.00  0.00    +0.002 A 
ATOM     29  C   UNL     1      -0.775  -3.512   0.107  0.00  0.00    +0.000 A 
ATOM     30  C   UNL     1      -1.759  -2.677  -0.389  0.00  0.00    +0.002 A 
ATOM     31  C   UNL     1      -1.576  -1.307  -0.372  0.00  0.00    +0.027 A 
ENDBRANCH  23  26
ENDBRANCH  11  23
TORSDOF 3
