REMARK  Name = ZINC36690317
REMARK  11 active torsions:
REMARK  status: ('A' for Active; 'I' for Inactive)
REMARK    1  A    between atoms: C_1  and  C_2
REMARK    2  A    between atoms: C_5  and  C_37
REMARK    3  A    between atoms: N_8  and  S_10
REMARK    4  A    between atoms: S_10  and  C_13
REMARK    5  A    between atoms: C_16  and  C_19
REMARK    6  A    between atoms: N_21  and  C_22
REMARK    7  A    between atoms: C_22  and  C_23
REMARK    8  A    between atoms: C_23  and  C_24
REMARK    9  A    between atoms: C_24  and  N_25
REMARK   10  A    between atoms: N_25  and  C_26
REMARK   11  A    between atoms: N_25  and  C_27
REMARK                            x       y       z     vdW  Elec       q    Type
REMARK                         _______ _______ _______ _____ _____    ______ ____
ROOT
ATOM      1  C   UNL     1       2.040   6.160   1.315  0.00  0.00    +0.252 C 
ATOM      2  O   UNL     1       3.024   6.617   0.767  0.00  0.00    -0.270 OA
ATOM      3  N   UNL     1       1.046   6.980   1.710  0.00  0.00    -0.246 N 
ATOM      4  C   UNL     1       1.088   8.325   1.383  0.00  0.00    +0.168 A 
ATOM      5  N   UNL     1       0.227   9.271   1.679  0.00  0.00    -0.224 NA
ATOM      6  C   UNL     1       0.397  10.554   1.292  0.00  0.00    +0.080 A 
ATOM      7  C   UNL     1      -0.447  11.660   1.542  0.00  0.00    +0.029 A 
ATOM      8  C   UNL     1      -0.125  12.907   1.073  0.00  0.00    +0.002 A 
ATOM      9  C   UNL     1       1.033  13.129   0.341  0.00  0.00    +0.001 A 
ATOM     10  C   UNL     1       1.882  12.070   0.078  0.00  0.00    +0.017 A 
ATOM     11  C   UNL     1       1.567  10.818   0.544  0.00  0.00    +0.041 A 
ATOM     12  S   UNL     1       2.332   9.216   0.460  0.00  0.00    -0.052 S 
ENDROOT
BRANCH   1  16
ATOM     13  C   UNL     1       1.733   1.977   1.986  0.00  0.00    +0.106 A 
ATOM     14  C   UNL     1       1.413   2.863   3.000  0.00  0.00    +0.029 A 
ATOM     15  C   UNL     1       1.511   4.223   2.789  0.00  0.00    +0.015 A 
ATOM     16  C   UNL     1       1.934   4.705   1.549  0.00  0.00    +0.037 A 
ATOM     17  C   UNL     1       2.255   3.806   0.530  0.00  0.00    +0.015 A 
ATOM     18  C   UNL     1       2.159   2.448   0.756  0.00  0.00    +0.029 A 
BRANCH  13  19
ATOM     19  S   UNL     1       1.606   0.242   2.264  0.00  0.00    +0.061 S 
ATOM     20  O   UNL     1       1.444  -0.363   0.989  0.00  0.00    -0.153 OA
ATOM     21  O   UNL     1       0.665   0.067   3.315  0.00  0.00    -0.153 OA
BRANCH  19  27
ATOM     22  C   UNL     1       5.183   1.547   1.899  0.00  0.00    +0.009 C 
ATOM     23  C   UNL     1       5.405   0.069   2.229  0.00  0.00    +0.002 C 
ATOM     24  C   UNL     1       5.755  -0.076   3.712  0.00  0.00    +0.009 C 
ATOM     25  C   UNL     1       4.623   0.502   4.564  0.00  0.00    +0.002 C 
ATOM     26  C   UNL     1       3.335  -0.281   4.293  0.00  0.00    +0.112 C 
ATOM     27  N   UNL     1       3.069  -0.269   2.848  0.00  0.00    -0.176 NA
ATOM     28  C   UNL     1       4.125  -0.719   1.931  0.00  0.00    +0.112 C 
ATOM     29  C   UNL     1       4.989   0.387   6.045  0.00  0.00    +0.009 C 
ENDBRANCH  19  27
ENDBRANCH  13  19
ENDBRANCH   1  16
BRANCH   3  30
ATOM     30  C   UNL     1      -0.078   6.449   2.484  0.00  0.00    +0.114 C 
BRANCH  30  31
ATOM     31  C   UNL     1       0.153   6.721   3.971  0.00  0.00    +0.001 C 
BRANCH  31  32
ATOM     32  C   UNL     1      -0.952   6.050   4.790  0.00  0.00    -0.078 C 
BRANCH  32  33
ATOM     33  N   UNL     1      -0.730   6.311   6.219  0.00  0.00    +0.376 N 
ATOM     34  C   UNL     1      -1.853   5.769   6.996  0.00  0.00    -0.097 C 
ATOM     35  C   UNL     1       0.518   5.665   6.646  0.00  0.00    -0.097 C 
ATOM     36  H   UNL     1      -0.663   7.306   6.372  0.00  0.00    -0.083 HD
ENDBRANCH  32  33
ENDBRANCH  31  32
ENDBRANCH  30  31
ENDBRANCH   3  30
TORSDOF 7
