REMARK  Name = ZINC16461634
REMARK  9 active torsions:
REMARK  status: ('A' for Active; 'I' for Inactive)
REMARK    1  A    between atoms: C_1  and  C_2
REMARK    2  A    between atoms: C_2  and  N_62
REMARK    3  A    between atoms: C_8  and  C_10
REMARK    4  A    between atoms: C_13  and  C_15
REMARK    5  A    between atoms: C_15  and  S_16
REMARK    6  A    between atoms: S_16  and  C_17
REMARK    7  A    between atoms: C_20  and  C_29
REMARK    8  A    between atoms: N_21  and  C_22
REMARK    9  A    between atoms: C_27  and  C_28
REMARK                            x       y       z     vdW  Elec       q    Type
REMARK                         _______ _______ _______ _____ _____    ______ ____
ROOT
ATOM      1  S   UNL     1       2.197  -5.774   0.231  0.00  0.00    -0.079 S 
ENDROOT
BRANCH   1   2
ATOM      2  C   UNL     1       0.983  -4.528  -0.050  0.00  0.00    +0.197 A 
ATOM      3  N   UNL     1      -0.267  -4.724  -0.407  0.00  0.00    -0.122 NA
ATOM      4  N   UNL     1      -0.875  -3.598  -0.524  0.00  0.00    -0.128 NA
ATOM      5  C   UNL     1      -0.051  -2.612  -0.251  0.00  0.00    +0.171 A 
ATOM      6  N   UNL     1       1.167  -3.177   0.056  0.00  0.00    -0.270 N 
BRANCH   6   7
ATOM      7  C   UNL     1       2.348  -2.507   0.406  0.00  0.00    +0.053 A 
ATOM      8  C   UNL     1       2.619  -2.225   1.738  0.00  0.00    +0.026 A 
ATOM      9  C   UNL     1       3.783  -1.566   2.080  0.00  0.00    +0.002 A 
ATOM     10  C   UNL     1       4.678  -1.186   1.097  0.00  0.00    +0.000 A 
ATOM     11  C   UNL     1       4.411  -1.465  -0.230  0.00  0.00    +0.005 A 
ATOM     12  C   UNL     1       3.251  -2.130  -0.578  0.00  0.00    -0.026 A 
ATOM     13  C   UNL     1       2.964  -2.439  -2.025  0.00  0.00    +0.046 C 
ENDBRANCH   6   7
BRANCH   5  14
ATOM     14  C   UNL     1      -0.370  -1.169  -0.275  0.00  0.00    +0.038 A 
ATOM     15  C   UNL     1      -1.701  -0.734  -0.300  0.00  0.00    +0.014 A 
ATOM     16  C   UNL     1      -1.945   0.628  -0.322  0.00  0.00    +0.020 A 
ATOM     17  C   UNL     1      -0.878   1.508  -0.318  0.00  0.00    +0.111 A 
ATOM     18  N   UNL     1       0.366   1.069  -0.293  0.00  0.00    -0.263 NA
ATOM     19  C   UNL     1       0.650  -0.217  -0.272  0.00  0.00    +0.122 A 
ENDBRANCH   5  14
ENDBRANCH   1   2
BRANCH   1  20
ATOM     20  C   UNL     1       1.212  -7.255  -0.109  0.00  0.00    +0.140 C 
BRANCH  20  24
ATOM     21  C   UNL     1       3.064 -10.253   1.123  0.00  0.00    +0.133 A 
ATOM     22  C   UNL     1       3.663 -10.558  -0.072  0.00  0.00    +0.080 A 
ATOM     23  S   UNL     1       3.047  -9.302  -1.099  0.00  0.00    -0.079 S 
ATOM     24  C   UNL     1       2.069  -8.481   0.074  0.00  0.00    +0.089 A 
ATOM     25  N   UNL     1       2.265  -9.186   1.158  0.00  0.00    -0.239 NA
BRANCH  21  31
ATOM     26  C   UNL     1       2.872  -8.541   4.774  0.00  0.00    -0.060 C 
ATOM     27  C   UNL     1       2.184  -9.345   3.665  0.00  0.00    +0.089 C 
ATOM     28  N   UNL     1       2.873 -10.637   3.529  0.00  0.00    -0.300 N 
ATOM     29  C   UNL     1       3.080 -11.447   4.739  0.00  0.00    +0.089 C 
ATOM     30  C   UNL     1       3.738 -10.558   5.807  0.00  0.00    -0.060 C 
ATOM     31  C   UNL     1       3.298 -11.071   2.325  0.00  0.00    +0.265 C 
ATOM     32  O   UNL     1       3.875 -12.137   2.233  0.00  0.00    -0.268 OA
ATOM     33  N   UNL     1       2.896  -9.358   6.007  0.00  0.00    +0.382 N 
ATOM     34  H   UNL     1       1.938  -9.657   6.227  0.00  0.00    -0.082 HD
BRANCH  33  36
ATOM     35  C   UNL     1       3.227  -9.345   8.430  0.00  0.00    -0.017 C 
ATOM     36  C   UNL     1       3.420  -8.557   7.133  0.00  0.00    -0.082 C 
ENDBRANCH  33  36
ENDBRANCH  21  31
ENDBRANCH  20  24
ENDBRANCH   1  20
TORSDOF 7
