REMARK  Name = ZINC36005433
REMARK  15 active torsions:
REMARK  status: ('A' for Active; 'I' for Inactive)
REMARK    1  A    between atoms: C_1  and  C_2
REMARK    2  A    between atoms: C_2  and  O_3
REMARK    3  A    between atoms: O_3  and  C_4
REMARK    4  A    between atoms: C_4  and  C_6
REMARK    5  A    between atoms: C_7  and  C_24
REMARK    6  A    between atoms: N_8  and  C_23
REMARK    7  A    between atoms: C_12  and  C_14
REMARK    8  A    between atoms: C_17  and  C_20
REMARK    9  A    between atoms: C_20  and  C_21
REMARK   10  A    between atoms: C_20  and  C_22
REMARK   11  A    between atoms: C_24  and  N_25
REMARK   12  A    between atoms: N_34  and  C_35
REMARK   13  A    between atoms: C_35  and  C_36
REMARK   14  A    between atoms: C_35  and  C_37
REMARK   15  A    between atoms: C_35  and  C_38
REMARK                            x       y       z     vdW  Elec       q    Type
REMARK                         _______ _______ _______ _____ _____    ______ ____
ROOT
ATOM      1  C   UNL     1      -2.649  -2.602   0.605  0.00  0.00    +0.076 C 
ATOM      2  C   UNL     1      -3.125  -3.765   0.109  0.00  0.00    +0.010 C 
ATOM      3  N   UNL     1      -4.441  -3.901  -0.228  0.00  0.00    -0.264 N 
ATOM      4  C   UNL     1      -5.346  -2.921  -0.100  0.00  0.00    +0.307 C 
ATOM      5  O   UNL     1      -6.496  -3.137  -0.427  0.00  0.00    -0.252 OA
ATOM      6  N   UNL     1      -5.022  -1.705   0.381  0.00  0.00    -0.288 N 
ATOM      7  C   UNL     1      -3.626  -1.457   0.780  0.00  0.00    +0.143 C 
ATOM      8  C   UNL     1      -4.889  -5.190  -0.761  0.00  0.00    +0.139 C 
ATOM      9  H   UNL     1      -5.693  -1.010   0.466  0.00  0.00    +0.151 HD
ENDROOT
BRANCH   7  10
ATOM     10  C   UNL     1      -3.119  -0.287  -0.023  0.00  0.00    -0.022 A 
ATOM     11  C   UNL     1      -3.338  -0.238  -1.387  0.00  0.00    +0.006 A 
ATOM     12  C   UNL     1      -2.873   0.836  -2.123  0.00  0.00    +0.004 A 
ATOM     13  C   UNL     1      -2.189   1.860  -1.496  0.00  0.00    -0.045 A 
ATOM     14  C   UNL     1      -1.971   1.811  -0.132  0.00  0.00    +0.004 A 
ATOM     15  C   UNL     1      -2.440   0.740   0.606  0.00  0.00    +0.006 A 
BRANCH  13  16
ATOM     16  C   UNL     1      -1.681   3.030  -2.299  0.00  0.00    +0.013 C 
ATOM     17  C   UNL     1      -2.316   4.321  -1.777  0.00  0.00    +0.012 C 
ATOM     18  C   UNL     1      -0.160   3.119  -2.163  0.00  0.00    +0.012 C 
ENDBRANCH  13  16
ENDBRANCH   7  10
BRANCH   1  19
ATOM     19  C   UNL     1      -1.286  -2.460   0.955  0.00  0.00    +0.339 C 
ATOM     20  O   UNL     1      -0.545  -3.425   0.922  0.00  0.00    -0.245 OA
BRANCH  19  21
ATOM     21  O   UNL     1      -0.806  -1.254   1.324  0.00  0.00    -0.462 OA
BRANCH  21  23
ATOM     22  C   UNL     1       0.937   0.252   2.054  0.00  0.00    +0.048 C 
ATOM     23  C   UNL     1       0.580  -1.184   1.664  0.00  0.00    +0.229 C 
ENDBRANCH  21  23
ENDBRANCH  19  21
ENDBRANCH   1  19
BRANCH   2  24
ATOM     24  C   UNL     1      -2.188  -4.930  -0.077  0.00  0.00    -0.026 C 
BRANCH  24  25
ATOM     25  N   UNL     1      -2.031  -5.640   1.200  0.00  0.00    +0.384 N 
ATOM     26  C   UNL     1      -0.927  -6.587   1.068  0.00  0.00    -0.077 C 
ATOM     27  C   UNL     1      -0.275  -6.786   2.419  0.00  0.00    +0.000 C 
ATOM     28  C   UNL     1      -0.904  -8.005   3.117  0.00  0.00    +0.107 C 
ATOM     29  N   UNL     1      -2.363  -8.050   2.894  0.00  0.00    -0.287 N 
ATOM     30  C   UNL     1      -3.192  -6.864   2.946  0.00  0.00    +0.091 C 
ATOM     31  C   UNL     1      -3.273  -6.218   1.544  0.00  0.00    -0.059 C 
ATOM     32  C   UNL     1      -2.944  -9.238   2.633  0.00  0.00    +0.303 C 
ATOM     33  O   UNL     1      -2.287 -10.260   2.683  0.00  0.00    -0.253 OA
ATOM     34  N   UNL     1      -4.253  -9.293   2.317  0.00  0.00    -0.294 N 
ATOM     35  H   UNL     1      -4.760  -8.474   2.205  0.00  0.00    +0.151 HD
ATOM     36  H   UNL     1      -1.787  -4.966   1.909  0.00  0.00    -0.081 HD
BRANCH  34  37
ATOM     37  C   UNL     1      -4.910 -10.591   2.141  0.00  0.00    +0.028 C 
ATOM     38  C   UNL     1      -4.810 -11.393   3.440  0.00  0.00    +0.031 C 
ATOM     39  C   UNL     1      -6.383 -10.373   1.789  0.00  0.00    +0.031 C 
ATOM     40  C   UNL     1      -4.224 -11.361   1.011  0.00  0.00    +0.031 C 
ENDBRANCH  34  37
ENDBRANCH  24  25
ENDBRANCH   2  24
TORSDOF 8
