REMARK  Name = ZINC20168333
REMARK  9 active torsions:
REMARK  status: ('A' for Active; 'I' for Inactive)
REMARK    1  A    between atoms: C_1  and  C_2
REMARK    2  A    between atoms: C_2  and  O_3
REMARK    3  A    between atoms: O_3  and  C_4
REMARK    4  A    between atoms: C_4  and  C_6
REMARK    5  A    between atoms: C_10  and  N_11
REMARK    6  A    between atoms: C_12  and  C_14
REMARK    7  A    between atoms: C_14  and  N_15
REMARK    8  A    between atoms: C_18  and  C_21
REMARK    9  A    between atoms: C_21  and  C_22
REMARK                            x       y       z     vdW  Elec       q    Type
REMARK                         _______ _______ _______ _____ _____    ______ ____
ROOT
ATOM      1  N   UNL     1       5.329  -2.502   2.007  0.00  0.00    -0.281 N 
ATOM      2  C   UNL     1       6.607  -2.402   1.590  0.00  0.00    +0.201 C 
ATOM      3  O   UNL     1       6.903  -1.600   0.730  0.00  0.00    -0.278 OA
ATOM      4  H   UNL     1       5.060  -3.229   2.787  0.00  0.00    +0.155 HD
ENDROOT
BRANCH   1   9
ATOM      5  C   UNL     1       2.999  -1.642   1.746  0.00  0.00    +0.091 A 
ATOM      6  C   UNL     1       2.179  -0.684   1.016  0.00  0.00    -0.021 A 
ATOM      7  C   UNL     1       2.846   0.061   0.110  0.00  0.00    -0.004 A 
ATOM      8  S   UNL     1       4.530  -0.480   0.224  0.00  0.00    -0.077 S 
ATOM      9  C   UNL     1       4.354  -1.688   1.453  0.00  0.00    +0.086 A 
ATOM     10  C   UNL     1       2.288   1.104  -0.807  0.00  0.00    +0.043 C 
ATOM     11  C   UNL     1       1.406   2.067  -0.000  0.00  0.00    +0.005 C 
ATOM     12  C   UNL     1      -0.019   1.523   0.010  0.00  0.00    +0.001 C 
ATOM     13  C   UNL     1       0.002  -0.004   0.002  0.00  0.00    +0.005 C 
ATOM     14  C   UNL     1       0.683  -0.534   1.259  0.00  0.00    +0.037 C 
BRANCH   5  15
ATOM     15  C   UNL     1       2.413  -2.527   2.756  0.00  0.00    +0.342 C 
ATOM     16  O   UNL     1       1.984  -3.618   2.433  0.00  0.00    -0.245 OA
BRANCH  15  17
ATOM     17  O   UNL     1       2.348  -2.131   4.043  0.00  0.00    -0.461 OA
BRANCH  17  19
ATOM     18  C   UNL     1       1.768  -2.440   6.388  0.00  0.00    +0.048 C 
ATOM     19  C   UNL     1       1.754  -3.059   4.989  0.00  0.00    +0.229 C 
ENDBRANCH  17  19
ENDBRANCH  15  17
ENDBRANCH   5  15
ENDBRANCH   1   9
BRANCH   2  20
ATOM     20  C   UNL     1       7.667  -3.287   2.193  0.00  0.00    +0.019 C 
BRANCH  20  21
ATOM     21  N   UNL     1       8.965  -2.987   1.575  0.00  0.00    +0.385 N 
ATOM     22  C   UNL     1       8.967  -3.350   0.152  0.00  0.00    -0.078 C 
ATOM     23  C   UNL     1      10.278  -2.892  -0.491  0.00  0.00    -0.015 C 
ATOM     24  C   UNL     1      11.454  -3.560   0.227  0.00  0.00    -0.010 C 
ATOM     25  C   UNL     1      11.401  -3.205   1.715  0.00  0.00    -0.015 C 
ATOM     26  C   UNL     1      10.058  -3.654   2.295  0.00  0.00    -0.078 C 
ATOM     27  H   UNL     1       9.132  -1.902   1.644  0.00  0.00    -0.081 HD
BRANCH  24  28
ATOM     28  C   UNL     1      12.770  -3.060  -0.372  0.00  0.00    +0.038 C 
BRANCH  28  29
ATOM     29  C   UNL     1      12.876  -3.517  -1.804  0.00  0.00    -0.047 A 
ATOM     30  C   UNL     1      13.474  -4.727  -2.102  0.00  0.00    +0.003 A 
ATOM     31  C   UNL     1      13.567  -5.147  -3.415  0.00  0.00    +0.000 A 
ATOM     32  C   UNL     1      13.071  -4.353  -4.432  0.00  0.00    +0.000 A 
ATOM     33  C   UNL     1      12.477  -3.141  -4.135  0.00  0.00    +0.000 A 
ATOM     34  C   UNL     1      12.380  -2.722  -2.821  0.00  0.00    +0.003 A 
ENDBRANCH  28  29
ENDBRANCH  24  28
ENDBRANCH  20  21
ENDBRANCH   2  20
TORSDOF 8
