REMARK  Name = ZINC23302708
REMARK  12 active torsions:
REMARK  status: ('A' for Active; 'I' for Inactive)
REMARK    1  A    between atoms: C_1  and  C_2
REMARK    2  A    between atoms: C_2  and  O_3
REMARK    3  A    between atoms: O_3  and  C_4
REMARK    4  A    between atoms: C_4  and  C_6
REMARK    5  A    between atoms: C_7  and  C_19
REMARK    6  A    between atoms: C_12  and  C_14
REMARK    7  A    between atoms: C_19  and  N_20
REMARK    8  A    between atoms: N_23  and  C_26
REMARK    9  A    between atoms: C_26  and  C_27
REMARK   10  A    between atoms: N_29  and  C_30
REMARK   11  A    between atoms: C_31  and  C_37
REMARK   12  A    between atoms: C_35  and  C_36
REMARK                            x       y       z     vdW  Elec       q    Type
REMARK                         _______ _______ _______ _____ _____    ______ ____
ROOT
ATOM      1  C   UNL     1       3.756  -2.934  -1.008  0.00  0.00    +0.135 C 
ENDROOT
BRANCH   1   3
ATOM      2  C   UNL     1       5.721  -1.657  -0.231  0.00  0.00    +0.082 C 
ATOM      3  C   UNL     1       4.499  -2.160   0.049  0.00  0.00    +0.038 C 
ATOM      4  N   UNL     1       3.926  -1.977   1.275  0.00  0.00    -0.271 N 
ATOM      5  C   UNL     1       4.510  -1.303   2.275  0.00  0.00    +0.304 C 
ATOM      6  O   UNL     1       3.921  -1.193   3.332  0.00  0.00    -0.252 OA
ATOM      7  N   UNL     1       5.729  -0.743   2.146  0.00  0.00    -0.285 N 
ATOM      8  C   UNL     1       6.436  -0.889   0.862  0.00  0.00    +0.179 C 
ATOM      9  H   UNL     1       3.047  -2.356   1.431  0.00  0.00    +0.156 HD
ATOM     10  H   UNL     1       6.133  -0.259   2.883  0.00  0.00    +0.151 HD
BRANCH   8  11
ATOM     11  C   UNL     1       6.732   0.493   0.341  0.00  0.00    +0.130 A 
ATOM     12  C   UNL     1       7.913   0.913  -0.147  0.00  0.00    +0.047 A 
ATOM     13  C   UNL     1       7.745   2.267  -0.518  0.00  0.00    +0.041 A 
ATOM     14  C   UNL     1       6.471   2.593  -0.235  0.00  0.00    +0.195 A 
ATOM     15  O   UNL     1       5.861   1.514   0.280  0.00  0.00    -0.466 OA
ENDBRANCH   8  11
BRANCH   2  16
ATOM     16  C   UNL     1       6.316  -1.846  -1.501  0.00  0.00    +0.339 C 
ATOM     17  O   UNL     1       5.778  -2.563  -2.324  0.00  0.00    -0.245 OA
BRANCH  16  18
ATOM     18  O   UNL     1       7.479  -1.232  -1.799  0.00  0.00    -0.462 OA
BRANCH  18  20
ATOM     19  C   UNL     1       9.333  -0.693  -3.252  0.00  0.00    +0.048 C 
ATOM     20  C   UNL     1       8.023  -1.467  -3.099  0.00  0.00    +0.229 C 
ENDBRANCH  18  20
ENDBRANCH  16  18
ENDBRANCH   2  16
ENDBRANCH   1   3
BRANCH   1  21
ATOM     21  N   UNL     1       4.164  -4.344  -0.960  0.00  0.00    -0.300 NA
ATOM     22  C   UNL     1       3.622  -5.010   0.232  0.00  0.00    +0.066 C 
ATOM     23  C   UNL     1       4.118  -6.457   0.276  0.00  0.00    -0.063 C 
ATOM     24  N   UNL     1       3.684  -7.160  -0.938  0.00  0.00    +0.387 N 
ATOM     25  C   UNL     1       4.255  -6.499  -2.119  0.00  0.00    -0.063 C 
ATOM     26  C   UNL     1       3.759  -5.052  -2.183  0.00  0.00    +0.066 C 
ATOM     27  H   UNL     1       2.677  -7.142  -0.996  0.00  0.00    -0.081 HD
BRANCH  24  28
ATOM     28  C   UNL     1       4.146  -8.554  -0.888  0.00  0.00    +0.019 C 
BRANCH  28  29
ATOM     29  C   UNL     1       3.598  -9.308  -2.072  0.00  0.00    +0.201 C 
ATOM     30  O   UNL     1       2.893  -8.740  -2.879  0.00  0.00    -0.278 OA
ATOM     31  N   UNL     1       3.892 -10.613  -2.235  0.00  0.00    -0.287 N 
ATOM     32  H   UNL     1       4.511 -11.050  -1.629  0.00  0.00    +0.155 HD
BRANCH  31  33
ATOM     33  C   UNL     1       3.305 -11.338  -3.278  0.00  0.00    +0.039 A 
ATOM     34  C   UNL     1       4.099 -12.075  -4.146  0.00  0.00    -0.029 A 
ATOM     35  C   UNL     1       3.517 -12.789  -5.175  0.00  0.00    +0.005 A 
ATOM     36  C   UNL     1       2.144 -12.770  -5.341  0.00  0.00    +0.001 A 
ATOM     37  C   UNL     1       1.350 -12.036  -4.479  0.00  0.00    +0.005 A 
ATOM     38  C   UNL     1       1.926 -11.325  -3.444  0.00  0.00    -0.029 A 
ATOM     39  C   UNL     1       1.060 -10.531  -2.501  0.00  0.00    +0.045 C 
ATOM     40  C   UNL     1       5.595 -12.096  -3.966  0.00  0.00    +0.045 C 
ENDBRANCH  31  33
ENDBRANCH  28  29
ENDBRANCH  24  28
ENDBRANCH   1  21
TORSDOF 9
