REMARK  Name = ZINC26457513
REMARK  8 active torsions:
REMARK  status: ('A' for Active; 'I' for Inactive)
REMARK    1  A    between atoms: C_1  and  C_2
REMARK    2  A    between atoms: C_2  and  C_3
REMARK    3  A    between atoms: C_2  and  C_4
REMARK    4  A    between atoms: C_4  and  N_5
REMARK    5  A    between atoms: C_9  and  C_11
REMARK    6  A    between atoms: C_11  and  N_12
REMARK    7  A    between atoms: C_16  and  C_18
REMARK    8  A    between atoms: N_20  and  C_21
REMARK                            x       y       z     vdW  Elec       q    Type
REMARK                         _______ _______ _______ _____ _____    ______ ____
ROOT
ATOM      1  N   UNL     1      -0.661   2.003  -1.225  0.00  0.00    +0.393 N 
ATOM      2  C   UNL     1       0.067   3.243  -1.598  0.00  0.00    -0.077 C 
ATOM      3  C   UNL     1       1.545   2.891  -1.296  0.00  0.00    -0.020 C 
ATOM      4  C   UNL     1       1.441   2.037  -0.011  0.00  0.00    -0.008 C 
ATOM      5  C   UNL     1      -0.003   1.502   0.001  0.00  0.00    +0.020 C 
ATOM      6  H   UNL     1      -0.634   1.256  -2.031  0.00  0.00    -0.080 HD
ENDROOT
BRANCH   5   7
ATOM      7  C   UNL     1       0.007  -0.004  -0.001  0.00  0.00    +0.204 C 
ATOM      8  O   UNL     1      -0.498  -0.613  -0.920  0.00  0.00    -0.277 OA
ATOM      9  N   UNL     1       0.579  -0.676   1.018  0.00  0.00    -0.286 N 
ATOM     10  H   UNL     1       1.102  -0.126   1.815  0.00  0.00    +0.155 HD
BRANCH   9  11
ATOM     11  C   UNL     1       0.506  -2.073   1.064  0.00  0.00    +0.052 A 
ATOM     12  C   UNL     1       0.541  -2.811  -0.112  0.00  0.00    +0.026 A 
ATOM     13  C   UNL     1       0.470  -4.189  -0.065  0.00  0.00    +0.022 A 
ATOM     14  C   UNL     1       0.364  -4.836   1.154  0.00  0.00    +0.042 A 
ATOM     15  C   UNL     1       0.330  -4.105   2.328  0.00  0.00    +0.041 A 
ATOM     16  C   UNL     1       0.406  -2.726   2.287  0.00  0.00    +0.064 A 
ATOM     17 CL   UNL     1       0.369  -1.808   3.760  0.00  0.00    -0.082 Cl
ATOM     18 CL   UNL     1       0.275  -6.569   1.210  0.00  0.00    -0.083 Cl
ENDBRANCH   9  11
ENDBRANCH   5   7
BRANCH   1  19
ATOM     19  C   UNL     1      -2.083   2.281  -0.984  0.00  0.00    +0.020 C 
BRANCH  19  24
ATOM     20  N   UNL     1      -5.774   4.390  -3.229  0.00  0.00    -0.299 N 
ATOM     21  C   UNL     1      -4.475   4.029  -3.228  0.00  0.00    +0.306 C 
ATOM     22  O   UNL     1      -3.769   4.295  -4.181  0.00  0.00    -0.252 OA
ATOM     23  N   UNL     1      -3.959   3.374  -2.169  0.00  0.00    -0.242 N 
ATOM     24  C   UNL     1      -2.660   3.013  -2.168  0.00  0.00    +0.204 C 
ATOM     25  O   UNL     1      -1.956   3.278  -3.119  0.00  0.00    -0.277 OA
ATOM     26  H   UNL     1      -6.412   4.149  -2.367  0.00  0.00    +0.150 HD
ATOM     27  H   UNL     1      -4.598   3.134  -1.306  0.00  0.00    +0.159 HD
BRANCH  20  28
ATOM     28  C   UNL     1      -6.335   5.102  -4.380  0.00  0.00    +0.108 C 
BRANCH  28  30
ATOM     29  C   UNL     1      -7.955   6.355  -2.949  0.00  0.00    +0.009 C 
ATOM     30  C   UNL     1      -7.816   5.391  -4.129  0.00  0.00    -0.000 C 
ATOM     31  C   UNL     1      -8.432   6.022  -5.379  0.00  0.00    +0.009 C 
ENDBRANCH  28  30
ENDBRANCH  20  28
ENDBRANCH  19  24
ENDBRANCH   1  19
TORSDOF 6
