REMARK  Name = ZINC44289430
REMARK  14 active torsions:
REMARK  status: ('A' for Active; 'I' for Inactive)
REMARK    1  A    between atoms: C_1  and  C_2
REMARK    2  A    between atoms: C_5  and  C_25
REMARK    3  A    between atoms: C_6  and  O_8
REMARK    4  A    between atoms: O_8  and  C_9
REMARK    5  A    between atoms: C_9  and  C_10
REMARK    6  A    between atoms: C_12  and  C_18
REMARK    7  A    between atoms: C_15  and  O_16
REMARK    8  A    between atoms: O_16  and  C_17
REMARK    9  A    between atoms: C_18  and  CA_19
REMARK   10  A    between atoms: CA_19  and  C_21
REMARK   11  A    between atoms: CA_19  and  N_24
REMARK   12  A    between atoms: C_25  and  C_26
REMARK   13  A    between atoms: C_25  and  C_27
REMARK   14  A    between atoms: C_25  and  C_28
REMARK                            x       y       z     vdW  Elec       q    Type
REMARK                         _______ _______ _______ _____ _____    ______ ____
ROOT
ATOM      1  C   UNL     1       0.063  -2.932   4.751  0.00  0.00    +0.031 A 
ATOM      2  C   UNL     1       0.086  -4.300   4.561  0.00  0.00    +0.014 A 
ATOM      3  C   UNL     1       0.102  -5.150   5.651  0.00  0.00    -0.048 A 
ATOM      4  C   UNL     1       0.095  -4.634   6.934  0.00  0.00    +0.007 A 
ATOM      5  C   UNL     1       0.072  -3.267   7.129  0.00  0.00    +0.046 A 
ATOM      6  C   UNL     1       0.062  -2.411   6.037  0.00  0.00    +0.126 A 
ENDROOT
BRANCH   6   7
ATOM      7  O   UNL     1       0.045  -1.065   6.226  0.00  0.00    -0.495 OA
ATOM      8  C   UNL     1       0.045  -0.600   7.577  0.00  0.00    +0.277 C 
ENDBRANCH   6   7
BRANCH   1   9
ATOM      9  C   UNL     1       0.045  -2.006   3.562  0.00  0.00    +0.268 C 
BRANCH   9  10
ATOM     10  O   UNL     1       0.050  -2.776   2.358  0.00  0.00    -0.487 OA
BRANCH  10  16
ATOM     11  C   UNL     1      -0.018   1.503   0.010  0.00  0.00    +0.044 C 
ATOM     12  C   UNL     1       0.002  -0.004   0.002  0.00  0.00    -0.047 A 
ATOM     13  C   UNL     1       0.006  -0.688  -1.200  0.00  0.00    +0.004 A 
ATOM     14  C   UNL     1       0.024  -2.071  -1.211  0.00  0.00    +0.008 A 
ATOM     15  C   UNL     1       0.039  -2.772  -0.020  0.00  0.00    -0.000 A 
ATOM     16  C   UNL     1       0.035  -2.088   1.186  0.00  0.00    +0.125 A 
ATOM     17  C   UNL     1       0.023  -0.700   1.195  0.00  0.00    +0.049 A 
BRANCH  15  18
ATOM     18  C   UNL     1       0.059  -4.279  -0.033  0.00  0.00    -0.009 C 
ATOM     19  C   UNL     1       0.058  -4.777  -1.480  0.00  0.00    +0.015 C 
ATOM     20  C   UNL     1       1.318  -4.779   0.678  0.00  0.00    +0.015 C 
ATOM     21  C   UNL     1      -1.181  -4.811   0.690  0.00  0.00    +0.015 C 
ENDBRANCH  15  18
ENDBRANCH  10  16
ENDBRANCH   9  10
ENDBRANCH   1   9
BRANCH   3  22
ATOM     22  C   UNL     1       0.126  -6.642   5.441  0.00  0.00    +0.030 C 
BRANCH  22  23
ATOM     23  CA  UNL     1       1.576  -7.124   5.368  0.00  0.00    +0.045 C 
BRANCH  23  24
ATOM     24  N   UNL     1       2.222  -6.553   4.178  0.00  0.00    +0.387 N 
ATOM     25  H1  UNL     1       2.204  -5.546   4.236  0.00  0.00    -0.089 HD
ATOM     26  H2  UNL     1       3.178  -6.871   4.129  0.00  0.00    -0.089 HD
ATOM     27  H3  UNL     1       1.726  -6.851   3.351  0.00  0.00    -0.089 HD
ENDBRANCH  23  24
BRANCH  23  28
ATOM     28  C   UNL     1       1.603  -8.628   5.281  0.00  0.00    +0.342 C 
ATOM     29  O   UNL     1       1.580  -9.176   4.192  0.00  0.00    -0.248 OA
ATOM     30  OXT UNL     1       1.647  -9.296   6.299  0.00  0.00    -0.248 OA
ENDBRANCH  23  28
ENDBRANCH  22  23
ENDBRANCH   3  22
TORSDOF 9
