REMARK  Name = ZINC29319219
REMARK  3 active torsions:
REMARK  status: ('A' for Active; 'I' for Inactive)
REMARK    1  A    between atoms: C_2  and  C_3
REMARK    2  A    between atoms: C_2  and  N_12
REMARK    3  A    between atoms: C_3  and  C_5
REMARK                            x       y       z     vdW  Elec       q    Type
REMARK                         _______ _______ _______ _____ _____    ______ ____
ROOT
ATOM      1  C   UNL     1      -0.075   1.408  -0.096  0.00  0.00    +0.040 C 
ATOM      2  C   UNL     1       0.005   0.073  -0.057  0.00  0.00    +0.090 C 
ENDROOT
BRANCH   2   3
ATOM      3  N   UNL     1       1.257  -0.551   0.025  0.00  0.00    -0.281 N 
ATOM      4  C   UNL     1       2.183  -0.331  -0.946  0.00  0.00    +0.095 A 
ATOM      5  C   UNL     1       3.401  -0.918  -0.884  0.00  0.00    +0.018 A 
ATOM      6  C   UNL     1       3.712  -1.773   0.182  0.00  0.00    +0.007 A 
ATOM      7  C   UNL     1       2.780  -1.997   1.153  0.00  0.00    +0.071 A 
ATOM      8  C   UNL     1       1.528  -1.367   1.062  0.00  0.00    +0.256 A 
ATOM      9  O   UNL     1       0.684  -1.559   1.923  0.00  0.00    -0.267 OA
ENDBRANCH   2   3
BRANCH   2  10
ATOM     10  C   UNL     1      -1.222  -0.741  -0.101  0.00  0.00    +0.209 C 
ATOM     11  O   UNL     1      -1.208  -1.834  -0.633  0.00  0.00    -0.285 OA
BRANCH  10  12
ATOM     12  C   UNL     1      -2.470  -0.229   0.501  0.00  0.00    +0.024 A 
ATOM     13  C   UNL     1      -2.454   0.948   1.253  0.00  0.00    +0.013 A 
ATOM     14  C   UNL     1      -3.623   1.424   1.808  0.00  0.00    +0.021 A 
ATOM     15  C   UNL     1      -4.809   0.731   1.631  0.00  0.00    +0.041 A 
ATOM     16  C   UNL     1      -4.831  -0.440   0.892  0.00  0.00    +0.021 A 
ATOM     17  C   UNL     1      -3.670  -0.923   0.327  0.00  0.00    +0.013 A 
ATOM     18 CL   UNL     1      -6.276   1.333   2.340  0.00  0.00    -0.084 Cl
ENDBRANCH  10  12
ENDBRANCH   2  10
TORSDOF 3
