REMARK  Name = ZINC11440569
REMARK  9 active torsions:
REMARK  status: ('A' for Active; 'I' for Inactive)
REMARK    1  A    between atoms: C_1  and  C_2
REMARK    2  A    between atoms: C_5  and  C_14
REMARK    3  A    between atoms: C_12  and  C_13
REMARK    4  A    between atoms: C_14  and  O_15
REMARK    5  A    between atoms: O_15  and  C_16
REMARK    6  A    between atoms: C_16  and  C_18
REMARK    7  A    between atoms: C_18  and  C_19
REMARK    8  A    between atoms: C_19  and  N_20
REMARK    9  A    between atoms: N_23  and  C_24
REMARK                            x       y       z     vdW  Elec       q    Type
REMARK                         _______ _______ _______ _____ _____    ______ ____
ROOT
ATOM      1  C   UNL     1      -8.629   0.577   1.955  0.00  0.00    +0.139 C 
ENDROOT
BRANCH   1   2
ATOM      2  C   UNL     1      -9.551   0.922   3.096  0.00  0.00    +0.309 C 
ATOM      3  O   UNL     1      -9.156   1.617   4.002  0.00  0.00    -0.251 OA
BRANCH   2   4
ATOM      4  O   UNL     1     -10.810   0.458   3.106  0.00  0.00    -0.460 OA
BRANCH   4   5
ATOM      5  C   UNL     1     -11.642   0.830   4.236  0.00  0.00    +0.268 C 
BRANCH   5  10
ATOM      6  C   UNL     1     -14.544   2.241   8.361  0.00  0.00    +0.044 C 
ATOM      7  C   UNL     1     -14.806   1.403   7.136  0.00  0.00    -0.047 A 
ATOM      8  C   UNL     1     -13.812   1.217   6.216  0.00  0.00    +0.015 A 
ATOM      9  C   UNL     1     -14.055   0.439   5.080  0.00  0.00    +0.024 A 
ATOM     10  C   UNL     1     -13.011   0.222   4.075  0.00  0.00    +0.007 A 
ATOM     11  C   UNL     1     -13.313  -0.539   2.992  0.00  0.00    +0.099 A 
ATOM     12  C   UNL     1     -14.601  -1.103   2.867  0.00  0.00    +0.338 A 
ATOM     13  O   UNL     1     -14.857  -1.787   1.894  0.00  0.00    -0.245 OA
ATOM     14  O   UNL     1     -15.552  -0.899   3.792  0.00  0.00    -0.422 OA
ATOM     15  C   UNL     1     -15.319  -0.148   4.890  0.00  0.00    +0.140 A 
ATOM     16  C   UNL     1     -16.313   0.054   5.837  0.00  0.00    +0.050 A 
ATOM     17  C   UNL     1     -16.053   0.825   6.952  0.00  0.00    -0.044 A 
ATOM     18  C   UNL     1     -17.135   1.041   7.978  0.00  0.00    +0.044 C 
ENDBRANCH   5  10
ENDBRANCH   4   5
ENDBRANCH   2   4
ENDBRANCH   1   2
BRANCH   1  19
ATOM     19  C   UNL     1      -7.264   1.227   2.188  0.00  0.00    +0.117 C 
BRANCH  19  20
ATOM     20  N   UNL     1      -6.368   0.892   1.079  0.00  0.00    -0.299 N 
ATOM     21  C   UNL     1      -5.103   1.358   1.069  0.00  0.00    +0.300 C 
ATOM     22  O   UNL     1      -4.706   2.058   1.981  0.00  0.00    -0.253 OA
ATOM     23  N   UNL     1      -4.279   1.049   0.049  0.00  0.00    -0.294 N 
ATOM     24  H   UNL     1      -6.684   0.334   0.351  0.00  0.00    +0.150 HD
ATOM     25  H   UNL     1      -4.595   0.491  -0.679  0.00  0.00    +0.151 HD
BRANCH  23  26
ATOM     26  C   UNL     1      -2.904   1.556   0.038  0.00  0.00    +0.037 C 
ATOM     27  C   UNL     1      -2.188   1.063  -1.221  0.00  0.00    +0.029 C 
ATOM     28  C   UNL     1      -0.753   1.593  -1.232  0.00  0.00    -0.008 C 
ATOM     29  C   UNL     1      -0.013   1.086   0.008  0.00  0.00    +0.007 C 
ATOM     30  C   UNL     1      -0.729   1.579   1.267  0.00  0.00    -0.008 C 
ATOM     31  C   UNL     1      -2.164   1.050   1.278  0.00  0.00    +0.029 C 
ATOM     32  C   UNL     1      -0.750   3.109   1.275  0.00  0.00    +0.007 C 
ATOM     33  C   UNL     1      -1.490   3.616   0.036  0.00  0.00    -0.008 C 
ATOM     34  C   UNL     1      -0.773   3.123  -1.223  0.00  0.00    +0.007 C 
ATOM     35  C   UNL     1      -2.925   3.086   0.047  0.00  0.00    +0.029 C 
ENDBRANCH  23  26
ENDBRANCH  19  20
ENDBRANCH   1  19
TORSDOF 7
