REMARK  Name = ZINC20905012
REMARK  15 active torsions:
REMARK  status: ('A' for Active; 'I' for Inactive)
REMARK    1  A    between atoms: C_1  and  C_2
REMARK    2  A    between atoms: C_2  and  C_3
REMARK    3  A    between atoms: C_3  and  C_5
REMARK    4  A    between atoms: C_3  and  C_6
REMARK    5  A    between atoms: C_9  and  N_12
REMARK    6  A    between atoms: C_13  and  C_15
REMARK    7  A    between atoms: C_15  and  S_16
REMARK    8  A    between atoms: S_16  and  C_17
REMARK    9  A    between atoms: N_22  and  N_23
REMARK   10  A    between atoms: C_24  and  C_25
REMARK   11  A    between atoms: C_26  and  C_34
REMARK   12  A    between atoms: N_28  and  C_31
REMARK   13  A    between atoms: C_29  and  C_30
REMARK   14  A    between atoms: C_31  and  C_32
REMARK   15  A    between atoms: C_31  and  C_33
REMARK                            x       y       z     vdW  Elec       q    Type
REMARK                         _______ _______ _______ _____ _____    ______ ____
ROOT
ATOM      1  C   UNL     1      -0.016   1.362   0.022  0.00  0.00    +0.211 A 
ATOM      2  N   UNL     1       0.003  -0.004   0.015  0.00  0.00    -0.186 NA
ATOM      3  C   UNL     1       1.309  -0.409   0.010  0.00  0.00    +0.232 A 
ATOM      4  N   UNL     1       2.065   0.663   0.014  0.00  0.00    -0.245 N 
ATOM      5  N   UNL     1       1.226   1.784   0.022  0.00  0.00    -0.144 NA
ATOM      6  N   UNL     1       1.756  -1.722   0.003  0.00  0.00    -0.205 N 
ATOM      7  H   UNL     1       1.031  -2.549   0.001  0.00  0.00    +0.177 HD
ATOM      8  H   UNL     1       3.160   0.563   0.011  0.00  0.00    +0.192 HD
ENDROOT
BRANCH   6   9
ATOM      9  N   UNL     1       3.130  -1.994  -0.001  0.00  0.00    -0.187 NA
ATOM     10  C   UNL     1       3.548  -3.223  -0.008  0.00  0.00    +0.141 C 
BRANCH  10  11
ATOM     11  C   UNL     1       4.996  -3.510  -0.013  0.00  0.00    +0.038 A 
ATOM     12  C   UNL     1       6.037  -2.558  -0.010  0.00  0.00    +0.069 A 
ATOM     13  N   UNL     1       7.175  -3.200  -0.016  0.00  0.00    -0.175 NA
ATOM     14  N   UNL     1       6.917  -4.575  -0.023  0.00  0.00    -0.265 N 
ATOM     15  C   UNL     1       5.581  -4.757  -0.015  0.00  0.00    +0.045 A 
ATOM     16  C   UNL     1       4.861  -6.081  -0.012  0.00  0.00    +0.066 C 
ATOM     17  C   UNL     1       5.867  -1.060  -0.003  0.00  0.00    +0.068 C 
BRANCH  14  18
ATOM     18  C   UNL     1       7.927  -5.636  -0.030  0.00  0.00    +0.101 C 
ATOM     19  C   UNL     1       8.799  -5.502  -1.281  0.00  0.00    +0.032 C 
ATOM     20  C   UNL     1       8.804  -5.515   1.218  0.00  0.00    +0.032 C 
ENDBRANCH  14  18
ENDBRANCH  10  11
ENDBRANCH   6   9
BRANCH   1  21
ATOM     21  S   UNL     1      -1.455   2.378   0.024  0.00  0.00    -0.075 S 
BRANCH  21  22
ATOM     22  C   UNL     1      -0.799   4.069   0.035  0.00  0.00    +0.173 C 
BRANCH  22  24
ATOM     23  N   UNL     1      -1.692   6.376   0.045  0.00  0.00    -0.285 N 
ATOM     24  C   UNL     1      -1.942   5.052   0.037  0.00  0.00    +0.227 C 
ATOM     25  O   UNL     1      -3.086   4.651   0.032  0.00  0.00    -0.275 OA
ATOM     26  H   UNL     1      -0.657   6.740   0.127  0.00  0.00    +0.155 HD
BRANCH  23  30
ATOM     27  C   UNL     1      -4.839   9.091  -0.239  0.00  0.00    -0.044 A 
ATOM     28  C   UNL     1      -5.012   7.904   0.449  0.00  0.00    +0.006 A 
ATOM     29  C   UNL     1      -3.970   7.002   0.545  0.00  0.00    +0.023 A 
ATOM     30  C   UNL     1      -2.749   7.288  -0.050  0.00  0.00    +0.033 A 
ATOM     31  C   UNL     1      -2.577   8.483  -0.736  0.00  0.00    +0.023 A 
ATOM     32  C   UNL     1      -3.624   9.379  -0.833  0.00  0.00    +0.006 A 
BRANCH  27  33
ATOM     33  C   UNL     1      -5.977  10.073  -0.342  0.00  0.00    +0.016 C 
ATOM     34  C   UNL     1      -6.328  10.295  -1.815  0.00  0.00    +0.012 C 
BRANCH  33  36
ATOM     35  C   UNL     1      -6.756  12.360   0.297  0.00  0.00    +0.004 C 
ATOM     36  C   UNL     1      -5.561  11.404   0.289  0.00  0.00    +0.004 C 
ENDBRANCH  33  36
ENDBRANCH  27  33
ENDBRANCH  23  30
ENDBRANCH  22  24
ENDBRANCH  21  22
ENDBRANCH   1  21
TORSDOF 9
