REMARK  Name = ZINC36304883
REMARK  4 active torsions:
REMARK  status: ('A' for Active; 'I' for Inactive)
REMARK    1  A    between atoms: C_6  and  N_7
REMARK    2  A    between atoms: N_10  and  C_13
REMARK    3  A    between atoms: C_13  and  C_19
REMARK    4  A    between atoms: C_19  and  N_20
REMARK                            x       y       z     vdW  Elec       q    Type
REMARK                         _______ _______ _______ _____ _____    ______ ____
ROOT
ATOM      1  N   UNL     1      -1.198  -0.721   0.010  0.00  0.00    -0.327 N 
ATOM      2  C   UNL     1      -2.490  -0.028   0.131  0.00  0.00    +0.120 C 
ATOM      3  C   UNL     1      -3.291  -0.685   1.259  0.00  0.00    +0.104 C 
ATOM      4  N   UNL     1      -3.381  -2.131   1.014  0.00  0.00    -0.295 NA
ATOM      5  C   UNL     1      -2.054  -2.759   1.036  0.00  0.00    +0.104 C 
ATOM      6  C   UNL     1      -1.202  -2.187  -0.108  0.00  0.00    +0.120 C 
ENDROOT
BRANCH   1  12
ATOM      7  C   UNL     1       1.216  -0.679   0.001  0.00  0.00    +0.024 A 
ATOM      8  C   UNL     1       2.400   0.031  -0.007  0.00  0.00    +0.022 A 
ATOM      9  C   UNL     1       2.378   1.415  -0.014  0.00  0.00    +0.041 A 
ATOM     10  C   UNL     1       1.170   2.090  -0.013  0.00  0.00    +0.022 A 
ATOM     11  C   UNL     1      -0.017   1.385  -0.005  0.00  0.00    +0.024 A 
ATOM     12  C   UNL     1       0.002  -0.004   0.002  0.00  0.00    +0.030 A 
ATOM     13 CL   UNL     1       3.869   2.305  -0.025  0.00  0.00    -0.084 Cl
ENDBRANCH   1  12
BRANCH   4  14
ATOM     14  C   UNL     1      -4.285  -2.773   1.978  0.00  0.00    +0.011 C 
ATOM     15  C   UNL     1      -3.753  -2.559   3.399  0.00  0.00    +0.048 C 
ATOM     16  C   UNL     1      -4.657  -3.297   4.390  0.00  0.00    +0.161 C 
ATOM     17  O   UNL     1      -4.702  -4.684   4.048  0.00  0.00    -0.380 OA
ATOM     18  C   UNL     1      -5.235  -4.949   2.749  0.00  0.00    +0.161 C 
ATOM     19  C   UNL     1      -4.354  -4.276   1.692  0.00  0.00    +0.048 C 
BRANCH  14  20
ATOM     20  C   UNL     1      -5.682  -2.163   1.855  0.00  0.00    -0.064 C 
BRANCH  20  21
ATOM     21  N   UNL     1      -6.191  -2.375   0.493  0.00  0.00    +0.379 N 
ATOM     22  H   UNL     1      -7.113  -1.973   0.412  0.00  0.00    -0.090 HD
ATOM     23  H   UNL     1      -5.571  -1.933  -0.170  0.00  0.00    -0.090 HD
ATOM     24  H   UNL     1      -6.237  -3.365   0.301  0.00  0.00    -0.090 HD
ENDBRANCH  20  21
ENDBRANCH  14  20
ENDBRANCH   4  14
TORSDOF 4
