REMARK  Name = ZINC15724651
REMARK  4 active torsions:
REMARK  status: ('A' for Active; 'I' for Inactive)
REMARK    1  A    between atoms: C_1  and  C_2
REMARK    2  A    between atoms: C_2  and  C_3
REMARK    3  A    between atoms: C_3  and  N_4
REMARK    4  A    between atoms: C_20  and  C_22
REMARK                            x       y       z     vdW  Elec       q    Type
REMARK                         _______ _______ _______ _____ _____    ______ ____
ROOT
ATOM      1  N   UNL     1       3.434   4.244   2.583  0.00  0.00    -0.299 N 
ATOM      2  C   UNL     1       4.012   3.319   1.792  0.00  0.00    +0.303 C 
ATOM      3  O   UNL     1       4.966   2.683   2.197  0.00  0.00    -0.253 OA
ATOM      4  N   UNL     1       3.534   3.100   0.551  0.00  0.00    -0.273 N 
ATOM      5  C   UNL     1       4.085   2.028  -0.294  0.00  0.00    +0.115 C 
ATOM      6  C   UNL     1       4.752   2.655  -1.524  0.00  0.00    +0.056 C 
ATOM      7  C   UNL     1       3.842   3.716  -2.088  0.00  0.00    -0.015 A 
ATOM      8  C   UNL     1       3.875   4.319  -3.405  0.00  0.00    +0.003 A 
ATOM      9  C   UNL     1       4.701   4.123  -4.516  0.00  0.00    +0.010 A 
ATOM     10  C   UNL     1       4.440   4.889  -5.626  0.00  0.00    +0.001 A 
ATOM     11  C   UNL     1       3.410   5.815  -5.655  0.00  0.00    +0.002 A 
ATOM     12  C   UNL     1       2.577   6.028  -4.571  0.00  0.00    +0.026 A 
ATOM     13  C   UNL     1       2.818   5.264  -3.430  0.00  0.00    +0.047 A 
ATOM     14  N   UNL     1       2.204   5.219  -2.212  0.00  0.00    -0.356 N 
ATOM     15  H   UNL     1       1.445   5.763  -1.949  0.00  0.00    +0.166 HD
ATOM     16  C   UNL     1       2.820   4.290  -1.417  0.00  0.00    +0.046 A 
ATOM     17  C   UNL     1       2.447   3.929   0.003  0.00  0.00    +0.157 C 
ATOM     18  H   UNL     1       2.630   4.700   2.289  0.00  0.00    +0.150 HD
ENDROOT
BRANCH  17  19
ATOM     19  C   UNL     1       1.156   3.151   0.011  0.00  0.00    +0.014 A 
ATOM     20  C   UNL     1       0.686   2.579  -1.156  0.00  0.00    +0.008 A 
ATOM     21  C   UNL     1      -0.497   1.865  -1.149  0.00  0.00    +0.001 A 
ATOM     22  C   UNL     1      -1.215   1.727   0.025  0.00  0.00    +0.003 A 
ATOM     23  C   UNL     1      -0.745   2.294   1.194  0.00  0.00    +0.039 A 
ATOM     24  C   UNL     1       0.441   3.009   1.188  0.00  0.00    +0.129 A 
ATOM     25  F   UNL     1       0.899   3.567   2.330  0.00  0.00    -0.205 F 
ENDBRANCH  17  19
BRANCH   1  26
ATOM     26  C   UNL     1       4.018   4.559   3.889  0.00  0.00    +0.105 C 
BRANCH  26  28
ATOM     27  C   UNL     1       3.785   5.962   5.943  0.00  0.00    +0.005 C 
ATOM     28  C   UNL     1       3.175   5.633   4.580  0.00  0.00    +0.015 C 
ENDBRANCH  26  28
ENDBRANCH   1  26
TORSDOF 3
