REMARK  Name = ZINC34915612
REMARK  9 active torsions:
REMARK  status: ('A' for Active; 'I' for Inactive)
REMARK    1  A    between atoms: C_4  and  C_8
REMARK    2  A    between atoms: C_8  and  O_9
REMARK    3  A    between atoms: O_9  and  C_10
REMARK    4  A    between atoms: C_10  and  C_12
REMARK    5  A    between atoms: C_10  and  C_31
REMARK    6  A    between atoms: C_12  and  N_13
REMARK    7  A    between atoms: N_21  and  C_22
REMARK    8  A    between atoms: C_25  and  C_28
REMARK    9  A    between atoms: C_28  and  C_29
REMARK                            x       y       z     vdW  Elec       q    Type
REMARK                         _______ _______ _______ _____ _____    ______ ____
ROOT
ATOM      1  N   UNL     1       6.431   0.621   2.293  0.00  0.00    +0.384 N 
ATOM      2  C   UNL     1       5.470   1.701   2.038  0.00  0.00    -0.059 C 
ATOM      3  C   UNL     1       6.148   3.054   2.276  0.00  0.00    +0.091 C 
ATOM      4  N   UNL     1       6.718   3.057   3.633  0.00  0.00    -0.289 N 
ATOM      5  C   UNL     1       7.566   1.923   4.031  0.00  0.00    +0.091 C 
ATOM      6  C   UNL     1       6.821   0.623   3.709  0.00  0.00    -0.059 C 
ATOM      7  C   UNL     1       6.471   4.071   4.486  0.00  0.00    +0.306 C 
ATOM      8  O   UNL     1       5.700   4.956   4.171  0.00  0.00    -0.252 OA
ATOM      9  N   UNL     1       7.078   4.102   5.689  0.00  0.00    -0.269 N 
ATOM     10  H   UNL     1       7.650   3.368   5.963  0.00  0.00    +0.156 HD
ATOM     11  H   UNL     1       7.250   0.760   1.720  0.00  0.00    -0.082 HD
ENDROOT
BRANCH   9  12
ATOM     12  C   UNL     1       6.883   5.193   6.543  0.00  0.00    +0.035 A 
ATOM     13  C   UNL     1       5.663   5.855   6.559  0.00  0.00    +0.023 A 
ATOM     14  C   UNL     1       5.473   6.931   7.403  0.00  0.00    +0.006 A 
ATOM     15  C   UNL     1       6.498   7.351   8.232  0.00  0.00    -0.034 A 
ATOM     16  C   UNL     1       7.715   6.694   8.217  0.00  0.00    +0.006 A 
ATOM     17  C   UNL     1       7.909   5.614   7.380  0.00  0.00    +0.023 A 
BRANCH  15  18
ATOM     18  C   UNL     1       6.288   8.526   9.152  0.00  0.00    +0.153 C 
BRANCH  18  19
ATOM     19  C   UNL     1       5.768   8.050  10.444  0.00  0.00    +0.067 C 
ATOM     20  N   UNL     1       5.367   7.683  11.442  0.00  0.00    -0.196 NA
ENDBRANCH  18  19
ENDBRANCH  15  18
ENDBRANCH   9  12
BRANCH   1  21
ATOM     21  C   UNL     1       5.815  -0.670   1.958  0.00  0.00    -0.042 C 
BRANCH  21  22
ATOM     22  C   UNL     1       6.902  -1.741   1.848  0.00  0.00    +0.132 C 
BRANCH  22  23
ATOM     23  C   UNL     1       6.266  -3.074   1.552  0.00  0.00    -0.021 A 
ATOM     24  C   UNL     1       5.978  -3.428   0.247  0.00  0.00    +0.007 A 
ATOM     25  C   UNL     1       5.394  -4.651  -0.025  0.00  0.00    +0.020 A 
ATOM     26  C   UNL     1       5.098  -5.521   1.010  0.00  0.00    +0.041 A 
ATOM     27  C   UNL     1       5.386  -5.166   2.316  0.00  0.00    +0.020 A 
ATOM     28  C   UNL     1       5.975  -3.945   2.586  0.00  0.00    +0.007 A 
ATOM     29 CL   UNL     1       4.364  -7.057   0.669  0.00  0.00    -0.084 Cl
ENDBRANCH  22  23
BRANCH  22  30
ATOM     30  O   UNL     1       7.803  -1.398   0.793  0.00  0.00    -0.369 OA
BRANCH  30  31
ATOM     31  C   UNL     1       9.139  -1.862   0.996  0.00  0.00    +0.201 C 
BRANCH  31  35
ATOM     32  C   UNL     1      11.575  -0.685  -2.314  0.00  0.00    +0.006 A 
ATOM     33  C   UNL     1      11.450   0.147  -1.218  0.00  0.00    +0.039 A 
ATOM     34  C   UNL     1      10.662  -0.233  -0.145  0.00  0.00    +0.131 A 
ATOM     35  C   UNL     1       9.997  -1.447  -0.171  0.00  0.00    +0.048 A 
ATOM     36  C   UNL     1      10.122  -2.280  -1.270  0.00  0.00    +0.131 A 
ATOM     37  C   UNL     1      10.912  -1.898  -2.341  0.00  0.00    +0.039 A 
ATOM     38  F   UNL     1       9.475  -3.465  -1.297  0.00  0.00    -0.205 F 
ATOM     39  F   UNL     1      10.541   0.581   0.926  0.00  0.00    -0.205 F 
ENDBRANCH  31  35
ENDBRANCH  30  31
ENDBRANCH  22  30
ENDBRANCH  21  22
ENDBRANCH   1  21
TORSDOF 9
