REMARK  Name = ZINC17136189
REMARK  5 active torsions:
REMARK  status: ('A' for Active; 'I' for Inactive)
REMARK    1  A    between atoms: C_1  and  C_2
REMARK    2  A    between atoms: N_4  and  C_26
REMARK    3  A    between atoms: C_8  and  C_9
REMARK    4  A    between atoms: C_10  and  O_25
REMARK    5  A    between atoms: N_15  and  C_18
REMARK                            x       y       z     vdW  Elec       q    Type
REMARK                         _______ _______ _______ _____ _____    ______ ____
ROOT
ATOM      1  C   UNL     1       1.736   6.676  -0.148  0.00  0.00    +0.068 C 
ATOM      2  C   UNL     1       2.756   5.578  -0.310  0.00  0.00    +0.069 C 
ATOM      3  N   UNL     1       4.036   5.735  -0.476  0.00  0.00    -0.176 NA
ATOM      4  N   UNL     1       4.664   4.494  -0.596  0.00  0.00    -0.156 N 
ATOM      5  C   UNL     1       3.751   3.509  -0.496  0.00  0.00    +0.272 C 
ATOM      6  O   UNL     1       3.965   2.310  -0.557  0.00  0.00    -0.268 OA
ATOM      7  C   UNL     1       2.488   4.135  -0.305  0.00  0.00    +0.062 C 
ATOM      8  C   UNL     1       1.253   3.510  -0.152  0.00  0.00    +0.033 C 
ENDROOT
BRANCH   4   9
ATOM      9  C   UNL     1       6.035   4.303  -0.790  0.00  0.00    +0.068 A 
ATOM     10  C   UNL     1       6.488   3.553  -1.853  0.00  0.00    +0.026 A 
ATOM     11  C   UNL     1       7.851   3.361  -2.059  0.00  0.00    +0.002 A 
ATOM     12  C   UNL     1       8.772   3.897  -1.212  0.00  0.00    +0.008 A 
ATOM     13  C   UNL     1       8.351   4.663  -0.112  0.00  0.00    -0.016 A 
ATOM     14  C   UNL     1       6.966   4.871   0.105  0.00  0.00    +0.005 A 
ATOM     15  C   UNL     1       6.548   5.636   1.204  0.00  0.00    +0.010 A 
ATOM     16  C   UNL     1       7.475   6.169   2.047  0.00  0.00    +0.001 A 
ATOM     17  C   UNL     1       8.837   5.966   1.835  0.00  0.00    +0.001 A 
ATOM     18  C   UNL     1       9.279   5.229   0.779  0.00  0.00    +0.008 A 
ENDBRANCH   4   9
BRANCH   8  19
ATOM     19  C   UNL     1       1.184   2.111  -0.034  0.00  0.00    +0.100 A 
ATOM     20  C   UNL     1       1.888   1.431   0.976  0.00  0.00    +0.207 A 
ATOM     21  N   UNL     1       1.790   0.075   1.050  0.00  0.00    -0.278 N 
ATOM     22  H   UNL     1       2.274  -0.399   1.745  0.00  0.00    +0.173 HD
ATOM     23  C   UNL     1       1.037  -0.620   0.183  0.00  0.00    +0.337 A 
ATOM     24  O   UNL     1       0.983  -1.829   0.294  0.00  0.00    -0.246 OA
ATOM     25  N   UNL     1       0.341  -0.030  -0.802  0.00  0.00    -0.228 N 
ATOM     26  C   UNL     1       0.371   1.309  -0.963  0.00  0.00    +0.272 A 
ATOM     27  O   UNL     1      -0.261   1.842  -1.856  0.00  0.00    -0.266 OA
BRANCH  25  28
ATOM     28  C   UNL     1      -0.427  -0.815  -1.673  0.00  0.00    +0.056 A 
ATOM     29  C   UNL     1      -1.813  -0.737  -1.641  0.00  0.00    +0.026 A 
ATOM     30  C   UNL     1      -2.567  -1.508  -2.504  0.00  0.00    +0.003 A 
ATOM     31  C   UNL     1      -1.944  -2.364  -3.393  0.00  0.00    +0.020 A 
ATOM     32  C   UNL     1      -0.563  -2.449  -3.424  0.00  0.00    +0.043 A 
ATOM     33  C   UNL     1       0.197  -1.676  -2.565  0.00  0.00    +0.046 A 
ATOM     34 CL   UNL     1       0.215  -3.526  -4.540  0.00  0.00    -0.083 Cl
ENDBRANCH  25  28
BRANCH  20  35
ATOM     35  O   UNL     1       2.643   2.111   1.857  0.00  0.00    -0.493 OA
ATOM     36  H   UNL     1       3.102   1.593   2.533  0.00  0.00    +0.294 HD
ENDBRANCH  20  35
ENDBRANCH   8  19
TORSDOF 4
