REMARK  Name = ZINC32932315
REMARK  10 active torsions:
REMARK  status: ('A' for Active; 'I' for Inactive)
REMARK    1  A    between atoms: C_1  and  C_2
REMARK    2  A    between atoms: C_2  and  O_3
REMARK    3  A    between atoms: O_3  and  C_4
REMARK    4  A    between atoms: C_4  and  C_6
REMARK    5  A    between atoms: C_9  and  N_33
REMARK    6  A    between atoms: C_10  and  C_16
REMARK    7  A    between atoms: C_14  and  C_15
REMARK    8  A    between atoms: N_18  and  C_19
REMARK    9  A    between atoms: N_18  and  C_25
REMARK   10  A    between atoms: C_19  and  C_20
REMARK                            x       y       z     vdW  Elec       q    Type
REMARK                         _______ _______ _______ _____ _____    ______ ____
ROOT
ATOM      1  C   UNL     1       1.777   6.826   2.747  0.00  0.00    +0.081 A 
ATOM      2  C   UNL     1       2.064   6.579   1.408  0.00  0.00    +0.029 A 
ATOM      3  C   UNL     1       1.530   5.423   0.797  0.00  0.00    +0.030 A 
ATOM      4  C   UNL     1       1.694   4.964  -0.575  0.00  0.00    +0.053 A 
ATOM      5  C   UNL     1       1.073   3.794  -0.951  0.00  0.00    +0.097 A 
ATOM      6  S   UNL     1       0.238   3.272   0.534  0.00  0.00    -0.062 S 
ATOM      7  C   UNL     1       0.728   4.592   1.616  0.00  0.00    +0.111 A 
ATOM      8  N   UNL     1       0.481   4.863   2.882  0.00  0.00    -0.244 NA
ATOM      9  C   UNL     1       0.970   5.935   3.467  0.00  0.00    +0.053 A 
ATOM     10  C   UNL     1       0.661   6.206   4.917  0.00  0.00    +0.066 C 
ENDROOT
BRANCH   5  11
ATOM     11  C   UNL     1       1.089   3.160  -2.219  0.00  0.00    +0.256 C 
ATOM     12  O   UNL     1       1.622   3.708  -3.167  0.00  0.00    -0.269 OA
ATOM     13  N   UNL     1       0.514   1.951  -2.375  0.00  0.00    -0.285 N 
BRANCH  13  14
ATOM     14  C   UNL     1       0.655   1.232  -3.643  0.00  0.00    +0.099 C 
ATOM     15  C   UNL     1       2.143   0.945  -3.903  0.00  0.00    +0.047 C 
ATOM     16  C   UNL     1       2.295   0.472  -5.377  0.00  0.00    +0.168 C 
ATOM     17  S   UNL     1       1.129   1.628  -6.224  0.00  0.00    -0.029 S 
ATOM     18  O   UNL     1       0.345   0.895  -7.155  0.00  0.00    -0.174 OA
ATOM     19  O   UNL     1       1.847   2.774  -6.662  0.00  0.00    -0.174 OA
ATOM     20  C   UNL     1       0.076   2.094  -4.790  0.00  0.00    +0.188 C 
ENDBRANCH  13  14
BRANCH  13  21
ATOM     21  C   UNL     1      -0.252   1.357  -1.276  0.00  0.00    +0.182 C 
BRANCH  21  22
ATOM     22  C   UNL     1       0.631   0.412  -0.502  0.00  0.00    +0.122 A 
ATOM     23  C   UNL     1       1.487   0.759   0.476  0.00  0.00    +0.046 A 
ATOM     24  C   UNL     1       2.102  -0.432   0.924  0.00  0.00    +0.041 A 
ATOM     25  C   UNL     1       1.593  -1.435   0.186  0.00  0.00    +0.195 A 
ATOM     26  O   UNL     1       0.702  -0.917  -0.676  0.00  0.00    -0.466 OA
ENDBRANCH  21  22
ENDBRANCH  13  21
ENDBRANCH   5  11
BRANCH   4  27
ATOM     27  N   UNL     1       2.456   5.687  -1.480  0.00  0.00    -0.356 N 
ATOM     28  H   UNL     1       2.570   5.328  -2.513  0.00  0.00    +0.142 HD
ATOM     29  H   UNL     1       2.946   6.620  -1.164  0.00  0.00    +0.142 HD
ENDBRANCH   4  27
BRANCH   1  30
ATOM     30  C   UNL     1       2.322   8.026   3.408  0.00  0.00    +0.341 C 
ATOM     31  O   UNL     1       1.983   8.302   4.542  0.00  0.00    -0.245 OA
BRANCH  30  32
ATOM     32  O   UNL     1       3.196   8.817   2.755  0.00  0.00    -0.461 OA
BRANCH  32  34
ATOM     33  C   UNL     1       4.664  10.752   2.572  0.00  0.00    +0.048 C 
ATOM     34  C   UNL     1       3.691   9.982   3.467  0.00  0.00    +0.229 C 
ENDBRANCH  32  34
ENDBRANCH  30  32
ENDBRANCH   1  30
TORSDOF 8
