REMARK  Name = ZINC35278693
REMARK  5 active torsions:
REMARK  status: ('A' for Active; 'I' for Inactive)
REMARK    1  A    between atoms: C_1  and  C_2
REMARK    2  A    between atoms: C_4  and  O_12
REMARK    3  A    between atoms: C_7  and  S_8
REMARK    4  A    between atoms: S_8  and  N_11
REMARK    5  A    between atoms: O_12  and  C_13
REMARK                            x       y       z     vdW  Elec       q    Type
REMARK                         _______ _______ _______ _____ _____    ______ ____
ROOT
ATOM      1  C   UNL     1      -1.480   1.240  -0.011  0.00  0.00    +0.046 C 
ATOM      2  C   UNL     1      -1.015  -0.194  -0.015  0.00  0.00    -0.021 A 
ATOM      3  C   UNL     1      -0.705  -0.816  -1.209  0.00  0.00    +0.051 A 
ATOM      4  C   UNL     1      -0.278  -2.136  -1.212  0.00  0.00    +0.129 A 
ATOM      5  C   UNL     1      -0.163  -2.828  -0.015  0.00  0.00    +0.048 A 
ATOM      6  C   UNL     1      -0.474  -2.201   1.176  0.00  0.00    +0.032 A 
ATOM      7  C   UNL     1      -0.895  -0.884   1.177  0.00  0.00    +0.108 A 
ENDROOT
BRANCH   7   8
ATOM      8  S   UNL     1      -1.284  -0.086   2.699  0.00  0.00    +0.056 S 
ATOM      9  O   UNL     1      -2.551   0.534   2.520  0.00  0.00    -0.153 OA
ATOM     10  O   UNL     1      -1.038  -1.033   3.729  0.00  0.00    -0.153 OA
BRANCH   8  11
ATOM     11  N   UNL     1      -0.185   1.136   2.906  0.00  0.00    -0.204 NA
ATOM     12  H   UNL     1      -0.436   1.937   3.392  0.00  0.00    +0.144 HD
ATOM     13  H   UNL     1       0.709   1.050   2.541  0.00  0.00    +0.144 HD
ENDBRANCH   8  11
ENDBRANCH   7   8
BRANCH   4  14
ATOM     14  O   UNL     1       0.028  -2.750  -2.385  0.00  0.00    -0.456 OA
BRANCH  14  15
ATOM     15  C   UNL     1      -0.092  -2.030  -3.532  0.00  0.00    +0.129 A 
ATOM     16  C   UNL     1       0.987  -1.302  -4.011  0.00  0.00    +0.047 A 
ATOM     17  C   UNL     1       0.862  -0.572  -5.177  0.00  0.00    +0.019 A 
ATOM     18  C   UNL     1      -0.337  -0.567  -5.867  0.00  0.00    +0.018 A 
ATOM     19  C   UNL     1      -1.414  -1.293  -5.391  0.00  0.00    +0.019 A 
ATOM     20  C   UNL     1      -1.293  -2.029  -4.228  0.00  0.00    +0.047 A 
ATOM     21 BR   UNL     1      -0.504   0.433  -7.463  0.00  0.00    -0.050 Br
ENDBRANCH  14  15
ENDBRANCH   4  14
TORSDOF 4
