REMARK  Name = ZINC26771295
REMARK  13 active torsions:
REMARK  status: ('A' for Active; 'I' for Inactive)
REMARK    1  A    between atoms: C_1  and  C_2
REMARK    2  A    between atoms: C_2  and  N_3
REMARK    3  A    between atoms: N_3  and  C_4
REMARK    4  A    between atoms: N_3  and  C_20
REMARK    5  A    between atoms: C_4  and  C_5
REMARK    6  A    between atoms: C_5  and  C_7
REMARK    7  A    between atoms: C_5  and  O_19
REMARK    8  A    between atoms: C_7  and  O_8
REMARK    9  A    between atoms: O_8  and  C_9
REMARK   10  A    between atoms: C_11  and  C_18
REMARK   11  A    between atoms: C_14  and  C_15
REMARK   12  A    between atoms: C_15  and  C_16
REMARK   13  A    between atoms: C_15  and  C_17
REMARK                            x       y       z     vdW  Elec       q    Type
REMARK                         _______ _______ _______ _____ _____    ______ ____
ROOT
ATOM      1  C   UNL     1       4.438   5.548   0.289  0.00  0.00    +0.135 C 
ENDROOT
BRANCH   1   2
ATOM      2  O   UNL     1       5.375   5.281  -0.757  0.00  0.00    -0.390 OA
ATOM      3  H   UNL     1       5.912   4.321  -0.782  0.00  0.00    +0.210 HD
ENDBRANCH   1   2
BRANCH   1   4
ATOM      4  C   UNL     1       3.836   6.941   0.091  0.00  0.00    -0.043 C 
BRANCH   4   5
ATOM      5  N   UNL     1       4.886   7.955   0.253  0.00  0.00    +0.383 N 
ATOM      6  H   UNL     1       5.522   7.651   1.097  0.00  0.00    -0.081 HD
BRANCH   5   7
ATOM      7  C   UNL     1       4.306   9.266   0.573  0.00  0.00    -0.068 C 
ATOM      8  C   UNL     1       3.417   9.727  -0.584  0.00  0.00    -0.015 C 
ATOM      9  C   UNL     1       2.813  11.092  -0.250  0.00  0.00    -0.002 C 
ATOM     10  C   UNL     1       3.937  12.108  -0.036  0.00  0.00    -0.000 C 
ATOM     11  C   UNL     1       4.826  11.648   1.121  0.00  0.00    -0.002 C 
ATOM     12  C   UNL     1       5.430  10.282   0.788  0.00  0.00    -0.015 C 
ENDBRANCH   5   7
BRANCH   5  14
ATOM     13  C   UNL     1       7.188   8.253  -0.528  0.00  0.00    -0.017 C 
ATOM     14  C   UNL     1       5.733   8.032  -0.945  0.00  0.00    -0.082 C 
ENDBRANCH   5  14
ENDBRANCH   4   5
ENDBRANCH   1   4
BRANCH   1  15
ATOM     15  C   UNL     1       3.323   4.501   0.254  0.00  0.00    +0.258 C 
BRANCH  15  16
ATOM     16  O   UNL     1       3.868   3.214   0.554  0.00  0.00    -0.489 OA
BRANCH  16  17
ATOM     17  C   UNL     1       3.004   2.166   0.565  0.00  0.00    +0.124 A 
ATOM     18  C   UNL     1       1.659   2.370   0.292  0.00  0.00    +0.049 A 
ATOM     19  C   UNL     1       0.783   1.303   0.304  0.00  0.00    -0.047 A 
ATOM     20  C   UNL     1       1.246   0.029   0.582  0.00  0.00    +0.004 A 
ATOM     21  C   UNL     1       2.584  -0.176   0.859  0.00  0.00    +0.008 A 
ATOM     22  C   UNL     1       3.465   0.888   0.848  0.00  0.00    -0.003 A 
ATOM     23  C   UNL     1      -0.678   1.524   0.008  0.00  0.00    +0.044 C 
BRANCH  22  24
ATOM     24  C   UNL     1       4.925   0.662   1.145  0.00  0.00    +0.016 C 
ATOM     25  C   UNL     1       5.075   0.073   2.549  0.00  0.00    +0.012 C 
ATOM     26  C   UNL     1       5.510  -0.310   0.119  0.00  0.00    +0.012 C 
ENDBRANCH  22  24
ENDBRANCH  16  17
ENDBRANCH  15  16
ENDBRANCH   1  15
TORSDOF 9
