REMARK  Name = ZINC23144739
REMARK  9 active torsions:
REMARK  status: ('A' for Active; 'I' for Inactive)
REMARK    1  A    between atoms: C_1  and  C_2
REMARK    2  A    between atoms: C_2  and  C_3
REMARK    3  A    between atoms: C_2  and  C_4
REMARK    4  A    between atoms: C_4  and  C_5
REMARK    5  A    between atoms: N_8  and  C_12
REMARK    6  A    between atoms: C_12  and  C_13
REMARK    7  A    between atoms: C_16  and  C_19
REMARK    8  A    between atoms: C_25  and  C_27
REMARK    9  A    between atoms: C_27  and  N_28
REMARK                            x       y       z     vdW  Elec       q    Type
REMARK                         _______ _______ _______ _____ _____    ______ ____
ROOT
ATOM      1  C   UNL     1       2.453   0.193   3.642  0.00  0.00    -0.033 A 
ATOM      2  C   UNL     1       3.014   1.378   4.084  0.00  0.00    +0.005 A 
ATOM      3  C   UNL     1       2.594   1.943   5.270  0.00  0.00    +0.012 A 
ATOM      4  C   UNL     1       1.609   1.310   6.031  0.00  0.00    +0.017 A 
ATOM      5  C   UNL     1       1.051   0.112   5.582  0.00  0.00    +0.012 A 
ATOM      6  C   UNL     1       1.477  -0.439   4.391  0.00  0.00    +0.005 A 
ENDROOT
BRANCH   4   7
ATOM      7  C   UNL     1       1.159   1.906   7.306  0.00  0.00    +0.141 A 
ATOM      8  N   UNL     1       1.717   3.074   7.733  0.00  0.00    -0.307 N 
ATOM      9  H   UNL     1       2.501   3.560   7.134  0.00  0.00    +0.170 HD
ATOM     10  C   UNL     1       1.304   3.629   8.892  0.00  0.00    +0.252 A 
ATOM     11  O   UNL     1       1.788   4.676   9.288  0.00  0.00    -0.268 OA
ATOM     12  C   UNL     1       0.304   2.973   9.637  0.00  0.00    +0.094 A 
ATOM     13  C   UNL     1      -0.213   1.804   9.161  0.00  0.00    +0.062 A 
ATOM     14  N   UNL     1       0.225   1.300   8.009  0.00  0.00    -0.233 NA
BRANCH  13  15
ATOM     15  C   UNL     1      -1.283   1.083   9.939  0.00  0.00    +0.134 C 
BRANCH  15  16
ATOM     16  N   UNL     1      -2.531   1.073   9.163  0.00  0.00    -0.325 NA
ATOM     17  H   UNL     1      -2.363   0.558   8.206  0.00  0.00    +0.119 HD
ATOM     18  H   UNL     1      -3.312   0.547   9.731  0.00  0.00    +0.119 HD
ENDBRANCH  15  16
ENDBRANCH  13  15
ENDBRANCH   4   7
BRANCH   1  19
ATOM     19  C   UNL     1       2.913  -0.415   2.342  0.00  0.00    +0.119 C 
BRANCH  19  22
ATOM     20  C   UNL     1       1.315   2.049  -0.016  0.00  0.00    +0.133 C 
ATOM     21  C   UNL     1       2.142   1.564   1.177  0.00  0.00    +0.116 C 
ATOM     22  N   UNL     1       2.084   0.096   1.242  0.00  0.00    -0.294 NA
ATOM     23  C   UNL     1       0.694  -0.365   1.372  0.00  0.00    +0.113 C 
ATOM     24  C   UNL     1      -0.119   0.140   0.177  0.00  0.00    +0.175 C 
ATOM     25  O   UNL     1      -0.025   1.566   0.111  0.00  0.00    -0.374 OA
BRANCH  20  26
ATOM     26  C   UNL     1       1.305   3.579  -0.043  0.00  0.00    +0.036 C 
BRANCH  26  28
ATOM     27  C   UNL     1       0.409   5.586  -1.231  0.00  0.00    +0.007 C 
ATOM     28  C   UNL     1       0.545   4.063  -1.279  0.00  0.00    -0.015 C 
ATOM     29  C   UNL     1       1.312   3.659  -2.540  0.00  0.00    +0.007 C 
ENDBRANCH  26  28
ENDBRANCH  20  26
ENDBRANCH  19  22
ENDBRANCH   1  19
TORSDOF 7
