REMARK  Name = ZINC09399702
REMARK  8 active torsions:
REMARK  status: ('A' for Active; 'I' for Inactive)
REMARK    1  A    between atoms: C_1  and  S_2
REMARK    2  A    between atoms: S_2  and  C_3
REMARK    3  A    between atoms: N_11  and  C_12
REMARK    4  A    between atoms: C_12  and  C_14
REMARK    5  A    between atoms: C_17  and  S_20
REMARK    6  A    between atoms: S_20  and  N_23
REMARK    7  A    between atoms: N_30  and  C_31
REMARK    8  A    between atoms: C_31  and  C_32
REMARK                            x       y       z     vdW  Elec       q    Type
REMARK                         _______ _______ _______ _____ _____    ______ ____
ROOT
ATOM      1  C   UNL     1       2.669   7.603   0.023  0.00  0.00    +0.269 C 
ATOM      2  O   UNL     1       1.488   7.901   0.035  0.00  0.00    -0.268 OA
ENDROOT
BRANCH   1  11
ATOM      3  C   UNL     1      -1.234   1.743   0.017  0.00  0.00    +0.009 A 
ATOM      4  C   UNL     1      -0.013   1.076   0.008  0.00  0.00    +0.017 A 
ATOM      5  C   UNL     1       1.175   1.767   0.000  0.00  0.00    +0.028 A 
ATOM      6  C   UNL     1       1.190   3.171   0.008  0.00  0.00    +0.058 A 
ATOM      7  C   UNL     1      -0.053   3.819   0.024  0.00  0.00    +0.040 A 
ATOM      8  C   UNL     1      -1.244   3.133   0.030  0.00  0.00    +0.032 A 
ATOM      9  S   UNL     1       0.384   5.540   0.030  0.00  0.00    -0.052 S 
ATOM     10  C   UNL     1       2.109   5.364   0.013  0.00  0.00    +0.167 A 
ATOM     11  N   UNL     1       3.034   6.317   0.011  0.00  0.00    -0.152 NA
ATOM     12  N   UNL     1       2.287   4.016   0.003  0.00  0.00    -0.317 N 
BRANCH   3  14
ATOM     13  C   UNL     1      -2.219  -0.897   0.008  0.00  0.00    +0.090 C 
ATOM     14  S   UNL     1      -2.746   0.839   0.020  0.00  0.00    -0.129 S 
ENDBRANCH   3  14
BRANCH  12  15
ATOM     15  C   UNL     1       3.642   3.457  -0.013  0.00  0.00    +0.151 C 
BRANCH  15  16
ATOM     16  C   UNL     1       4.569   4.407  -0.726  0.00  0.00    -0.013 C 
ATOM     17  C   UNL     1       5.653   4.837  -0.129  0.00  0.00    +0.005 C 
ENDBRANCH  15  16
ENDBRANCH  12  15
ENDBRANCH   1  11
BRANCH   1  18
ATOM     18  C   UNL     1       3.701   8.666   0.021  0.00  0.00    +0.039 A 
ATOM     19  C   UNL     1       5.054   8.329   0.013  0.00  0.00    +0.015 A 
ATOM     20  C   UNL     1       6.011   9.323   0.005  0.00  0.00    +0.029 A 
ATOM     21  C   UNL     1       5.629  10.653   0.017  0.00  0.00    +0.106 A 
ATOM     22  C   UNL     1       4.289  10.994   0.030  0.00  0.00    +0.029 A 
ATOM     23  C   UNL     1       3.323  10.009   0.033  0.00  0.00    +0.015 A 
BRANCH  21  24
ATOM     24  S   UNL     1       6.856  11.918   0.015  0.00  0.00    +0.061 S 
ATOM     25  O   UNL     1       8.028  11.345  -0.550  0.00  0.00    -0.153 OA
ATOM     26  O   UNL     1       6.241  13.080  -0.523  0.00  0.00    -0.153 OA
BRANCH  24  27
ATOM     27  N   UNL     1       7.211  12.258   1.596  0.00  0.00    -0.177 NA
ATOM     28  C   UNL     1       6.453  13.289   2.270  0.00  0.00    +0.109 C 
ATOM     29  C   UNL     1       7.132  14.659   2.066  0.00  0.00    +0.017 C 
ATOM     30  C   UNL     1       8.381  14.730   2.841  0.00  0.00    +0.001 C 
ATOM     31  C   UNL     1       9.440  13.715   2.420  0.00  0.00    +0.001 C 
ATOM     32  C   UNL     1       9.186  12.406   3.125  0.00  0.00    +0.017 C 
ATOM     33  C   UNL     1       8.292  11.502   2.257  0.00  0.00    +0.109 C 
ENDBRANCH  24  27
ENDBRANCH  21  24
ENDBRANCH   1  18
TORSDOF 7
