REMARK  Name = ZINC14467966
REMARK  7 active torsions:
REMARK  status: ('A' for Active; 'I' for Inactive)
REMARK    1  A    between atoms: C_1  and  C_2
REMARK    2  A    between atoms: C_2  and  N_3
REMARK    3  A    between atoms: N_3  and  C_4
REMARK    4  A    between atoms: C_4  and  C_5
REMARK    5  A    between atoms: C_6  and  C_8
REMARK    6  A    between atoms: C_21  and  C_24
REMARK    7  A    between atoms: C_29  and  O_30
REMARK                            x       y       z     vdW  Elec       q    Type
REMARK                         _______ _______ _______ _____ _____    ______ ____
ROOT
ATOM      1  C   UNL     1       4.266   0.097   1.713  0.00  0.00    +0.037 A 
ATOM      2  C   UNL     1       4.970   0.906   0.816  0.00  0.00    +0.015 A 
ATOM      3  C   UNL     1       4.277   1.689  -0.078  0.00  0.00    +0.024 A 
ATOM      4  C   UNL     1       2.884   1.675  -0.090  0.00  0.00    +0.031 A 
ATOM      5  C   UNL     1       2.175   0.874   0.798  0.00  0.00    -0.019 A 
ATOM      6  C   UNL     1       2.871   0.087   1.697  0.00  0.00    +0.019 A 
ATOM      7  C   UNL     1       0.680   0.832   0.818  0.00  0.00    +0.049 C 
ATOM      8  C   UNL     1       0.156  -0.442   0.200  0.00  0.00    -0.023 C 
ATOM      9  C   UNL     1      -0.952  -0.201  -0.469  0.00  0.00    -0.030 C 
ATOM     10  C   UNL     1      -1.317   1.268  -0.381  0.00  0.00    +0.033 C 
ATOM     11  C   UNL     1       0.033   1.955  -0.021  0.00  0.00    +0.029 C 
ATOM     12  C   UNL     1       0.813   2.141  -1.326  0.00  0.00    +0.109 C 
ATOM     13  N   UNL     1       2.205   2.474  -1.007  0.00  0.00    -0.336 N 
ATOM     14  H   UNL     1       2.642   3.232  -1.425  0.00  0.00    +0.147 HD
ENDROOT
BRANCH  12  15
ATOM     15  C   UNL     1       0.770   0.864  -2.126  0.00  0.00    +0.017 A 
ATOM     16  C   UNL     1       1.510  -0.231  -1.720  0.00  0.00    +0.029 A 
ATOM     17  C   UNL     1       1.471  -1.403  -2.453  0.00  0.00    +0.043 A 
ATOM     18  C   UNL     1       0.696  -1.482  -3.596  0.00  0.00    +0.043 A 
ATOM     19  C   UNL     1      -0.050  -0.391  -4.002  0.00  0.00    +0.084 A 
ATOM     20  C   UNL     1      -0.012   0.787  -3.268  0.00  0.00    +0.140 A 
ATOM     21 CL   UNL     1      -1.029  -0.491  -5.433  0.00  0.00    -0.080 Cl
ATOM     22 CL   UNL     1       2.402  -2.777  -1.941  0.00  0.00    -0.083 Cl
BRANCH  20  23
ATOM     23  O   UNL     1      -0.741   1.862  -3.667  0.00  0.00    -0.505 OA
ATOM     24  H   UNL     1      -0.270   2.455  -4.269  0.00  0.00    +0.292 HD
ENDBRANCH  20  23
ENDBRANCH  12  15
BRANCH   1  26
ATOM     25  N   UNL     1       6.024  -1.516   2.255  0.00  0.00    -0.298 N 
ATOM     26  C   UNL     1       4.999  -0.748   2.676  0.00  0.00    +0.247 C 
ATOM     27  O   UNL     1       4.678  -0.750   3.849  0.00  0.00    -0.270 OA
BRANCH  25  29
ATOM     28  C   UNL     1       5.965  -3.801   3.123  0.00  0.00    +0.024 C 
ATOM     29  C   UNL     1       6.671  -2.446   3.184  0.00  0.00    +0.104 C 
ENDBRANCH  25  29
BRANCH  25  30
ATOM     30  C   UNL     1       6.490  -1.420   0.870  0.00  0.00    +0.104 C 
ATOM     31  C   UNL     1       7.779  -0.598   0.821  0.00  0.00    +0.024 C 
ENDBRANCH  25  30
ENDBRANCH   1  26
TORSDOF 5
