REMARK  Name = ZINC61699507
REMARK  6 active torsions:
REMARK  status: ('A' for Active; 'I' for Inactive)
REMARK    1  A    between atoms: C_1  and  C_2
REMARK    2  A    between atoms: C_2  and  C_4
REMARK    3  A    between atoms: C_2  and  N_21
REMARK    4  A    between atoms: C_7  and  O_11
REMARK    5  A    between atoms: O_11  and  C_12
REMARK    6  A    between atoms: C_17  and  N_18
REMARK                            x       y       z     vdW  Elec       q    Type
REMARK                         _______ _______ _______ _____ _____    ______ ____
ROOT
ATOM      1  C   UNL     1       0.770  -0.519   1.194  0.00  0.00    -0.061 A 
ATOM      2  C   UNL     1       0.118  -0.528   2.413  0.00  0.00    +0.005 A 
ATOM      3  C   UNL     1       0.770  -0.979   3.544  0.00  0.00    +0.047 A 
ATOM      4  C   UNL     1       2.081  -1.425   3.456  0.00  0.00    +0.142 A 
ATOM      5  C   UNL     1       2.734  -1.415   2.231  0.00  0.00    +0.060 A 
ATOM      6  C   UNL     1       2.074  -0.967   1.101  0.00  0.00    +0.021 A 
ATOM      7 BR   UNL     1       4.521  -2.021   2.106  0.00  0.00    -0.046 Br
ENDROOT
BRANCH   1   9
ATOM      8  C   UNL     1       0.079   1.504  -0.063  0.00  0.00    -0.009 C 
ATOM      9  C   UNL     1       0.055  -0.026  -0.038  0.00  0.00    -0.047 C 
BRANCH   9  10
ATOM     10  N   UNL     1      -1.337  -0.493  -0.017  0.00  0.00    +0.382 N 
ATOM     11  H   UNL     1      -1.799  -0.136   0.806  0.00  0.00    -0.089 HD
ATOM     12  H   UNL     1      -1.816  -0.163  -0.841  0.00  0.00    -0.089 HD
ATOM     13  H   UNL     1      -1.353  -1.502  -0.000  0.00  0.00    -0.089 HD
ENDBRANCH   9  10
ENDBRANCH   1   9
BRANCH   4  14
ATOM     14  O   UNL     1       2.725  -1.869   4.567  0.00  0.00    -0.453 OA
BRANCH  14  15
ATOM     15  C   UNL     1       3.560  -1.008   5.207  0.00  0.00    +0.159 A 
ATOM     16  C   UNL     1       3.642   0.315   4.797  0.00  0.00    +0.048 A 
ATOM     17  C   UNL     1       4.491   1.188   5.450  0.00  0.00    +0.004 A 
ATOM     18  C   UNL     1       5.258   0.744   6.511  0.00  0.00    +0.002 A 
ATOM     19  C   UNL     1       5.177  -0.574   6.922  0.00  0.00    +0.036 A 
ATOM     20  C   UNL     1       4.326  -1.449   6.277  0.00  0.00    +0.168 A 
BRANCH  20  21
ATOM     21  N   UNL     1       4.235  -2.858   6.721  0.00  0.00    +0.060 N 
ATOM     22  O   UNL     1       4.903  -3.242   7.653  0.00  0.00    -0.126 OA
ATOM     23  O   UNL     1       3.493  -3.625   6.153  0.00  0.00    -0.126 OA
ENDBRANCH  20  21
ENDBRANCH  14  15
ENDBRANCH   4  14
TORSDOF 5
