REMARK  Name = ZINC66929937
REMARK  7 active torsions:
REMARK  status: ('A' for Active; 'I' for Inactive)
REMARK    1  A    between atoms: C_1  and  C_2
REMARK    2  A    between atoms: C_2  and  O_3
REMARK    3  A    between atoms: O_3  and  C_4
REMARK    4  A    between atoms: C_8  and  C_10
REMARK    5  A    between atoms: N_12  and  C_13
REMARK    6  A    between atoms: C_13  and  C_14
REMARK    7  A    between atoms: C_14  and  O_24
REMARK                            x       y       z     vdW  Elec       q    Type
REMARK                         _______ _______ _______ _____ _____    ______ ____
ROOT
ATOM      1  C   UNL     1       0.709  -4.782   0.376  0.00  0.00    +0.264 C 
ATOM      2  O   UNL     1       0.623  -5.991   0.457  0.00  0.00    -0.268 OA
ATOM      3  N   UNL     1       1.904  -4.206   0.134  0.00  0.00    -0.307 N 
ATOM      4  H   UNL     1       1.973  -3.241   0.070  0.00  0.00    +0.149 HD
ENDROOT
BRANCH   1   9
ATOM      5  C   UNL     1      -1.446  -1.833   0.600  0.00  0.00    +0.215 A 
ATOM      6  C   UNL     1      -2.707  -2.369   0.851  0.00  0.00    +0.069 A 
ATOM      7  C   UNL     1      -2.853  -3.740   0.950  0.00  0.00    +0.027 A 
ATOM      8  C   UNL     1      -1.728  -4.541   0.794  0.00  0.00    +0.072 A 
ATOM      9  C   UNL     1      -0.497  -3.940   0.544  0.00  0.00    +0.147 A 
ATOM     10  N   UNL     1      -0.397  -2.618   0.451  0.00  0.00    -0.207 NA
ATOM     11 CL   UNL     1      -1.856  -6.269   0.910  0.00  0.00    -0.081 Cl
BRANCH   5  12
ATOM     12  O   UNL     1      -1.296  -0.489   0.501  0.00  0.00    -0.477 OA
BRANCH  12  14
ATOM     13  C   UNL     1      -0.009   1.528   0.159  0.00  0.00    +0.048 C 
ATOM     14  C   UNL     1       0.020   0.000   0.236  0.00  0.00    +0.227 C 
ENDBRANCH  12  14
ENDBRANCH   5  12
ENDBRANCH   1   9
BRANCH   3  15
ATOM     15  C   UNL     1       3.098  -5.039  -0.032  0.00  0.00    +0.144 C 
BRANCH  15  16
ATOM     16  C   UNL     1       4.331  -4.142  -0.159  0.00  0.00    +0.107 C 
ATOM     17  C   UNL     1       4.433  -3.248   1.075  0.00  0.00    +0.041 C 
ATOM     18  C   UNL     1       5.781  -2.519   1.034  0.00  0.00    +0.008 C 
ATOM     19  C   UNL     1       6.889  -3.541   1.286  0.00  0.00    +0.035 C 
ATOM     20  C   UNL     1       6.735  -4.725   0.368  0.00  0.00    -0.041 A 
ATOM     21  C   UNL     1       5.559  -5.004  -0.292  0.00  0.00    -0.011 A 
ATOM     22  C   UNL     1       5.482  -6.117  -1.119  0.00  0.00    +0.007 A 
ATOM     23  C   UNL     1       6.575  -6.943  -1.287  0.00  0.00    +0.000 A 
ATOM     24  C   UNL     1       7.756  -6.661  -0.627  0.00  0.00    +0.000 A 
ATOM     25  C   UNL     1       7.834  -5.557   0.197  0.00  0.00    +0.004 A 
BRANCH  16  26
ATOM     26  O   UNL     1       4.201  -3.324  -1.323  0.00  0.00    -0.382 OA
ATOM     27  H   UNL     1       4.122  -3.824  -2.148  0.00  0.00    +0.211 HD
ENDBRANCH  16  26
ENDBRANCH  15  16
ENDBRANCH   3  15
TORSDOF 6
