REMARK  Name = ZINC03585790
REMARK  10 active torsions:
REMARK  status: ('A' for Active; 'I' for Inactive)
REMARK    1  A    between atoms: C_1  and  C_2
REMARK    2  A    between atoms: C_2  and  N_3
REMARK    3  A    between atoms: C_11  and  C_13
REMARK    4  A    between atoms: C_13  and  N_14
REMARK    5  A    between atoms: N_14  and  C_15
REMARK    6  A    between atoms: N_14  and  C_20
REMARK    7  A    between atoms: C_20  and  N_22
REMARK    8  A    between atoms: N_22  and  C_23
REMARK    9  A    between atoms: C_25  and  C_30
REMARK   10  A    between atoms: C_27  and  C_29
REMARK                            x       y       z     vdW  Elec       q    Type
REMARK                         _______ _______ _______ _____ _____    ______ ____
ROOT
ATOM      1  N   UNL     1       5.183   0.942   5.671  0.00  0.00    -0.305 N 
ENDROOT
BRANCH   1   2
ATOM      2  C   UNL     1       4.210   0.615   6.716  0.00  0.00    +0.075 C 
ATOM      3  C   UNL     1       4.570  -0.734   7.371  0.00  0.00    +0.022 C 
ATOM      4  C   UNL     1       3.200  -1.401   7.645  0.00  0.00    +0.002 C 
ATOM      5  C   UNL     1       2.370  -1.003   6.399  0.00  0.00    +0.002 C 
ATOM      6  C   UNL     1       2.811   0.445   6.098  0.00  0.00    +0.022 C 
ENDBRANCH   1   2
BRANCH   1   7
ATOM      7  C   UNL     1       5.795   2.143   5.672  0.00  0.00    +0.138 C 
ATOM      8  S   UNL     1       7.026   2.478   4.530  0.00  0.00    -0.018 S 
BRANCH   7   9
ATOM      9  N   UNL     1       5.436   3.082   6.571  0.00  0.00    -0.297 N 
ATOM     10  H   UNL     1       4.843   3.803   6.309  0.00  0.00    +0.154 HD
BRANCH   9  11
ATOM     11  C   UNL     1       5.921   3.015   7.881  0.00  0.00    +0.033 A 
ATOM     12  C   UNL     1       6.862   2.055   8.228  0.00  0.00    +0.026 A 
ATOM     13  C   UNL     1       7.342   1.995   9.521  0.00  0.00    -0.048 A 
ATOM     14  C   UNL     1       6.879   2.884  10.474  0.00  0.00    +0.006 A 
ATOM     15  C   UNL     1       5.938   3.838  10.134  0.00  0.00    -0.048 A 
ATOM     16  C   UNL     1       5.457   3.906   8.841  0.00  0.00    +0.026 A 
ATOM     17  C   UNL     1       5.435   4.805  11.175  0.00  0.00    +0.044 C 
ATOM     18  C   UNL     1       8.368   0.957   9.896  0.00  0.00    +0.044 C 
ENDBRANCH   9  11
ENDBRANCH   7   9
ENDBRANCH   1   7
BRANCH   1  19
ATOM     19  C   UNL     1       5.492  -0.037   4.626  0.00  0.00    +0.142 C 
BRANCH  19  28
ATOM     20  N   UNL     1       2.232   0.928   0.083  0.00  0.00    -0.330 N 
ATOM     21  C   UNL     1       0.846   0.470   0.199  0.00  0.00    +0.105 C 
ATOM     22  C   UNL     1       0.850  -1.013   0.591  0.00  0.00    +0.024 C 
ATOM     23  C   UNL     1       1.388  -1.122   2.019  0.00  0.00    +0.038 C 
ATOM     24  C   UNL     1       2.643  -0.296   2.154  0.00  0.00    -0.026 A 
ATOM     25  C   UNL     1       2.993   0.663   1.220  0.00  0.00    +0.033 A 
ATOM     26  C   UNL     1       4.163   1.403   1.403  0.00  0.00    +0.024 A 
ATOM     27  C   UNL     1       4.966   1.177   2.500  0.00  0.00    +0.007 A 
ATOM     28  C   UNL     1       4.614   0.214   3.428  0.00  0.00    -0.030 A 
ATOM     29  C   UNL     1       3.456  -0.518   3.253  0.00  0.00    +0.010 A 
BRANCH  20  31
ATOM     30  C   UNL     1       1.818   3.191   0.924  0.00  0.00    +0.024 C 
ATOM     31  C   UNL     1       2.287   2.354  -0.268  0.00  0.00    +0.102 C 
ENDBRANCH  20  31
ENDBRANCH  19  28
ENDBRANCH   1  19
TORSDOF 7
