REMARK  Name = ZINC06198570
REMARK  11 active torsions:
REMARK  status: ('A' for Active; 'I' for Inactive)
REMARK    1  A    between atoms: C_1  and  N_60
REMARK    2  A    between atoms: C_2  and  N_60
REMARK    3  A    between atoms: C_3  and  C_4
REMARK    4  A    between atoms: C_3  and  N_60
REMARK    5  A    between atoms: C_4  and  N_5
REMARK    6  A    between atoms: N_5  and  C_6
REMARK    7  A    between atoms: N_5  and  C_23
REMARK    8  A    between atoms: C_6  and  C_7
REMARK    9  A    between atoms: C_23  and  N_25
REMARK   10  A    between atoms: N_25  and  C_26
REMARK   11  A    between atoms: C_26  and  C_27
REMARK                            x       y       z     vdW  Elec       q    Type
REMARK                         _______ _______ _______ _____ _____    ______ ____
ROOT
ATOM      1  N   UNL     1      -0.721   1.571  -1.179  0.00  0.00    -0.310 N 
ENDROOT
BRANCH   1   2
ATOM      2  C   UNL     1      -1.708   0.832  -1.724  0.00  0.00    +0.133 C 
ATOM      3  S   UNL     1      -2.134  -0.673  -1.029  0.00  0.00    -0.019 S 
BRANCH   2   4
ATOM      4  N   UNL     1      -2.360   1.279  -2.816  0.00  0.00    -0.322 N 
ATOM      5  H   UNL     1      -2.119   2.132  -3.209  0.00  0.00    +0.148 HD
BRANCH   4   6
ATOM      6  C   UNL     1      -3.433   0.476  -3.408  0.00  0.00    +0.138 C 
BRANCH   6   7
ATOM      7  C   UNL     1      -3.993   1.193  -4.608  0.00  0.00    -0.030 A 
ATOM      8  C   UNL     1      -5.053   2.068  -4.458  0.00  0.00    +0.005 A 
ATOM      9  C   UNL     1      -5.564   2.730  -5.559  0.00  0.00    +0.000 A 
ATOM     10  C   UNL     1      -5.022   2.510  -6.811  0.00  0.00    +0.000 A 
ATOM     11  C   UNL     1      -3.966   1.631  -6.962  0.00  0.00    +0.000 A 
ATOM     12  C   UNL     1      -3.451   0.973  -5.861  0.00  0.00    +0.005 A 
ENDBRANCH   6   7
ENDBRANCH   4   6
ENDBRANCH   2   4
ENDBRANCH   1   2
BRANCH   1  13
ATOM     13  C   UNL     1      -0.357   2.860  -1.774  0.00  0.00    +0.088 C 
BRANCH  13  14
ATOM     14  C   UNL     1       0.732   2.646  -2.826  0.00  0.00    -0.060 C 
BRANCH  14  17
ATOM     15  C   UNL     1       1.736   4.813  -2.431  0.00  0.00    -0.097 C 
ATOM     16  C   UNL     1       1.962   3.751  -4.595  0.00  0.00    -0.097 C 
ATOM     17  N   UNL     1       1.073   3.950  -3.431  0.00  0.00    +0.377 N 
ATOM     18  H   UNL     1       0.210   4.408  -3.746  0.00  0.00    -0.083 HD
ENDBRANCH  14  17
ENDBRANCH  13  14
ENDBRANCH   1  13
BRANCH   1  19
ATOM     19  C   UNL     1      -0.013   1.086   0.008  0.00  0.00    +0.147 C 
BRANCH  19  20
ATOM     20  C   UNL     1      -0.718   1.572   1.248  0.00  0.00    +0.035 A 
ATOM     21  C   UNL     1      -1.633   0.778   1.861  0.00  0.00    +0.020 A 
ATOM     22  C   UNL     1      -2.296   1.276   3.065  0.00  0.00    +0.003 A 
ATOM     23  C   UNL     1      -3.245   0.499   3.741  0.00  0.00    +0.059 A 
ATOM     24  C   UNL     1      -3.858   0.997   4.871  0.00  0.00    +0.163 A 
ATOM     25  C   UNL     1      -3.535   2.273   5.343  0.00  0.00    +0.164 A 
ATOM     26  C   UNL     1      -2.598   3.048   4.681  0.00  0.00    +0.075 A 
ATOM     27  C   UNL     1      -1.973   2.561   3.541  0.00  0.00    +0.053 A 
ATOM     28  N   UNL     1      -1.037   3.321   2.867  0.00  0.00    -0.322 N 
ATOM     29  H   UNL     1      -0.809   4.234   3.205  0.00  0.00    +0.169 HD
ATOM     30  C   UNL     1      -0.430   2.851   1.764  0.00  0.00    +0.254 A 
ATOM     31  O   UNL     1       0.392   3.550   1.195  0.00  0.00    -0.268 OA
ATOM     32  O   UNL     1      -4.132   2.770   6.460  0.00  0.00    -0.485 OA
ATOM     33  C   UNL     1      -5.336   2.125   6.888  0.00  0.00    +0.270 C 
ATOM     34  C   UNL     1      -5.106   0.608   6.858  0.00  0.00    +0.270 C 
ATOM     35  O   UNL     1      -4.781   0.230   5.516  0.00  0.00    -0.485 OA
ENDBRANCH  19  20
ENDBRANCH   1  19
TORSDOF 9
