REMARK  Name = ZINC34750006
REMARK  9 active torsions:
REMARK  status: ('A' for Active; 'I' for Inactive)
REMARK    1  A    between atoms: C_1  and  C_2
REMARK    2  A    between atoms: C_5  and  N_8
REMARK    3  A    between atoms: C_9  and  C_11
REMARK    4  A    between atoms: C_11  and  N_12
REMARK    5  A    between atoms: C_25  and  S_27
REMARK    6  A    between atoms: S_27  and  C_28
REMARK    7  A    between atoms: C_28  and  C_29
REMARK    8  A    between atoms: C_33  and  C_35
REMARK    9  A    between atoms: C_33  and  C_36
REMARK                            x       y       z     vdW  Elec       q    Type
REMARK                         _______ _______ _______ _____ _____    ______ ____
ROOT
ATOM      1  N   UNL     1       0.496  -6.710   2.553  0.00  0.00    +0.387 N 
ATOM      2  C   UNL     1       1.623  -6.176   3.327  0.00  0.00    -0.059 C 
ATOM      3  C   UNL     1       1.589  -6.757   4.744  0.00  0.00    +0.088 C 
ATOM      4  N   UNL     1       1.561  -8.225   4.646  0.00  0.00    -0.318 N 
ATOM      5  C   UNL     1       0.563  -8.841   3.759  0.00  0.00    +0.088 C 
ATOM      6  C   UNL     1       0.646  -8.162   2.388  0.00  0.00    -0.059 C 
ATOM      7  C   UNL     1       2.449  -9.003   5.366  0.00  0.00    +0.134 A 
ATOM      8  C   UNL     1       2.158  -9.368   6.711  0.00  0.00    +0.051 A 
ATOM      9  C   UNL     1       0.988  -9.030   7.520  0.00  0.00    -0.020 A 
ATOM     10  C   UNL     1       0.956  -9.508   8.783  0.00  0.00    +0.021 A 
ATOM     11  S   UNL     1       2.459 -10.424   8.969  0.00  0.00    -0.071 S 
ATOM     12  C   UNL     1       3.133 -10.163   7.348  0.00  0.00    +0.115 A 
ATOM     13  N   UNL     1       4.236 -10.534   6.727  0.00  0.00    -0.215 NA
ATOM     14  C   UNL     1       4.454 -10.163   5.473  0.00  0.00    +0.191 A 
ATOM     15  N   UNL     1       3.575  -9.419   4.812  0.00  0.00    -0.206 NA
ATOM     16  C   UNL     1      -0.135  -9.288   9.785  0.00  0.00    +0.203 C 
ATOM     17  O   UNL     1      -0.978  -8.233   9.296  0.00  0.00    -0.368 OA
ATOM     18  C   UNL     1      -1.371  -8.404   7.931  0.00  0.00    +0.068 C 
ATOM     19  C   UNL     1      -0.171  -8.180   7.006  0.00  0.00    +0.071 C 
ATOM     20  C   UNL     1      -1.908  -9.822   7.732  0.00  0.00    +0.041 C 
ATOM     21  C   UNL     1      -2.470  -7.395   7.590  0.00  0.00    +0.041 C 
ATOM     22  H   UNL     1      -0.366  -6.515   3.040  0.00  0.00    -0.081 HD
ENDROOT
BRANCH   1  23
ATOM     23  C   UNL     1       0.465  -6.070   1.231  0.00  0.00    +0.019 C 
BRANCH  23  25
ATOM     24  N   UNL     1       0.115  -3.802   0.307  0.00  0.00    -0.287 N 
ATOM     25  C   UNL     1       0.189  -4.597   1.393  0.00  0.00    +0.201 C 
ATOM     26  O   UNL     1       0.033  -4.127   2.500  0.00  0.00    -0.278 OA
ATOM     27  H   UNL     1       0.170  -4.188  -0.582  0.00  0.00    +0.155 HD
BRANCH  24  32
ATOM     28  C   UNL     1      -0.519   1.801   0.932  0.00  0.00    +0.044 C 
ATOM     29  C   UNL     1      -0.351   0.312   0.766  0.00  0.00    -0.050 A 
ATOM     30  C   UNL     1      -0.966  -0.555   1.651  0.00  0.00    +0.005 A 
ATOM     31  C   UNL     1      -0.813  -1.919   1.501  0.00  0.00    +0.023 A 
ATOM     32  C   UNL     1      -0.042  -2.420   0.461  0.00  0.00    +0.033 A 
ATOM     33  C   UNL     1       0.573  -1.547  -0.426  0.00  0.00    +0.023 A 
ATOM     34  C   UNL     1       0.413  -0.184  -0.274  0.00  0.00    +0.005 A 
ENDBRANCH  24  32
ENDBRANCH  23  25
ENDBRANCH   1  23
BRANCH  14  35
ATOM     35  S   UNL     1       5.936 -10.672   4.666  0.00  0.00    -0.082 S 
BRANCH  35  36
ATOM     36  C   UNL     1       6.805 -11.651   5.922  0.00  0.00    +0.104 C 
BRANCH  36  37
ATOM     37  C   UNL     1       8.107 -12.154   5.354  0.00  0.00    -0.023 C 
ATOM     38  C   UNL     1       9.244 -11.742   5.857  0.00  0.00    +0.005 C 
ENDBRANCH  36  37
ENDBRANCH  35  36
ENDBRANCH  14  35
TORSDOF 6
