REMARK  Name = ZINC54131293
REMARK  7 active torsions:
REMARK  status: ('A' for Active; 'I' for Inactive)
REMARK    1  A    between atoms: C_1  and  C_2
REMARK    2  A    between atoms: C_2  and  N_3
REMARK    3  A    between atoms: N_3  and  C_4
REMARK    4  A    between atoms: N_3  and  C_5
REMARK    5  A    between atoms: C_5  and  C_6
REMARK    6  A    between atoms: C_6  and  N_7
REMARK    7  A    between atoms: C_8  and  C_18
REMARK                            x       y       z     vdW  Elec       q    Type
REMARK                         _______ _______ _______ _____ _____    ______ ____
ROOT
ATOM      1  N   UNL     1       1.127  -3.888  -2.663  0.00  0.00    -0.326 N 
ATOM      2  C   UNL     1       2.060  -4.771  -2.216  0.00  0.00    +0.125 A 
ATOM      3  N   UNL     1       1.663  -5.991  -2.435  0.00  0.00    -0.231 NA
ATOM      4  C   UNL     1       0.446  -5.973  -3.039  0.00  0.00    +0.092 A 
ATOM      5  C   UNL     1       0.083  -4.624  -3.189  0.00  0.00    +0.107 A 
ATOM      6  C   UNL     1      -1.131  -4.294  -3.779  0.00  0.00    +0.184 A 
ATOM      7  C   UNL     1      -1.978  -5.297  -4.213  0.00  0.00    +0.161 A 
ATOM      8  C   UNL     1      -1.623  -6.631  -4.063  0.00  0.00    +0.043 A 
ATOM      9  C   UNL     1      -0.420  -6.974  -3.488  0.00  0.00    +0.033 A 
ATOM     10  F   UNL     1      -3.159  -4.976  -4.786  0.00  0.00    -0.202 F 
ATOM     11  F   UNL     1      -1.482  -2.998  -3.927  0.00  0.00    -0.200 F 
ENDROOT
BRANCH   2  12
ATOM     12  C   UNL     1       3.364  -4.393  -1.562  0.00  0.00    +0.183 C 
ATOM     13 CL   UNL     1       3.128  -4.269   0.222  0.00  0.00    -0.117 Cl
ENDBRANCH   2  12
BRANCH   1  14
ATOM     14  C   UNL     1       1.211  -2.427  -2.594  0.00  0.00    +0.105 C 
BRANCH  14  15
ATOM     15  C   UNL     1       0.605  -1.943  -1.276  0.00  0.00    -0.057 C 
BRANCH  15  16
ATOM     16  N   UNL     1       0.690  -0.478  -1.207  0.00  0.00    +0.379 N 
ATOM     17  C   UNL     1       2.100  -0.070  -1.159  0.00  0.00    -0.096 C 
ATOM     18  H   UNL     1       0.251  -0.077  -2.022  0.00  0.00    -0.082 HD
BRANCH  16  20
ATOM     19  C   UNL     1      -0.019   1.526   0.010  0.00  0.00    -0.017 C 
ATOM     20  C   UNL     1       0.002  -0.004   0.002  0.00  0.00    -0.083 C 
ENDBRANCH  16  20
ENDBRANCH  15  16
ENDBRANCH  14  15
ENDBRANCH   1  14
TORSDOF 5
