REMARK  Name = ZINC21231661
REMARK  11 active torsions:
REMARK  status: ('A' for Active; 'I' for Inactive)
REMARK    1  A    between atoms: C_1  and  C_2
REMARK    2  A    between atoms: C_2  and  C_3
REMARK    3  A    between atoms: C_3  and  C_5
REMARK    4  A    between atoms: C_3  and  C_6
REMARK    5  A    between atoms: C_9  and  N_12
REMARK    6  A    between atoms: C_22  and  S_23
REMARK    7  A    between atoms: S_23  and  C_24
REMARK    8  A    between atoms: C_24  and  C_26
REMARK    9  A    between atoms: C_24  and  C_29
REMARK   10  A    between atoms: C_26  and  C_27
REMARK   11  A    between atoms: C_26  and  C_28
REMARK                            x       y       z     vdW  Elec       q    Type
REMARK                         _______ _______ _______ _____ _____    ______ ____
ROOT
ATOM      1  N   UNL     1       2.165   3.790  -0.130  0.00  0.00    -0.255 N 
ATOM      2  C   UNL     1       3.311   3.071  -0.172  0.00  0.00    +0.267 A 
ATOM      3  O   UNL     1       3.307   1.867   0.008  0.00  0.00    -0.267 OA
ATOM      4  C   UNL     1       4.559   3.796  -0.445  0.00  0.00    +0.065 A 
ATOM      5  C   UNL     1       5.790   3.146  -0.510  0.00  0.00    +0.015 A 
ATOM      6  C   UNL     1       6.922   3.869  -0.767  0.00  0.00    +0.001 A 
ATOM      7  C   UNL     1       6.857   5.242  -0.965  0.00  0.00    +0.002 A 
ATOM      8  C   UNL     1       5.664   5.906  -0.906  0.00  0.00    +0.028 A 
ATOM      9  C   UNL     1       4.489   5.194  -0.645  0.00  0.00    +0.079 A 
ATOM     10  N   UNL     1       3.286   5.811  -0.579  0.00  0.00    -0.223 NA
ATOM     11  C   UNL     1       2.185   5.141  -0.340  0.00  0.00    +0.177 A 
ENDROOT
BRANCH   1  15
ATOM     12  C   UNL     1      -1.451   1.864   0.634  0.00  0.00    -0.044 A 
ATOM     13  C   UNL     1      -0.684   2.334   1.684  0.00  0.00    +0.006 A 
ATOM     14  C   UNL     1       0.515   2.971   1.435  0.00  0.00    +0.026 A 
ATOM     15  C   UNL     1       0.949   3.145   0.127  0.00  0.00    +0.052 A 
ATOM     16  C   UNL     1       0.174   2.676  -0.926  0.00  0.00    +0.026 A 
ATOM     17  C   UNL     1      -1.025   2.040  -0.670  0.00  0.00    +0.006 A 
BRANCH  12  18
ATOM     18  C   UNL     1      -2.756   1.164   0.910  0.00  0.00    +0.016 C 
ATOM     19  C   UNL     1      -3.899   1.932   0.242  0.00  0.00    +0.012 C 
BRANCH  18  21
ATOM     20  C   UNL     1      -3.976  -1.010   0.736  0.00  0.00    +0.004 C 
ATOM     21  C   UNL     1      -2.701  -0.258   0.348  0.00  0.00    +0.004 C 
ENDBRANCH  18  21
ENDBRANCH  12  18
ENDBRANCH   1  15
BRANCH  11  22
ATOM     22  S   UNL     1       0.661   6.024  -0.280  0.00  0.00    -0.074 S 
BRANCH  22  23
ATOM     23  C   UNL     1       1.273   7.719  -0.446  0.00  0.00    +0.143 C 
BRANCH  23  24
ATOM     24  C   UNL     1       2.047   8.098   0.791  0.00  0.00    +0.234 C 
ATOM     25  O   UNL     1       1.882   7.481   1.822  0.00  0.00    -0.274 OA
ATOM     26  N   UNL     1       2.922   9.122   0.751  0.00  0.00    -0.239 N 
ATOM     27  C   UNL     1       3.614   9.460   1.857  0.00  0.00    +0.303 C 
ATOM     28  O   UNL     1       3.448   8.842   2.890  0.00  0.00    -0.253 OA
ATOM     29  N   UNL     1       4.489  10.484   1.817  0.00  0.00    -0.313 N 
ATOM     30  H   UNL     1       3.072   9.681  -0.184  0.00  0.00    +0.159 HD
ATOM     31  H   UNL     1       5.054  10.761   2.720  0.00  0.00    +0.146 HD
ATOM     32  H   UNL     1       4.639  11.044   0.882  0.00  0.00    +0.146 HD
ENDBRANCH  23  24
BRANCH  23  33
ATOM     33  C   UNL     1       0.090   8.674  -0.619  0.00  0.00    +0.005 C 
ATOM     34  C   UNL     1       0.606  10.108  -0.745  0.00  0.00    +0.009 C 
ATOM     35  C   UNL     1      -0.687   8.298  -1.882  0.00  0.00    +0.009 C 
ENDBRANCH  23  33
ENDBRANCH  22  23
ENDBRANCH  11  22
TORSDOF 7
