REMARK  Name = ZINC02649859
REMARK  11 active torsions:
REMARK  status: ('A' for Active; 'I' for Inactive)
REMARK    1  A    between atoms: C_1  and  C_2
REMARK    2  A    between atoms: C_2  and  C_3
REMARK    3  A    between atoms: C_2  and  C_4
REMARK    4  A    between atoms: C_4  and  C_5
REMARK    5  A    between atoms: C_5  and  N_6
REMARK    6  A    between atoms: C_15  and  C_17
REMARK    7  A    between atoms: N_19  and  C_20
REMARK    8  A    between atoms: C_25  and  C_26
REMARK    9  A    between atoms: C_26  and  C_27
REMARK   10  A    between atoms: C_26  and  C_28
REMARK   11  A    between atoms: C_26  and  C_29
REMARK                            x       y       z     vdW  Elec       q    Type
REMARK                         _______ _______ _______ _____ _____    ______ ____
ROOT
ATOM      1  N   UNL     1      -0.400   3.364   0.689  0.00  0.00    -0.228 N 
ATOM      2  C   UNL     1      -1.373   3.966  -0.026  0.00  0.00    +0.275 A 
ATOM      3  O   UNL     1      -2.196   3.308  -0.636  0.00  0.00    -0.266 OA
ATOM      4  C   UNL     1      -1.418   5.435  -0.049  0.00  0.00    +0.050 A 
ATOM      5  C   UNL     1      -2.382   6.151  -0.752  0.00  0.00    +0.014 A 
ATOM      6  C   UNL     1      -2.351   7.529  -0.727  0.00  0.00    +0.001 A 
ATOM      7  C   UNL     1      -1.373   8.205  -0.010  0.00  0.00    +0.001 A 
ATOM      8  C   UNL     1      -0.409   7.513   0.694  0.00  0.00    +0.011 A 
ATOM      9  C   UNL     1      -0.421   6.123   0.682  0.00  0.00    +0.020 A 
ATOM     10  C   UNL     1       0.571   5.311   1.404  0.00  0.00    +0.154 A 
ATOM     11  N   UNL     1       0.493   4.003   1.344  0.00  0.00    -0.163 NA
ENDROOT
BRANCH  10  12
ATOM     12  C   UNL     1       1.640   5.960   2.187  0.00  0.00    +0.269 C 
ATOM     13  O   UNL     1       1.705   7.173   2.238  0.00  0.00    -0.268 OA
ATOM     14  N   UNL     1       2.545   5.209   2.845  0.00  0.00    -0.280 N 
ATOM     15  H   UNL     1       2.443   4.245   2.877  0.00  0.00    +0.155 HD
BRANCH  14  16
ATOM     16  C   UNL     1       3.630   5.819   3.482  0.00  0.00    +0.037 A 
ATOM     17  C   UNL     1       3.720   7.204   3.531  0.00  0.00    +0.023 A 
ATOM     18  C   UNL     1       4.790   7.804   4.165  0.00  0.00    +0.002 A 
ATOM     19  C   UNL     1       5.778   7.026   4.741  0.00  0.00    +0.000 A 
ATOM     20  C   UNL     1       5.694   5.647   4.690  0.00  0.00    +0.006 A 
ATOM     21  C   UNL     1       4.624   5.041   4.062  0.00  0.00    -0.021 A 
BRANCH  21  22
ATOM     22  C   UNL     1       4.534   3.538   4.007  0.00  0.00    -0.011 C 
ATOM     23  C   UNL     1       5.763   2.928   4.683  0.00  0.00    +0.015 C 
ATOM     24  C   UNL     1       3.270   3.075   4.734  0.00  0.00    +0.015 C 
ATOM     25  C   UNL     1       4.477   3.084   2.547  0.00  0.00    +0.015 C 
ENDBRANCH  21  22
ENDBRANCH  14  16
ENDBRANCH  10  12
BRANCH   1  26
ATOM     26  C   UNL     1      -0.363   1.900   0.712  0.00  0.00    +0.148 C 
BRANCH  26  27
ATOM     27  C   UNL     1       0.501   1.393  -0.444  0.00  0.00    +0.026 C 
BRANCH  27  29
ATOM     28  C   UNL     1      -0.861  -0.686  -0.691  0.00  0.00    +0.007 C 
ATOM     29  C   UNL     1       0.541  -0.136  -0.420  0.00  0.00    -0.015 C 
ATOM     30  C   UNL     1       1.503  -0.638  -1.498  0.00  0.00    +0.007 C 
ENDBRANCH  27  29
ENDBRANCH  26  27
ENDBRANCH   1  26
TORSDOF 6
