REMARK  Name = ZINC02344790
REMARK  7 active torsions:
REMARK  status: ('A' for Active; 'I' for Inactive)
REMARK    1  A    between atoms: C_1  and  C_2
REMARK    2  A    between atoms: C_3  and  C_19
REMARK    3  A    between atoms: C_4  and  C_12
REMARK    4  A    between atoms: C_6  and  C_10
REMARK    5  A    between atoms: C_7  and  N_9
REMARK    6  A    between atoms: C_19  and  O_21
REMARK    7  A    between atoms: O_21  and  C_22
REMARK                            x       y       z     vdW  Elec       q    Type
REMARK                         _______ _______ _______ _____ _____    ______ ____
ROOT
ATOM      1  C   UNL     1      -2.449   6.962   2.519  0.00  0.00    +0.087 C 
ATOM      2  C   UNL     1      -1.916   6.390   1.230  0.00  0.00    +0.115 C 
ATOM      3  C   UNL     1      -0.643   5.977   1.184  0.00  0.00    +0.087 C 
ATOM      4  C   UNL     1      -0.059   5.400  -0.076  0.00  0.00    +0.105 C 
ATOM      5  C   UNL     1      -0.938   5.745  -1.248  0.00  0.00    +0.098 C 
ATOM      6  C   UNL     1      -2.206   6.177  -1.060  0.00  0.00    +0.198 C 
ATOM      7  O   UNL     1      -2.733   6.313   0.170  0.00  0.00    -0.445 OA
ENDROOT
BRANCH   4   8
ATOM      8  C   UNL     1       0.036   3.902   0.055  0.00  0.00    -0.033 A 
ATOM      9  C   UNL     1      -1.108   3.153   0.264  0.00  0.00    +0.004 A 
ATOM     10  C   UNL     1      -1.022   1.778   0.379  0.00  0.00    +0.001 A 
ATOM     11  C   UNL     1       0.208   1.152   0.295  0.00  0.00    +0.014 A 
ATOM     12  C   UNL     1       1.351   1.901   0.086  0.00  0.00    +0.014 A 
ATOM     13  C   UNL     1       1.265   3.276  -0.034  0.00  0.00    +0.019 A 
ATOM     14  I   UNL     1       3.214   0.952  -0.050  0.00  0.00    -0.044 I 
ENDBRANCH   4   8
BRANCH   6  15
ATOM     15  N   UNL     1      -2.976   6.486  -2.154  0.00  0.00    -0.328 N 
ATOM     16  H   UNL     1      -3.887   6.797  -2.034  0.00  0.00    +0.145 HD
ATOM     17  H   UNL     1      -2.609   6.393  -3.047  0.00  0.00    +0.145 HD
ENDBRANCH   6  15
BRANCH   5  18
ATOM     18  C   UNL     1      -0.426   5.616  -2.579  0.00  0.00    +0.101 C 
ATOM     19  N   UNL     1      -0.020   5.513  -3.636  0.00  0.00    -0.191 NA
ENDBRANCH   5  18
BRANCH   3  20
ATOM     20  C   UNL     1       0.167   6.085   2.341  0.00  0.00    +0.339 C 
ATOM     21  O   UNL     1       0.943   7.015   2.456  0.00  0.00    -0.245 OA
BRANCH  20  22
ATOM     22  O   UNL     1       0.077   5.157   3.316  0.00  0.00    -0.465 OA
ATOM     23  C   UNL     1       0.923   5.329   4.455  0.00  0.00    +0.280 C 
ENDBRANCH  20  22
ENDBRANCH   3  20
TORSDOF 5
