REMARK  Name = ZINC14244788
REMARK  6 active torsions:
REMARK  status: ('A' for Active; 'I' for Inactive)
REMARK    1  A    between atoms: C_3  and  S_11
REMARK    2  A    between atoms: C_6  and  S_7
REMARK    3  A    between atoms: S_7  and  N_10
REMARK    4  A    between atoms: S_11  and  N_14
REMARK    5  A    between atoms: N_14  and  N_15
REMARK    6  A    between atoms: C_16  and  C_18
REMARK                            x       y       z     vdW  Elec       q    Type
REMARK                         _______ _______ _______ _____ _____    ______ ____
ROOT
ATOM      1  N   UNL     1      -0.011   0.966   0.007  0.00  0.00    -0.108 NA
ATOM      2  H   UNL     1       0.002  -0.004   0.002  0.00  0.00    +0.172 HD
ENDROOT
BRANCH   1   3
ATOM      3  N   UNL     1       1.193   1.683  -0.000  0.00  0.00    -0.227 N 
ATOM      4  C   UNL     1       2.123   1.447   0.946  0.00  0.00    +0.265 C 
ATOM      5  O   UNL     1       1.918   0.612   1.807  0.00  0.00    -0.268 OA
ATOM      6  H   UNL     1       1.356   2.349  -0.686  0.00  0.00    +0.171 HD
BRANCH   4   7
ATOM      7  C   UNL     1       3.382   2.197   0.938  0.00  0.00    +0.076 A 
ATOM      8  C   UNL     1       4.456   2.111   1.806  0.00  0.00    +0.024 A 
ATOM      9  C   UNL     1       5.550   2.936   1.578  0.00  0.00    -0.036 A 
ATOM     10  C   UNL     1       5.460   3.785   0.529  0.00  0.00    -0.006 A 
ATOM     11  S   UNL     1       3.937   3.457  -0.200  0.00  0.00    -0.088 S 
ATOM     12  C   UNL     1       6.486   4.812   0.107  0.00  0.00    +0.043 C 
ATOM     13  C   UNL     1       7.712   4.043  -0.415  0.00  0.00    +0.005 C 
ATOM     14  C   UNL     1       8.542   3.533   0.740  0.00  0.00    +0.001 C 
ATOM     15  C   UNL     1       7.958   2.393   1.534  0.00  0.00    +0.005 C 
ATOM     16  C   UNL     1       6.815   2.851   2.441  0.00  0.00    +0.036 C 
ENDBRANCH   4   7
ENDBRANCH   1   3
BRANCH   1  17
ATOM     17  S   UNL     1      -1.456   1.774   0.019  0.00  0.00    +0.074 S 
ATOM     18  O   UNL     1      -2.472   0.792  -0.128  0.00  0.00    -0.152 OA
ATOM     19  O   UNL     1      -1.413   2.667   1.123  0.00  0.00    -0.152 OA
BRANCH  17  22
ATOM     20  C   UNL     1      -2.076   3.042  -3.743  0.00  0.00    +0.030 A 
ATOM     21  C   UNL     1      -2.036   2.260  -2.604  0.00  0.00    +0.030 A 
ATOM     22  C   UNL     1      -1.507   2.771  -1.433  0.00  0.00    +0.107 A 
ATOM     23  C   UNL     1      -1.023   4.065  -1.401  0.00  0.00    +0.030 A 
ATOM     24  C   UNL     1      -1.059   4.846  -2.541  0.00  0.00    +0.030 A 
ATOM     25  C   UNL     1      -1.587   4.335  -3.712  0.00  0.00    +0.105 A 
BRANCH  25  26
ATOM     26  S   UNL     1      -1.637   5.331  -5.164  0.00  0.00    +0.056 S 
ATOM     27  O   UNL     1      -0.621   6.314  -5.017  0.00  0.00    -0.153 OA
ATOM     28  O   UNL     1      -1.678   4.438  -6.268  0.00  0.00    -0.153 OA
BRANCH  26  29
ATOM     29  N   UNL     1      -3.082   6.139  -5.155  0.00  0.00    -0.204 NA
ATOM     30  H   UNL     1      -3.152   7.013  -5.570  0.00  0.00    +0.144 HD
ATOM     31  H   UNL     1      -3.859   5.739  -4.734  0.00  0.00    +0.144 HD
ENDBRANCH  26  29
ENDBRANCH  25  26
ENDBRANCH  17  22
ENDBRANCH   1  17
TORSDOF 6
