REMARK  Name = ZINC63411820
REMARK  7 active torsions:
REMARK  status: ('A' for Active; 'I' for Inactive)
REMARK    1  A    between atoms: C_1  and  O_2
REMARK    2  A    between atoms: O_2  and  C_3
REMARK    3  A    between atoms: C_3  and  C_5
REMARK    4  A    between atoms: C_5  and  N_6
REMARK    5  A    between atoms: C_10  and  C_11
REMARK    6  A    between atoms: C_14  and  S_16
REMARK    7  A    between atoms: S_16  and  C_17
REMARK                            x       y       z     vdW  Elec       q    Type
REMARK                         _______ _______ _______ _____ _____    ______ ____
ROOT
ATOM      1  C   UNL     1       5.799  -2.791   2.283  0.00  0.00    +0.131 A 
ATOM      2  C   UNL     1       7.184  -2.802   2.300  0.00  0.00    +0.050 A 
ATOM      3  C   UNL     1       7.604  -2.374   1.040  0.00  0.00    +0.057 A 
ATOM      4  C   UNL     1       6.482  -2.119   0.304  0.00  0.00    +0.165 A 
ATOM      5  O   UNL     1       5.401  -2.378   1.058  0.00  0.00    -0.449 OA
ENDROOT
BRANCH   1  10
ATOM      6  N   UNL     1       1.511  -2.468   2.263  0.00  0.00    -0.218 N 
ATOM      7  C   UNL     1       2.828  -2.464   2.158  0.00  0.00    +0.261 C 
ATOM      8  O   UNL     1       3.377  -1.985   1.180  0.00  0.00    -0.269 OA
ATOM      9  C   UNL     1       3.588  -3.032   3.216  0.00  0.00    +0.083 C 
ATOM     10  C   UNL     1       4.955  -3.150   3.349  0.00  0.00    +0.066 C 
ATOM     11  S   UNL     1       2.289  -3.552   4.329  0.00  0.00    -0.026 S 
ATOM     12  C   UNL     1       0.902  -2.994   3.349  0.00  0.00    +0.286 C 
ATOM     13  O   UNL     1      -0.287  -3.070   3.597  0.00  0.00    -0.262 OA
BRANCH   6  14
ATOM     14  C   UNL     1       0.699  -1.890   1.189  0.00  0.00    +0.238 C 
BRANCH  14  15
ATOM     15  C   UNL     1       0.582  -0.402   1.394  0.00  0.00    +0.325 C 
ATOM     16  O   UNL     1       1.049   0.111   2.384  0.00  0.00    -0.249 OA
BRANCH  15  18
ATOM     17  C   UNL     1      -0.116   1.759   0.737  0.00  0.00    +0.280 C 
ATOM     18  O   UNL     1      -0.042   0.355   0.478  0.00  0.00    -0.467 OA
ENDBRANCH  15  18
ENDBRANCH  14  15
ENDBRANCH   6  14
ENDBRANCH   1  10
BRANCH   4  19
ATOM     19  S   UNL     1       6.456  -1.551  -1.364  0.00  0.00    -0.042 S 
BRANCH  19  20
ATOM     20  C   UNL     1       6.290  -3.069  -2.342  0.00  0.00    +0.243 C 
ATOM     21  N   UNL     1       5.026  -3.742  -2.019  0.00  0.00    -0.355 N 
ATOM     22  C   UNL     1       5.320  -4.919  -1.546  0.00  0.00    +0.061 A 
ATOM     23  C   UNL     1       4.497  -6.034  -1.058  0.00  0.00    +0.027 A 
ATOM     24  C   UNL     1       5.094  -7.159  -0.618  0.00  0.00    +0.002 A 
ATOM     25  C   UNL     1       6.491  -7.321  -0.605  0.00  0.00    +0.002 A 
ATOM     26  C   UNL     1       7.338  -6.362  -1.031  0.00  0.00    +0.027 A 
ATOM     27  C   UNL     1       6.799  -5.090  -1.532  0.00  0.00    +0.061 A 
ATOM     28  N   UNL     1       7.362  -4.011  -1.996  0.00  0.00    -0.355 N 
ATOM     29  H   UNL     1       4.135  -3.377  -2.135  0.00  0.00    +0.162 HD
ATOM     30  H   UNL     1       8.315  -3.859  -2.094  0.00  0.00    +0.162 HD
ENDBRANCH  19  20
ENDBRANCH   4  19
TORSDOF 6
