REMARK  Name = ZINC10611348
REMARK  11 active torsions:
REMARK  status: ('A' for Active; 'I' for Inactive)
REMARK    1  A    between atoms: C_1  and  C_2
REMARK    2  A    between atoms: C_4  and  S_32
REMARK    3  A    between atoms: C_6  and  N_9
REMARK    4  A    between atoms: C_7  and  C_8
REMARK    5  A    between atoms: C_10  and  C_12
REMARK    6  A    between atoms: C_12  and  N_13
REMARK    7  A    between atoms: C_16  and  C_21
REMARK    8  A    between atoms: C_21  and  C_22
REMARK    9  A    between atoms: S_32  and  N_35
REMARK   10  A    between atoms: N_35  and  C_36
REMARK   11  A    between atoms: N_35  and  C_37
REMARK                            x       y       z     vdW  Elec       q    Type
REMARK                         _______ _______ _______ _____ _____    ______ ____
ROOT
ATOM      1  C   UNL     1       3.167  -4.138  -2.227  0.00  0.00    +0.214 C 
ENDROOT
BRANCH   1   2
ATOM      2  N   UNL     1       2.952  -2.705  -2.007  0.00  0.00    -0.216 N 
ATOM      3  C   UNL     1       3.884  -1.867  -1.510  0.00  0.00    +0.244 C 
ATOM      4  O   UNL     1       5.015  -2.146  -1.174  0.00  0.00    -0.273 OA
ATOM      5  C   UNL     1       3.222  -0.504  -1.457  0.00  0.00    +0.165 C 
ATOM      6  N   UNL     1       1.869  -0.756  -1.980  0.00  0.00    -0.287 N 
ATOM      7  C   UNL     1       1.807  -2.068  -2.273  0.00  0.00    +0.310 C 
ATOM      8  O   UNL     1       0.820  -2.612  -2.729  0.00  0.00    -0.252 OA
ATOM      9  H   UNL     1       1.160  -0.103  -2.092  0.00  0.00    +0.151 HD
BRANCH   5  10
ATOM     10  C   UNL     1       3.157   0.007  -0.017  0.00  0.00    +0.069 C 
BRANCH  10  11
ATOM     11  C   UNL     1       2.609   1.411  -0.007  0.00  0.00    -0.020 A 
ATOM     12  C   UNL     1       3.324   2.547  -0.001  0.00  0.00    +0.087 A 
ATOM     13  N   UNL     1       2.484   3.627   0.008  0.00  0.00    -0.360 N 
ATOM     14  H   UNL     1       2.769   4.555   0.014  0.00  0.00    +0.165 HD
ATOM     15  C   UNL     1       1.175   3.202   0.007  0.00  0.00    +0.047 A 
ATOM     16  C   UNL     1       1.195   1.795  -0.003  0.00  0.00    +0.003 A 
ATOM     17  C   UNL     1      -0.004   1.081  -0.005  0.00  0.00    +0.010 A 
ATOM     18  C   UNL     1      -1.194   1.753  -0.004  0.00  0.00    +0.001 A 
ATOM     19  C   UNL     1      -1.220   3.141   0.011  0.00  0.00    +0.002 A 
ATOM     20  C   UNL     1      -0.048   3.865   0.014  0.00  0.00    +0.026 A 
ENDBRANCH  10  11
ENDBRANCH   5  10
ENDBRANCH   1   2
BRANCH   1  22
ATOM     21  N   UNL     1       2.898  -6.243  -0.957  0.00  0.00    -0.284 N 
ATOM     22  C   UNL     1       2.783  -4.900  -0.986  0.00  0.00    +0.235 C 
ATOM     23  O   UNL     1       2.369  -4.306  -0.013  0.00  0.00    -0.274 OA
ATOM     24  H   UNL     1       3.151  -6.725  -1.760  0.00  0.00    +0.155 HD
BRANCH  21  30
ATOM     25  C   UNL     1       1.605 -10.408   1.313  0.00  0.00    +0.044 C 
ATOM     26  C   UNL     1       2.024  -8.961   1.360  0.00  0.00    -0.044 A 
ATOM     27  C   UNL     1       2.164  -8.321   2.578  0.00  0.00    +0.032 A 
ATOM     28  C   UNL     1       2.547  -6.994   2.625  0.00  0.00    +0.107 A 
ATOM     29  C   UNL     1       2.797  -6.303   1.455  0.00  0.00    +0.052 A 
ATOM     30  C   UNL     1       2.651  -6.941   0.230  0.00  0.00    +0.038 A 
ATOM     31  C   UNL     1       2.266  -8.275   0.186  0.00  0.00    -0.026 A 
ATOM     32  C   UNL     1       2.114  -8.972  -1.141  0.00  0.00    +0.046 C 
BRANCH  28  33
ATOM     33  S   UNL     1       2.724  -6.183   4.180  0.00  0.00    +0.060 S 
ATOM     34  O   UNL     1       2.562  -4.793   3.934  0.00  0.00    -0.153 OA
ATOM     35  O   UNL     1       1.909  -6.894   5.103  0.00  0.00    -0.153 OA
BRANCH  33  36
ATOM     36  N   UNL     1       4.291  -6.398   4.668  0.00  0.00    -0.183 NA
ATOM     37  C   UNL     1       5.317  -5.423   4.289  0.00  0.00    +0.131 C 
ATOM     38  C   UNL     1       4.652  -7.563   5.480  0.00  0.00    +0.131 C 
ENDBRANCH  33  36
ENDBRANCH  28  33
ENDBRANCH  21  30
ENDBRANCH   1  22
TORSDOF 7
