REMARK  Name = ZINC36066094
REMARK  10 active torsions:
REMARK  status: ('A' for Active; 'I' for Inactive)
REMARK    1  A    between atoms: C_1  and  C_2
REMARK    2  A    between atoms: C_2  and  O_3
REMARK    3  A    between atoms: O_3  and  C_4
REMARK    4  A    between atoms: C_7  and  C_10
REMARK    5  A    between atoms: C_10  and  C_12
REMARK    6  A    between atoms: C_10  and  N_22
REMARK    7  A    between atoms: C_13  and  O_21
REMARK    8  A    between atoms: C_18  and  C_20
REMARK    9  A    between atoms: C_24  and  C_31
REMARK   10  A    between atoms: C_27  and  C_30
REMARK                            x       y       z     vdW  Elec       q    Type
REMARK                         _______ _______ _______ _____ _____    ______ ____
ROOT
ATOM      1  C   UNL     1       1.144  -6.059   1.764  0.00  0.00    +0.129 C 
ENDROOT
BRANCH   1   2
ATOM      2  C   UNL     1       2.516  -6.423   1.257  0.00  0.00    +0.076 A 
ATOM      3  C   UNL     1       2.856  -7.127   0.171  0.00  0.00    +0.228 A 
ATOM      4  N   UNL     1       4.176  -7.357  -0.130  0.00  0.00    -0.173 N 
ATOM      5  C   UNL     1       5.108  -6.841   0.718  0.00  0.00    +0.199 A 
ATOM      6  S   UNL     1       4.116  -6.020   1.942  0.00  0.00    -0.047 S 
ATOM      7  N   UNL     1       6.304  -7.147   0.294  0.00  0.00    -0.205 NA
ATOM      8  C   UNL     1       6.204  -7.861  -0.825  0.00  0.00    +0.150 A 
ATOM      9  N   UNL     1       4.943  -8.017  -1.126  0.00  0.00    -0.147 NA
ATOM     10  C   UNL     1       7.364  -8.403  -1.621  0.00  0.00    +0.090 C 
BRANCH   3  11
ATOM     11  O   UNL     1       1.883  -7.621  -0.643  0.00  0.00    -0.492 OA
ATOM     12  H   UNL     1       2.220  -8.116  -1.402  0.00  0.00    +0.294 HD
ENDBRANCH   3  11
ENDBRANCH   1   2
BRANCH   1  13
ATOM     13  N   UNL     1       1.001  -6.511   3.155  0.00  0.00    -0.286 NA
ATOM     14  C   UNL     1       1.261  -7.954   3.269  0.00  0.00    +0.116 C 
ATOM     15  C   UNL     1       1.160  -8.370   4.739  0.00  0.00    +0.130 C 
ATOM     16  O   UNL     1      -0.129  -8.010   5.243  0.00  0.00    -0.371 OA
ATOM     17  C   UNL     1      -0.415  -6.612   5.148  0.00  0.00    +0.130 C 
ATOM     18  C   UNL     1      -0.330  -6.178   3.682  0.00  0.00    +0.116 C 
ATOM     19  C   UNL     1      -1.824  -6.342   5.681  0.00  0.00    +0.039 C 
ATOM     20  C   UNL     1       2.244  -7.655   5.548  0.00  0.00    +0.039 C 
ENDBRANCH   1  13
BRANCH   1  24
ATOM     21  C   UNL     1       0.637  -1.820   1.586  0.00  0.00    +0.121 A 
ATOM     22  C   UNL     1      -0.004  -2.636   0.665  0.00  0.00    +0.046 A 
ATOM     23  C   UNL     1       0.162  -4.006   0.725  0.00  0.00    +0.009 A 
ATOM     24  C   UNL     1       0.966  -4.564   1.701  0.00  0.00    -0.025 A 
ATOM     25  C   UNL     1       1.605  -3.753   2.620  0.00  0.00    +0.009 A 
ATOM     26  C   UNL     1       1.448  -2.382   2.561  0.00  0.00    +0.046 A 
BRANCH  21  27
ATOM     27  O   UNL     1       0.475  -0.471   1.529  0.00  0.00    -0.492 OA
BRANCH  27  29
ATOM     28  C   UNL     1      -0.432   1.563   0.593  0.00  0.00    +0.048 C 
ATOM     29  C   UNL     1      -0.374   0.037   0.498  0.00  0.00    +0.225 C 
ENDBRANCH  27  29
ENDBRANCH  21  27
ENDBRANCH   1  24
TORSDOF 6
