REMARK  Name = ZINC36548411
REMARK  15 active torsions:
REMARK  status: ('A' for Active; 'I' for Inactive)
REMARK    1  A    between atoms: C_1  and  C_2
REMARK    2  A    between atoms: C_2  and  C_4
REMARK    3  A    between atoms: C_2  and  C_10
REMARK    4  A    between atoms: C_10  and  C_12
REMARK    5  A    between atoms: C_10  and  N_23
REMARK    6  A    between atoms: N_14  and  C_15
REMARK    7  A    between atoms: C_15  and  C_16
REMARK    8  A    between atoms: C_15  and  C_17
REMARK    9  A    between atoms: C_15  and  C_18
REMARK   10  A    between atoms: C_18  and  C_19
REMARK   11  A    between atoms: C_19  and  C_20
REMARK   12  A    between atoms: C_19  and  C_21
REMARK   13  A    between atoms: C_19  and  C_22
REMARK   14  A    between atoms: N_23  and  C_24
REMARK   15  A    between atoms: C_31  and  C_33
REMARK                            x       y       z     vdW  Elec       q    Type
REMARK                         _______ _______ _______ _____ _____    ______ ____
ROOT
ATOM      1  C   UNL     1       1.794   0.248  -2.984  0.00  0.00    +0.174 C 
ENDROOT
BRANCH   1   2
ATOM      2  C   UNL     1       3.222   0.531  -2.592  0.00  0.00    +0.235 C 
ATOM      3  O   UNL     1       3.916  -0.359  -2.149  0.00  0.00    -0.274 OA
ATOM      4  N   UNL     1       3.726   1.773  -2.733  0.00  0.00    -0.309 N 
ATOM      5  H   UNL     1       3.154   2.498  -3.031  0.00  0.00    +0.149 HD
BRANCH   4   6
ATOM      6  C   UNL     1       5.138   2.029  -2.436  0.00  0.00    +0.030 C 
ATOM      7  C   UNL     1       5.352   2.012  -0.921  0.00  0.00    +0.031 C 
ATOM      8  C   UNL     1       6.000   0.943  -3.085  0.00  0.00    +0.031 C 
BRANCH   6   9
ATOM      9  C   UNL     1       5.536   3.397  -2.993  0.00  0.00    +0.031 C 
BRANCH   9  10
ATOM     10  C   UNL     1       4.934   3.575  -4.388  0.00  0.00    -0.036 C 
ATOM     11  C   UNL     1       3.515   4.134  -4.264  0.00  0.00    +0.010 C 
ATOM     12  C   UNL     1       5.797   4.547  -5.195  0.00  0.00    +0.010 C 
ATOM     13  C   UNL     1       4.889   2.222  -5.100  0.00  0.00    +0.010 C 
ENDBRANCH   9  10
ENDBRANCH   6   9
ENDBRANCH   4   6
ENDBRANCH   1   2
BRANCH   1  14
ATOM     14  N   UNL     1       1.663  -1.159  -3.367  0.00  0.00    -0.256 N 
ATOM     15  C   UNL     1       0.464  -1.647  -3.742  0.00  0.00    +0.241 C 
ATOM     16  O   UNL     1      -0.507  -0.920  -3.763  0.00  0.00    -0.273 OA
BRANCH  14  17
ATOM     17  C   UNL     1       2.783  -1.999  -3.343  0.00  0.00    +0.055 A 
ATOM     18  C   UNL     1       2.910  -2.961  -2.350  0.00  0.00    +0.025 A 
ATOM     19  C   UNL     1       4.016  -3.788  -2.329  0.00  0.00    +0.002 A 
ATOM     20  C   UNL     1       4.997  -3.658  -3.296  0.00  0.00    +0.002 A 
ATOM     21  C   UNL     1       4.875  -2.701  -4.285  0.00  0.00    +0.022 A 
ATOM     22  C   UNL     1       3.767  -1.874  -4.316  0.00  0.00    +0.062 A 
ATOM     23 CL   UNL     1       3.610  -0.678  -5.564  0.00  0.00    -0.082 Cl
ENDBRANCH  14  17
BRANCH  15  24
ATOM     24  C   UNL     1       0.329  -3.095  -4.136  0.00  0.00    +0.160 C 
ATOM     25  C   UNL     1       0.782  -3.296  -5.599  0.00  0.00    +0.041 C 
ATOM     26  C   UNL     1      -0.555  -3.169  -6.364  0.00  0.00    +0.098 C 
ATOM     27  C   UNL     1      -1.605  -3.545  -5.342  0.00  0.00    +0.214 C 
ATOM     28  O   UNL     1      -2.751  -3.844  -5.601  0.00  0.00    -0.276 OA
ATOM     29  N   UNL     1      -1.081  -3.501  -4.102  0.00  0.00    -0.304 N 
ATOM     30  H   UNL     1      -1.571  -3.711  -3.292  0.00  0.00    +0.149 HD
ENDBRANCH  15  24
ENDBRANCH   1  14
BRANCH   1  32
ATOM     31  C   UNL     1       1.160   1.948  -1.266  0.00  0.00    +0.015 C 
ATOM     32  C   UNL     1       0.872   0.543  -1.800  0.00  0.00    +0.046 C 
BRANCH  32  33
ATOM     33  C   UNL     1       1.115  -0.468  -0.709  0.00  0.00    -0.042 A 
ATOM     34  C   UNL     1       2.277  -0.412   0.038  0.00  0.00    +0.004 A 
ATOM     35  C   UNL     1       2.500  -1.340   1.038  0.00  0.00    +0.000 A 
ATOM     36  C   UNL     1       1.562  -2.323   1.291  0.00  0.00    +0.000 A 
ATOM     37  C   UNL     1       0.401  -2.379   0.544  0.00  0.00    +0.000 A 
ATOM     38  C   UNL     1       0.175  -1.448  -0.453  0.00  0.00    +0.004 A 
ENDBRANCH  32  33
ENDBRANCH   1  32
TORSDOF 9
