REMARK  Name = ZINC21719791
REMARK  15 active torsions:
REMARK  status: ('A' for Active; 'I' for Inactive)
REMARK    1  A    between atoms: C_1  and  C_2
REMARK    2  A    between atoms: C_2  and  C_3
REMARK    3  A    between atoms: C_2  and  C_4
REMARK    4  A    between atoms: C_8  and  C_32
REMARK    5  A    between atoms: C_9  and  N_10
REMARK    6  A    between atoms: C_11  and  C_13
REMARK    7  A    between atoms: C_13  and  N_14
REMARK    8  A    between atoms: C_17  and  C_21
REMARK    9  A    between atoms: C_17  and  C_22
REMARK   10  A    between atoms: C_22  and  C_23
REMARK   11  A    between atoms: C_23  and  C_24
REMARK   12  A    between atoms: C_27  and  O_30
REMARK   13  A    between atoms: O_30  and  C_31
REMARK   14  A    between atoms: C_32  and  C_33
REMARK   15  A    between atoms: C_32  and  C_34
REMARK                            x       y       z     vdW  Elec       q    Type
REMARK                         _______ _______ _______ _____ _____    ______ ____
ROOT
ATOM      1  N   UNL     1       0.076  -1.898  -5.457  0.00  0.00    -0.215 N 
ATOM      2  C   UNL     1       0.980  -2.897  -5.406  0.00  0.00    +0.247 C 
ATOM      3  O   UNL     1       1.891  -3.020  -4.615  0.00  0.00    -0.273 OA
ATOM      4  C   UNL     1       0.620  -3.834  -6.541  0.00  0.00    +0.110 C 
ATOM      5  N   UNL     1      -0.555  -3.196  -7.158  0.00  0.00    -0.285 N 
ATOM      6  C   UNL     1      -0.799  -2.076  -6.454  0.00  0.00    +0.310 C 
ATOM      7  O   UNL     1      -1.710  -1.309  -6.698  0.00  0.00    -0.252 OA
ATOM      8  C   UNL     1       1.770  -3.930  -7.545  0.00  0.00    +0.041 C 
ATOM      9  H   UNL     1      -1.057  -3.521  -7.922  0.00  0.00    +0.151 HD
ENDROOT
BRANCH   1  10
ATOM     10  C   UNL     1       0.051  -0.762  -4.532  0.00  0.00    +0.214 C 
BRANCH  10  12
ATOM     11  N   UNL     1      -0.977  -0.203  -2.353  0.00  0.00    -0.284 N 
ATOM     12  C   UNL     1      -0.807  -1.104  -3.341  0.00  0.00    +0.235 C 
ATOM     13  O   UNL     1      -1.344  -2.189  -3.271  0.00  0.00    -0.274 OA
ATOM     14  H   UNL     1      -0.612   0.691  -2.444  0.00  0.00    +0.155 HD
BRANCH  11  20
ATOM     15  C   UNL     1      -1.049  -0.517   0.041  0.00  0.00    -0.023 A 
ATOM     16  C   UNL     1      -1.747  -0.862   1.182  0.00  0.00    +0.006 A 
ATOM     17  C   UNL     1      -3.070  -1.254   1.093  0.00  0.00    +0.001 A 
ATOM     18  C   UNL     1      -3.699  -1.301  -0.138  0.00  0.00    +0.006 A 
ATOM     19  C   UNL     1      -3.006  -0.957  -1.283  0.00  0.00    -0.023 A 
ATOM     20  C   UNL     1      -1.679  -0.558  -1.196  0.00  0.00    +0.040 A 
BRANCH  15  22
ATOM     21  C   UNL     1       0.500   1.147   1.032  0.00  0.00    +0.012 C 
ATOM     22  C   UNL     1       0.393  -0.091   0.139  0.00  0.00    +0.015 C 
ATOM     23  C   UNL     1       1.221  -1.228   0.742  0.00  0.00    +0.012 C 
ENDBRANCH  15  22
BRANCH  19  24
ATOM     24  C   UNL     1      -3.692  -1.009  -2.623  0.00  0.00    +0.015 C 
ATOM     25  C   UNL     1      -4.832  -2.029  -2.574  0.00  0.00    +0.012 C 
ATOM     26  C   UNL     1      -4.258   0.372  -2.961  0.00  0.00    +0.012 C 
ENDBRANCH  19  24
ENDBRANCH  11  20
ENDBRANCH  10  12
ENDBRANCH   1  10
BRANCH   4  27
ATOM     27  C   UNL     1       0.258  -5.220  -6.001  0.00  0.00    +0.039 C 
BRANCH  27  28
ATOM     28  C   UNL     1      -0.100  -6.144  -7.167  0.00  0.00    +0.038 C 
BRANCH  28  29
ATOM     29  C   UNL     1      -0.457  -7.508  -6.635  0.00  0.00    -0.047 A 
ATOM     30  C   UNL     1       0.528  -8.465  -6.474  0.00  0.00    +0.007 A 
ATOM     31  C   UNL     1       0.204  -9.716  -5.987  0.00  0.00    +0.046 A 
ATOM     32  C   UNL     1      -1.111 -10.012  -5.659  0.00  0.00    +0.120 A 
ATOM     33  C   UNL     1      -2.097  -9.050  -5.821  0.00  0.00    +0.046 A 
ATOM     34  C   UNL     1      -1.767  -7.799  -6.303  0.00  0.00    +0.007 A 
BRANCH  32  35
ATOM     35  O   UNL     1      -1.432 -11.243  -5.180  0.00  0.00    -0.495 OA
ATOM     36  C   UNL     1      -2.806 -11.477  -4.863  0.00  0.00    +0.277 C 
ENDBRANCH  32  35
ENDBRANCH  28  29
ENDBRANCH  27  28
ENDBRANCH   4  27
TORSDOF 9
