REMARK  Name = ZINC39545626
REMARK  6 active torsions:
REMARK  status: ('A' for Active; 'I' for Inactive)
REMARK    1  A    between atoms: C_1  and  C_2
REMARK    2  A    between atoms: C_2  and  O_3
REMARK    3  A    between atoms: O_3  and  N_4
REMARK    4  A    between atoms: N_4  and  C_5
REMARK    5  A    between atoms: C_10  and  O_11
REMARK    6  A    between atoms: C_12  and  C_14
REMARK                            x       y       z     vdW  Elec       q    Type
REMARK                         _______ _______ _______ _____ _____    ______ ____
ROOT
ATOM      1  C   UNL     1      -1.427  -1.499  -2.480  0.00  0.00    +0.152 C 
ATOM      2  C   UNL     1      -0.130  -0.666  -2.474  0.00  0.00    +0.081 C 
ATOM      3  C   UNL     1       0.573  -1.069  -3.750  0.00  0.00    +0.055 C 
ATOM      4  C   UNL     1      -0.155  -1.949  -4.389  0.00  0.00    +0.090 C 
ATOM      5  N   UNL     1       0.185  -2.586  -5.599  0.00  0.00    -0.303 N 
ATOM      6  C   UNL     1      -0.218  -3.929  -5.694  0.00  0.00    +0.037 A 
ATOM      7  C   UNL     1       0.163  -4.688  -6.791  0.00  0.00    +0.023 A 
ATOM      8  C   UNL     1      -0.242  -6.005  -6.889  0.00  0.00    +0.002 A 
ATOM      9  C   UNL     1      -1.025  -6.559  -5.893  0.00  0.00    +0.000 A 
ATOM     10  C   UNL     1      -1.401  -5.805  -4.798  0.00  0.00    +0.007 A 
ATOM     11  C   UNL     1      -0.996  -4.485  -4.688  0.00  0.00    -0.010 A 
ATOM     12  C   UNL     1      -1.401  -3.696  -3.471  0.00  0.00    +0.124 C 
ATOM     13  N   UNL     1      -1.364  -2.255  -3.741  0.00  0.00    -0.369 NA
ATOM     14 CL   UNL     1       2.107  -0.459  -4.285  0.00  0.00    -0.085 Cl
ATOM     15  H   UNL     1       0.662  -2.132  -6.312  0.00  0.00    +0.153 HD
ATOM     16  H   UNL     1      -2.142  -1.999  -4.330  0.00  0.00    +0.129 HD
ENDROOT
BRANCH   1  18
ATOM     17  N   UNL     1      -2.566  -2.532  -0.542  0.00  0.00    -0.143 N 
ATOM     18  C   UNL     1      -1.456  -2.438  -1.302  0.00  0.00    +0.262 C 
ATOM     19  O   UNL     1      -0.482  -3.110  -1.037  0.00  0.00    -0.271 OA
BRANCH  17  20
ATOM     20  C   UNL     1      -2.555  -3.315   0.620  0.00  0.00    +0.106 A 
ATOM     21  C   UNL     1      -2.100  -2.779   1.816  0.00  0.00    +0.029 A 
ATOM     22  C   UNL     1      -2.091  -3.553   2.960  0.00  0.00    +0.002 A 
ATOM     23  C   UNL     1      -2.534  -4.862   2.917  0.00  0.00    +0.004 A 
ATOM     24  C   UNL     1      -2.989  -5.404   1.729  0.00  0.00    +0.047 A 
ATOM     25  C   UNL     1      -3.007  -4.632   0.578  0.00  0.00    +0.140 A 
BRANCH  25  26
ATOM     26  O   UNL     1      -3.460  -5.161  -0.590  0.00  0.00    -0.505 OA
ATOM     27  H   UNL     1      -2.773  -5.588  -1.120  0.00  0.00    +0.292 HD
ENDBRANCH  25  26
ENDBRANCH  17  20
BRANCH  17  28
ATOM     28  O   UNL     1      -3.742  -1.839  -0.918  0.00  0.00    -0.273 OA
BRANCH  28  30
ATOM     29  C   UNL     1      -5.071   0.179  -0.955  0.00  0.00    +0.036 C 
ATOM     30  C   UNL     1      -3.836  -0.519  -0.380  0.00  0.00    +0.187 C 
ENDBRANCH  28  30
ENDBRANCH  17  28
ENDBRANCH   1  18
TORSDOF 5
