REMARK  Name = ZINC64220473
REMARK  10 active torsions:
REMARK  status: ('A' for Active; 'I' for Inactive)
REMARK    1  A    between atoms: C_2  and  C_3
REMARK    2  A    between atoms: C_3  and  N_4
REMARK    3  A    between atoms: N_4  and  C_5
REMARK    4  A    between atoms: C_5  and  N_7
REMARK    5  A    between atoms: N_7  and  N_8
REMARK    6  A    between atoms: C_9  and  C_11
REMARK    7  A    between atoms: C_11  and  C_13
REMARK    8  A    between atoms: C_11  and  N_23
REMARK    9  A    between atoms: C_13  and  C_14
REMARK   10  A    between atoms: C_24  and  C_26
REMARK                            x       y       z     vdW  Elec       q    Type
REMARK                         _______ _______ _______ _____ _____    ______ ____
ROOT
ATOM      1  C   UNL     1      -0.177  -4.311  -5.245  0.00  0.00    +0.165 C 
ENDROOT
BRANCH   1   3
ATOM      2  N   UNL     1      -1.322  -3.403  -3.250  0.00  0.00    -0.234 N 
ATOM      3  C   UNL     1      -1.345  -4.253  -4.295  0.00  0.00    +0.250 C 
ATOM      4  O   UNL     1      -2.306  -4.972  -4.472  0.00  0.00    -0.272 OA
ATOM      5  H   UNL     1      -0.554  -2.828  -3.109  0.00  0.00    +0.173 HD
BRANCH   2   6
ATOM      6  N   UNL     1      -2.409  -3.349  -2.367  0.00  0.00    -0.246 N 
ATOM      7  H   UNL     1      -3.177  -3.923  -2.508  0.00  0.00    +0.172 HD
BRANCH   6   8
ATOM      8  C   UNL     1      -2.386  -2.498  -1.322  0.00  0.00    +0.147 C 
ATOM      9  S   UNL     1      -3.713  -2.432  -0.243  0.00  0.00    -0.017 S 
BRANCH   8  10
ATOM     10  N   UNL     1      -1.318  -1.700  -1.126  0.00  0.00    -0.322 N 
ATOM     11  H   UNL     1      -0.566  -1.737  -1.737  0.00  0.00    +0.148 HD
BRANCH  10  12
ATOM     12  C   UNL     1      -1.293  -0.775   0.010  0.00  0.00    +0.130 C 
BRANCH  12  14
ATOM     13  C   UNL     1      -0.016   1.306   0.009  0.00  0.00    +0.005 C 
ATOM     14  C   UNL     1       0.002  -0.004   0.002  0.00  0.00    -0.016 C 
ENDBRANCH  12  14
ENDBRANCH  10  12
ENDBRANCH   8  10
ENDBRANCH   6   8
ENDBRANCH   2   6
ENDBRANCH   1   3
BRANCH   1  15
ATOM     15  N   UNL     1      -0.605  -4.913  -6.510  0.00  0.00    -0.299 N 
ATOM     16  C   UNL     1      -1.101  -6.166  -6.527  0.00  0.00    +0.251 C 
ATOM     17  O   UNL     1      -1.193  -6.798  -5.491  0.00  0.00    -0.270 OA
ATOM     18  H   UNL     1      -0.532  -4.410  -7.336  0.00  0.00    +0.150 HD
BRANCH  16  19
ATOM     19  C   UNL     1      -1.530  -6.768  -7.793  0.00  0.00    +0.074 A 
ATOM     20  C   UNL     1      -2.066  -8.026  -8.025  0.00  0.00    +0.021 A 
ATOM     21  C   UNL     1      -2.375  -8.311  -9.334  0.00  0.00    +0.008 A 
ATOM     22  C   UNL     1      -2.142  -7.373 -10.285  0.00  0.00    +0.046 A 
ATOM     23  S   UNL     1      -1.505  -6.072  -9.433  0.00  0.00    -0.092 S 
ENDBRANCH  16  19
ENDBRANCH   1  15
BRANCH   1  24
ATOM     24  C   UNL     1       0.939  -5.158  -4.630  0.00  0.00    +0.065 C 
BRANCH  24  25
ATOM     25  C   UNL     1       2.152  -5.116  -5.522  0.00  0.00    -0.039 C 
ATOM     26  C   UNL     1       3.217  -4.290  -5.409  0.00  0.00    -0.001 A 
ATOM     27  C   UNL     1       3.551  -3.224  -4.457  0.00  0.00    +0.010 A 
ATOM     28  C   UNL     1       4.718  -2.556  -4.603  0.00  0.00    +0.001 A 
ATOM     29  C   UNL     1       5.614  -2.855  -5.639  0.00  0.00    +0.002 A 
ATOM     30  C   UNL     1       5.377  -3.821  -6.551  0.00  0.00    +0.026 A 
ATOM     31  C   UNL     1       4.181  -4.587  -6.493  0.00  0.00    +0.043 A 
ATOM     32  N   UNL     1       3.729  -5.559  -7.247  0.00  0.00    -0.380 N 
ATOM     33  C   UNL     1       2.429  -5.993  -6.723  0.00  0.00    +0.144 C 
ATOM     34  H   UNL     1       4.180  -5.932  -8.021  0.00  0.00    +0.160 HD
ENDBRANCH  24  25
ENDBRANCH   1  24
TORSDOF 10
