REMARK  Name = ZINC09665754
REMARK  5 active torsions:
REMARK  status: ('A' for Active; 'I' for Inactive)
REMARK    1  A    between atoms: C_4  and  S_11
REMARK    2  A    between atoms: C_6  and  C_7
REMARK    3  A    between atoms: S_11  and  N_14
REMARK    4  A    between atoms: C_19  and  N_20
REMARK    5  A    between atoms: C_19  and  N_55
REMARK                            x       y       z     vdW  Elec       q    Type
REMARK                         _______ _______ _______ _____ _____    ______ ____
ROOT
ATOM      1  N   UNL     1      -0.872   3.042   1.182  0.00  0.00    -0.180 NA
ATOM      2  C   UNL     1      -0.731   1.581   1.268  0.00  0.00    +0.091 C 
ATOM      3  C   UNL     1      -0.013   1.086   0.008  0.00  0.00    -0.059 C 
ATOM      4  C   UNL     1      -0.705   3.040  -1.250  0.00  0.00    -0.059 C 
ATOM      5  C   UNL     1      -1.452   3.615  -0.042  0.00  0.00    +0.091 C 
ATOM      6  N   UNL     1      -0.753   1.564  -1.180  0.00  0.00    +0.392 N 
ATOM      7  H   UNL     1      -1.733   1.266  -1.103  0.00  0.00    -0.079 HD
ENDROOT
BRANCH   1   8
ATOM      8  S   UNL     1      -0.390   4.017   2.431  0.00  0.00    +0.062 S 
ATOM      9  O   UNL     1       0.587   3.288   3.162  0.00  0.00    -0.153 OA
ATOM     10  O   UNL     1      -0.125   5.295   1.870  0.00  0.00    -0.153 OA
BRANCH   8  14
ATOM     11  C   UNL     1      -3.950   4.524   5.182  0.00  0.00    +0.014 A 
ATOM     12  C   UNL     1      -3.995   5.028   3.895  0.00  0.00    +0.022 A 
ATOM     13  C   UNL     1      -2.907   4.873   3.054  0.00  0.00    +0.067 A 
ATOM     14  C   UNL     1      -1.776   4.215   3.502  0.00  0.00    +0.124 A 
ATOM     15  C   UNL     1      -1.734   3.707   4.786  0.00  0.00    +0.042 A 
ATOM     16  C   UNL     1      -2.820   3.866   5.628  0.00  0.00    +0.057 A 
ATOM     17 CL   UNL     1      -2.962   5.506   1.438  0.00  0.00    -0.082 Cl
BRANCH  16  18
ATOM     18  C   UNL     1      -2.772   3.317   7.030  0.00  0.00    +0.417 C 
ATOM     19  F   UNL     1      -3.979   3.595   7.681  0.00  0.00    -0.166 F 
ATOM     20  F   UNL     1      -2.576   1.933   6.983  0.00  0.00    -0.166 F 
ATOM     21  F   UNL     1      -1.718   3.914   7.729  0.00  0.00    -0.166 F 
ENDBRANCH  16  18
ENDBRANCH   8  14
ENDBRANCH   1   8
BRANCH   6  22
ATOM     22  C   UNL     1      -0.170   0.981  -2.406  0.00  0.00    +0.041 C 
BRANCH  22  23
ATOM     23  N   UNL     1      -0.439   1.866  -3.542  0.00  0.00    -0.259 N 
ATOM     24  C   UNL     1       0.403   2.838  -3.921  0.00  0.00    +0.221 C 
ATOM     25  O   UNL     1       1.460   3.098  -3.389  0.00  0.00    -0.275 OA
ATOM     26  C   UNL     1      -0.178   3.558  -5.121  0.00  0.00    +0.112 C 
ATOM     27  C   UNL     1      -1.504   2.825  -5.362  0.00  0.00    +0.056 C 
ATOM     28  C   UNL     1      -1.547   1.768  -4.293  0.00  0.00    +0.227 C 
ATOM     29  O   UNL     1      -2.438   0.962  -4.134  0.00  0.00    -0.275 OA
ATOM     30  C   UNL     1      -1.537   2.198  -6.761  0.00  0.00    +0.016 C 
ATOM     31  C   UNL     1      -3.018   2.337  -7.199  0.00  0.00    +0.001 C 
ATOM     32  C   UNL     1      -3.421   3.716  -6.619  0.00  0.00    +0.001 C 
ATOM     33  C   UNL     1      -2.692   3.784  -5.259  0.00  0.00    +0.016 C 
ENDBRANCH  22  23
ENDBRANCH   6  22
TORSDOF 5
