REMARK  Name = ZINC02636115
REMARK  3 active torsions:
REMARK  status: ('A' for Active; 'I' for Inactive)
REMARK    1  A    between atoms: C_6  and  S_11
REMARK    2  A    between atoms: S_11  and  N_14
REMARK    3  A    between atoms: C_17  and  C_20
REMARK                            x       y       z     vdW  Elec       q    Type
REMARK                         _______ _______ _______ _____ _____    ______ ____
ROOT
ATOM      1  N   UNL     1       5.143  -0.092   0.147  0.00  0.00    -0.194 N 
ATOM      2  C   UNL     1       4.884   1.266   0.062  0.00  0.00    +0.178 A 
ATOM      3  N   UNL     1       3.724   1.897   0.076  0.00  0.00    -0.224 NA
ATOM      4  C   UNL     1       3.660   3.224  -0.016  0.00  0.00    +0.081 A 
ATOM      5  C   UNL     1       4.818   3.942  -0.132  0.00  0.00    +0.077 A 
ATOM      6  S   UNL     1       6.030   2.628  -0.094  0.00  0.00    -0.059 S 
ATOM      7  H   UNL     1       4.410  -0.721   0.229  0.00  0.00    +0.176 HD
ENDROOT
BRANCH   4   8
ATOM      8  C   UNL     1       2.350   3.913   0.000  0.00  0.00    +0.009 A 
ATOM      9  C   UNL     1       2.143   5.002   0.830  0.00  0.00    +0.010 A 
ATOM     10  C   UNL     1       0.916   5.654   0.850  0.00  0.00    +0.001 A 
ATOM     11  C   UNL     1      -0.114   5.244   0.059  0.00  0.00    +0.008 A 
ATOM     12  C   UNL     1       0.052   4.143  -0.799  0.00  0.00    -0.017 A 
ATOM     13  C   UNL     1       1.296   3.467  -0.833  0.00  0.00    -0.009 A 
ATOM     14  C   UNL     1       1.461   2.369  -1.690  0.00  0.00    +0.009 A 
ATOM     15  C   UNL     1       0.425   1.967  -2.478  0.00  0.00    +0.001 A 
ATOM     16  C   UNL     1      -0.797   2.635  -2.450  0.00  0.00    +0.001 A 
ATOM     17  C   UNL     1      -0.994   3.700  -1.626  0.00  0.00    +0.008 A 
ENDBRANCH   4   8
BRANCH   1  18
ATOM     18  S   UNL     1       6.705  -0.640   0.107  0.00  0.00    +0.074 S 
ATOM     19  O   UNL     1       6.643  -2.053   0.238  0.00  0.00    -0.150 OA
ATOM     20  O   UNL     1       7.331  -0.005  -1.000  0.00  0.00    -0.150 OA
BRANCH  18  26
ATOM     21  C   UNL     1       9.400   0.692   6.105  0.00  0.00    +0.001 A 
ATOM     22  C   UNL     1       8.753  -0.542   6.144  0.00  0.00    +0.001 A 
ATOM     23  C   UNL     1       8.123  -1.038   5.045  0.00  0.00    +0.008 A 
ATOM     24  C   UNL     1       8.124  -0.298   3.850  0.00  0.00    -0.016 A 
ATOM     25  C   UNL     1       7.485  -0.778   2.694  0.00  0.00    +0.037 A 
ATOM     26  C   UNL     1       7.507  -0.034   1.554  0.00  0.00    +0.109 A 
ATOM     27  C   UNL     1       8.159   1.197   1.514  0.00  0.00    +0.029 A 
ATOM     28  C   UNL     1       8.784   1.696   2.615  0.00  0.00    +0.010 A 
ATOM     29  C   UNL     1       8.782   0.956   3.810  0.00  0.00    -0.018 A 
ATOM     30  C   UNL     1       9.422   1.436   4.966  0.00  0.00    +0.008 A 
ENDBRANCH  18  26
ENDBRANCH   1  18
TORSDOF 3
