REMARK  Name = ZINC40530069
REMARK  16 active torsions:
REMARK  status: ('A' for Active; 'I' for Inactive)
REMARK    1  A    between atoms: C_1  and  C_2
REMARK    2  A    between atoms: C_2  and  C_3
REMARK    3  A    between atoms: C_3  and  C_4
REMARK    4  A    between atoms: C_4  and  C_5
REMARK    5  A    between atoms: C_5  and  O_6
REMARK    6  A    between atoms: O_6  and  C_7
REMARK    7  A    between atoms: C_11  and  C_13
REMARK    8  A    between atoms: C_18  and  O_27
REMARK    9  A    between atoms: C_22  and  N_26
REMARK   10  A    between atoms: C_23  and  C_24
REMARK   11  A    between atoms: O_27  and  C_28
REMARK   12  A    between atoms: C_28  and  C_30
REMARK   13  A    between atoms: C_30  and  O_31
REMARK   14  A    between atoms: O_31  and  C_32
REMARK   15  A    between atoms: C_35  and  C_39
REMARK   16  A    between atoms: C_36  and  C_38
REMARK                            x       y       z     vdW  Elec       q    Type
REMARK                         _______ _______ _______ _____ _____    ______ ____
ROOT
ATOM      1  C   UNL     1       2.961  -8.136   4.691  0.00  0.00    +0.098 C 
ATOM      2  C   UNL     1       2.260  -8.610   5.936  0.00  0.00    +0.008 A 
ATOM      3  C   UNL     1       0.880  -8.533   6.011  0.00  0.00    +0.012 A 
ATOM      4  C   UNL     1       0.220  -8.962   7.146  0.00  0.00    +0.047 A 
ATOM      5  C   UNL     1       0.941  -9.474   8.216  0.00  0.00    +0.135 A 
ATOM      6  C   UNL     1       2.322  -9.553   8.143  0.00  0.00    +0.093 A 
ATOM      7  C   UNL     1       2.984  -9.120   7.002  0.00  0.00    +0.138 A 
ATOM      8  O   UNL     1       4.336  -9.204   6.947  0.00  0.00    -0.441 OA
ATOM      9  C   UNL     1       4.962  -9.167   5.758  0.00  0.00    +0.199 C 
ATOM     10  C   UNL     1       4.364  -8.672   4.653  0.00  0.00    +0.098 C 
ENDROOT
BRANCH   1  15
ATOM     11  C   UNL     1       2.436  -4.542   3.650  0.00  0.00    +0.121 A 
ATOM     12  C   UNL     1       3.080  -3.863   4.674  0.00  0.00    +0.045 A 
ATOM     13  C   UNL     1       3.682  -4.569   5.698  0.00  0.00    +0.004 A 
ATOM     14  C   UNL     1       3.643  -5.951   5.702  0.00  0.00    +0.005 A 
ATOM     15  C   UNL     1       3.002  -6.630   4.683  0.00  0.00    -0.031 A 
ATOM     16  C   UNL     1       2.393  -5.928   3.660  0.00  0.00    +0.050 A 
BRANCH  11  17
ATOM     17  O   UNL     1       1.843  -3.849   2.643  0.00  0.00    -0.492 OA
BRANCH  17  18
ATOM     18  C   UNL     1       1.926  -2.424   2.698  0.00  0.00    +0.229 C 
BRANCH  18  19
ATOM     19  C   UNL     1       1.206  -1.824   1.489  0.00  0.00    +0.041 C 
BRANCH  19  20
ATOM     20  C   UNL     1       1.296  -0.297   1.548  0.00  0.00    +0.003 C 
BRANCH  20  22
ATOM     21  C   UNL     1       0.665   1.829   0.397  0.00  0.00    +0.004 C 
ATOM     22  C   UNL     1       0.576   0.303   0.338  0.00  0.00    -0.003 C 
ENDBRANCH  20  22
ENDBRANCH  19  20
ENDBRANCH  18  19
ENDBRANCH  17  18
ENDBRANCH  11  17
ENDBRANCH   1  15
BRANCH   9  23
ATOM     23  N   UNL     1       6.246  -9.645   5.666  0.00  0.00    -0.328 N 
ATOM     24  H   UNL     1       6.688 -10.002   6.452  0.00  0.00    +0.145 HD
ATOM     25  H   UNL     1       6.711  -9.625   4.815  0.00  0.00    +0.145 HD
ENDBRANCH   9  23
BRANCH  10  26
ATOM     26  C   UNL     1       5.087  -8.661   3.416  0.00  0.00    +0.101 C 
ATOM     27  N   UNL     1       5.660  -8.652   2.435  0.00  0.00    -0.191 NA
ENDBRANCH  10  26
BRANCH   5  28
ATOM     28  O   UNL     1       0.292  -9.897   9.333  0.00  0.00    -0.423 OA
BRANCH  28  29
ATOM     29  C   UNL     1       0.441  -9.179  10.458  0.00  0.00    +0.350 C 
ATOM     30  O   UNL     1       1.048  -8.135  10.432  0.00  0.00    -0.247 OA
BRANCH  29  31
ATOM     31  C   UNL     1      -0.150  -9.676  11.752  0.00  0.00    +0.349 C 
BRANCH  31  32
ATOM     32  O   UNL     1       0.141  -8.744  12.796  0.00  0.00    -0.481 OA
BRANCH  32  33
ATOM     33  C   UNL     1      -0.325  -9.045  14.037  0.00  0.00    +0.122 A 
ATOM     34  C   UNL     1      -1.041 -10.214  14.247  0.00  0.00    +0.046 A 
ATOM     35  C   UNL     1      -1.512 -10.517  15.510  0.00  0.00    +0.007 A 
ATOM     36  C   UNL     1      -1.271  -9.656  16.564  0.00  0.00    -0.047 A 
ATOM     37  C   UNL     1      -0.558  -8.490  16.358  0.00  0.00    -0.044 A 
ATOM     38  C   UNL     1      -0.079  -8.185  15.098  0.00  0.00    +0.049 A 
ATOM     39  C   UNL     1      -0.297  -7.553  17.509  0.00  0.00    +0.044 C 
ATOM     40  C   UNL     1      -1.786  -9.989  17.941  0.00  0.00    +0.044 C 
ENDBRANCH  32  33
ENDBRANCH  31  32
ENDBRANCH  29  31
ENDBRANCH  28  29
ENDBRANCH   5  28
TORSDOF 13
