REMARK  Name = ZINC28910200
REMARK  12 active torsions:
REMARK  status: ('A' for Active; 'I' for Inactive)
REMARK    1  A    between atoms: C_1  and  C_2
REMARK    2  A    between atoms: C_2  and  C_4
REMARK    3  A    between atoms: C_2  and  N_16
REMARK    4  A    between atoms: N_6  and  C_7
REMARK    5  A    between atoms: C_12  and  C_13
REMARK    6  A    between atoms: C_13  and  C_14
REMARK    7  A    between atoms: C_13  and  C_15
REMARK    8  A    between atoms: N_16  and  C_17
REMARK    9  A    between atoms: C_20  and  N_23
REMARK   10  A    between atoms: C_24  and  C_26
REMARK   11  A    between atoms: C_26  and  C_27
REMARK   12  A    between atoms: C_26  and  C_28
REMARK                            x       y       z     vdW  Elec       q    Type
REMARK                         _______ _______ _______ _____ _____    ______ ____
ROOT
ATOM      1  C   UNL     1      -1.201   1.332  -0.078  0.00  0.00    +0.038 C 
ATOM      2  C   UNL     1      -0.989  -0.183  -0.039  0.00  0.00    +0.154 C 
ENDROOT
BRANCH   2   3
ATOM      3  C   UNL     1      -2.299  -0.865   0.261  0.00  0.00    +0.237 C 
ATOM      4  O   UNL     1      -2.408  -1.560   1.250  0.00  0.00    -0.273 OA
ATOM      5  N   UNL     1      -3.349  -0.705  -0.568  0.00  0.00    -0.284 N 
ATOM      6  H   UNL     1      -3.288  -0.086  -1.313  0.00  0.00    +0.155 HD
BRANCH   5   7
ATOM      7  C   UNL     1      -4.526  -1.430  -0.356  0.00  0.00    +0.037 A 
ATOM      8  C   UNL     1      -4.484  -2.639   0.326  0.00  0.00    +0.023 A 
ATOM      9  C   UNL     1      -5.648  -3.353   0.534  0.00  0.00    +0.002 A 
ATOM     10  C   UNL     1      -6.854  -2.866   0.064  0.00  0.00    +0.000 A 
ATOM     11  C   UNL     1      -6.898  -1.663  -0.616  0.00  0.00    +0.006 A 
ATOM     12  C   UNL     1      -5.739  -0.940  -0.822  0.00  0.00    -0.024 A 
BRANCH  12  13
ATOM     13  C   UNL     1      -5.789   0.374  -1.556  0.00  0.00    +0.015 C 
ATOM     14  C   UNL     1      -6.459   0.173  -2.917  0.00  0.00    +0.012 C 
ATOM     15  C   UNL     1      -6.593   1.386  -0.737  0.00  0.00    +0.012 C 
ENDBRANCH  12  13
ENDBRANCH   5   7
ENDBRANCH   2   3
BRANCH   2  16
ATOM     16  N   UNL     1      -0.015  -0.513   1.004  0.00  0.00    -0.333 N 
ATOM     17  H   UNL     1      -0.320  -0.766   1.889  0.00  0.00    +0.147 HD
BRANCH  16  18
ATOM     18  C   UNL     1       1.354  -0.464   0.723  0.00  0.00    +0.028 A 
ATOM     19  C   UNL     1       1.791  -0.096  -0.543  0.00  0.00    +0.025 A 
ATOM     20  C   UNL     1       3.143  -0.048  -0.820  0.00  0.00    +0.025 A 
ATOM     21  C   UNL     1       4.066  -0.367   0.168  0.00  0.00    +0.034 A 
ATOM     22  C   UNL     1       3.629  -0.735   1.433  0.00  0.00    +0.025 A 
ATOM     23  C   UNL     1       2.278  -0.777   1.712  0.00  0.00    +0.025 A 
BRANCH  21  24
ATOM     24  N   UNL     1       5.438  -0.318  -0.114  0.00  0.00    -0.285 N 
ATOM     25  C   UNL     1       5.897   0.492  -1.087  0.00  0.00    +0.220 C 
ATOM     26  O   UNL     1       5.140   1.255  -1.650  0.00  0.00    -0.275 OA
ATOM     27  H   UNL     1       6.056  -0.867   0.393  0.00  0.00    +0.155 HD
BRANCH  25  28
ATOM     28  C   UNL     1       7.353   0.452  -1.477  0.00  0.00    +0.069 C 
ATOM     29  C   UNL     1       7.710  -0.954  -1.966  0.00  0.00    +0.017 C 
ATOM     30  C   UNL     1       7.609   1.462  -2.597  0.00  0.00    +0.017 C 
ENDBRANCH  25  28
ENDBRANCH  21  24
ENDBRANCH  16  18
ENDBRANCH   2  16
TORSDOF 7
