REMARK  Name = ZINC67090421
REMARK  3 active torsions:
REMARK  status: ('A' for Active; 'I' for Inactive)
REMARK    1  A    between atoms: N_15  and  C_16
REMARK    2  A    between atoms: C_16  and  C_17
REMARK    3  A    between atoms: C_17  and  C_20
REMARK                            x       y       z     vdW  Elec       q    Type
REMARK                         _______ _______ _______ _____ _____    ______ ____
ROOT
ATOM      1  C   UNL     1       2.311   1.459   0.039  0.00  0.00    +0.005 A 
ATOM      2  C   UNL     1       1.065   2.074   0.058  0.00  0.00    +0.018 A 
ATOM      3  C   UNL     1      -0.074   1.294   0.058  0.00  0.00    +0.084 A 
ATOM      4  N   UNL     1       0.008  -0.024   0.041  0.00  0.00    -0.350 N 
ATOM      5  C   UNL     1       1.176  -0.646   0.023  0.00  0.00    +0.099 A 
ATOM      6  C   UNL     1       2.365   0.077   0.021  0.00  0.00    +0.042 A 
ATOM      7  N   UNL     1       1.216  -2.036   0.005  0.00  0.00    -0.314 N 
ATOM      8  C   UNL     1       2.495  -2.746  -0.136  0.00  0.00    +0.125 C 
ATOM      9  C   UNL     1       2.648  -3.719   1.040  0.00  0.00    +0.128 C 
ATOM     10  N   UNL     1       1.411  -4.504   1.163  0.00  0.00    -0.283 N 
ATOM     11  C   UNL     1       0.133  -3.794   1.304  0.00  0.00    +0.128 C 
ATOM     12  C   UNL     1      -0.020  -2.821   0.134  0.00  0.00    +0.125 C 
ATOM     13  C   UNL     1       1.450  -5.851   1.145  0.00  0.00    +0.302 C 
ATOM     14  O   UNL     1       2.520  -6.429   1.128  0.00  0.00    -0.253 OA
ATOM     15  N   UNL     1       0.302  -6.559   1.148  0.00  0.00    -0.298 N 
ATOM     16  H   UNL     1      -0.550  -6.100   1.084  0.00  0.00    +0.150 HD
ATOM     17  H   UNL     1      -0.808  -0.548   0.041  0.00  0.00    +0.166 HD
ENDROOT
BRANCH  15  18
ATOM     18  C   UNL     1       0.343  -8.020   1.247  0.00  0.00    +0.117 C 
BRANCH  18  19
ATOM     19  C   UNL     1      -1.084  -8.563   1.354  0.00  0.00    +0.011 C 
ATOM     20  C   UNL     1      -1.452  -9.758   0.472  0.00  0.00    +0.014 C 
ATOM     21  C   UNL     1      -2.005  -8.369   0.148  0.00  0.00    +0.014 C 
BRANCH  19  22
ATOM     22  C   UNL     1      -1.706  -8.490   2.724  0.00  0.00    -0.040 A 
ATOM     23  C   UNL     1      -3.076  -8.357   2.855  0.00  0.00    +0.005 A 
ATOM     24  C   UNL     1      -3.647  -8.291   4.111  0.00  0.00    +0.020 A 
ATOM     25  C   UNL     1      -2.849  -8.357   5.239  0.00  0.00    +0.041 A 
ATOM     26  C   UNL     1      -1.478  -8.491   5.107  0.00  0.00    +0.020 A 
ATOM     27  C   UNL     1      -0.908  -8.563   3.850  0.00  0.00    +0.005 A 
ATOM     28 CL   UNL     1      -3.566  -8.273   6.817  0.00  0.00    -0.084 Cl
ENDBRANCH  19  22
ENDBRANCH  18  19
ENDBRANCH  15  18
TORSDOF 3
