REMARK  Name = ZINC09195978
REMARK  10 active torsions:
REMARK  status: ('A' for Active; 'I' for Inactive)
REMARK    1  A    between atoms: C_1  and  C_2
REMARK    2  A    between atoms: C_6  and  O_9
REMARK    3  A    between atoms: C_7  and  C_8
REMARK    4  A    between atoms: O_9  and  C_10
REMARK    5  A    between atoms: C_10  and  C_11
REMARK    6  A    between atoms: N_13  and  N_14
REMARK    7  A    between atoms: C_15  and  C_16
REMARK    8  A    between atoms: C_17  and  C_24
REMARK    9  A    between atoms: C_19  and  O_23
REMARK   10  A    between atoms: C_21  and  O_22
REMARK                            x       y       z     vdW  Elec       q    Type
REMARK                         _______ _______ _______ _____ _____    ______ ____
ROOT
ATOM      1  C   UNL     1       2.211   2.774   5.717  0.00  0.00    +0.270 C 
ATOM      2  O   UNL     1       3.424   2.759   5.673  0.00  0.00    -0.270 OA
ATOM      3  N   UNL     1       1.493   2.352   4.657  0.00  0.00    -0.204 N 
ATOM      4  H   UNL     1       0.524   2.365   4.692  0.00  0.00    +0.177 HD
ENDROOT
BRANCH   3   5
ATOM      5  N   UNL     1       2.147   1.897   3.504  0.00  0.00    -0.188 NA
ATOM      6  C   UNL     1       1.459   1.590   2.447  0.00  0.00    +0.142 C 
BRANCH   6   7
ATOM      7  C   UNL     1       0.011   1.858   2.406  0.00  0.00    +0.039 A 
ATOM      8  C   UNL     1      -0.887   0.821   2.142  0.00  0.00    -0.035 A 
ATOM      9  C   UNL     1      -2.240   1.077   2.099  0.00  0.00    +0.049 A 
ATOM     10  C   UNL     1      -2.717   2.363   2.329  0.00  0.00    +0.121 A 
ATOM     11  C   UNL     1      -1.833   3.399   2.592  0.00  0.00    +0.091 A 
ATOM     12  C   UNL     1      -0.471   3.155   2.632  0.00  0.00    +0.129 A 
ATOM     13  C   UNL     1      -0.377  -0.575   1.898  0.00  0.00    +0.044 C 
BRANCH  12  14
ATOM     14  O   UNL     1       0.395   4.169   2.889  0.00  0.00    -0.506 OA
ATOM     15  H   UNL     1       0.760   4.585   2.096  0.00  0.00    +0.292 HD
ENDBRANCH  12  14
BRANCH  10  16
ATOM     16  O   UNL     1      -4.052   2.607   2.290  0.00  0.00    -0.507 OA
ATOM     17  H   UNL     1      -4.383   2.849   1.414  0.00  0.00    +0.292 HD
ENDBRANCH  10  16
ENDBRANCH   6   7
ENDBRANCH   3   5
BRANCH   1  18
ATOM     18  C   UNL     1       1.508   3.264   6.957  0.00  0.00    +0.326 C 
BRANCH  18  19
ATOM     19  O   UNL     1       2.478   3.652   7.932  0.00  0.00    -0.482 OA
BRANCH  19  25
ATOM     20  C   UNL     1       3.374   5.420  12.392  0.00  0.00    +0.044 C 
ATOM     21  C   UNL     1       2.412   4.991  11.314  0.00  0.00    -0.044 A 
ATOM     22  C   UNL     1       1.049   5.075  11.530  0.00  0.00    +0.004 A 
ATOM     23  C   UNL     1       0.164   4.682  10.543  0.00  0.00    +0.004 A 
ATOM     24  C   UNL     1       0.640   4.205   9.337  0.00  0.00    +0.046 A 
ATOM     25  C   UNL     1       2.007   4.121   9.117  0.00  0.00    +0.124 A 
ATOM     26  C   UNL     1       2.893   4.510  10.112  0.00  0.00    -0.006 A 
ATOM     27  C   UNL     1       4.379   4.413   9.878  0.00  0.00    +0.048 C 
ENDBRANCH  19  25
ENDBRANCH  18  19
ENDBRANCH   1  18
TORSDOF 7
