REMARK  Name = ZINC39895355
REMARK  8 active torsions:
REMARK  status: ('A' for Active; 'I' for Inactive)
REMARK    1  A    between atoms: C_1  and  C_2
REMARK    2  A    between atoms: C_7  and  C_10
REMARK    3  A    between atoms: C_11  and  C_13
REMARK    4  A    between atoms: C_16  and  C_23
REMARK    5  A    between atoms: C_17  and  C_21
REMARK    6  A    between atoms: C_18  and  N_20
REMARK    7  A    between atoms: C_30  and  N_31
REMARK    8  A    between atoms: N_31  and  C_32
REMARK                            x       y       z     vdW  Elec       q    Type
REMARK                         _______ _______ _______ _____ _____    ______ ____
ROOT
ATOM      1  C   UNL     1      -2.121  -4.311  -0.584  0.00  0.00    +0.091 A 
ATOM      2  C   UNL     1      -3.205  -5.025   0.089  0.00  0.00    +0.095 A 
ATOM      3  C   UNL     1      -3.117  -6.429   0.030  0.00  0.00    +0.049 A 
ATOM      4  C   UNL     1      -4.067  -7.248   0.619  0.00  0.00    +0.019 A 
ATOM      5  C   UNL     1      -5.147  -6.630   1.292  0.00  0.00    +0.100 A 
ATOM      6  C   UNL     1      -5.187  -5.224   1.321  0.00  0.00    +0.135 A 
ATOM      7  N   UNL     1      -4.259  -4.494   0.747  0.00  0.00    -0.230 NA
ATOM      8  S   UNL     1      -1.635  -6.742  -0.893  0.00  0.00    -0.071 S 
ATOM      9  C   UNL     1      -1.132  -5.062  -1.207  0.00  0.00    +0.085 A 
ENDROOT
BRANCH   1  18
ATOM     10  C   UNL     1       0.134   1.239   0.758  0.00  0.00    +0.039 C 
ATOM     11  C   UNL     1       0.070  -0.277   0.560  0.00  0.00    +0.133 C 
ATOM     12  C   UNL     1      -1.390  -0.708   0.374  0.00  0.00    +0.139 C 
ATOM     13  N   UNL     1      -1.443  -2.179   0.374  0.00  0.00    -0.292 N 
ATOM     14  C   UNL     1      -0.777  -2.895   1.474  0.00  0.00    +0.139 C 
ATOM     15  C   UNL     1       0.652  -2.357   1.606  0.00  0.00    +0.133 C 
ATOM     16  O   UNL     1       0.613  -0.932   1.709  0.00  0.00    -0.371 OA
ATOM     17  C   UNL     1       1.305  -2.943   2.859  0.00  0.00    +0.039 C 
ATOM     18  C   UNL     1      -2.082  -2.849  -0.605  0.00  0.00    +0.251 C 
ATOM     19  O   UNL     1      -2.626  -2.239  -1.506  0.00  0.00    -0.270 OA
ENDBRANCH   1  18
BRANCH   4  20
ATOM     20  C   UNL     1      -3.956  -8.723   0.545  0.00  0.00    -0.015 A 
ATOM     21  C   UNL     1      -4.044  -9.371  -0.687  0.00  0.00    +0.008 A 
ATOM     22  C   UNL     1      -3.940 -10.745  -0.749  0.00  0.00    +0.001 A 
ATOM     23  C   UNL     1      -3.748 -11.480   0.407  0.00  0.00    +0.000 A 
ATOM     24  C   UNL     1      -3.660 -10.844   1.632  0.00  0.00    +0.001 A 
ATOM     25  C   UNL     1      -3.757  -9.469   1.707  0.00  0.00    +0.008 A 
ENDBRANCH   4  20
BRANCH   6  26
ATOM     26  N   UNL     1      -6.234  -4.593   1.974  0.00  0.00    -0.342 N 
ATOM     27  H   UNL     1      -6.926  -5.119   2.403  0.00  0.00    +0.144 HD
ATOM     28  H   UNL     1      -6.274  -3.624   2.002  0.00  0.00    +0.144 HD
ENDBRANCH   6  26
BRANCH   5  29
ATOM     29  C   UNL     1      -6.167  -7.412   1.924  0.00  0.00    +0.103 C 
ATOM     30  N   UNL     1      -6.976  -8.031   2.426  0.00  0.00    -0.191 NA
ENDBRANCH   5  29
BRANCH   9  31
ATOM     31  N   UNL     1      -0.030  -4.616  -1.899  0.00  0.00    -0.308 N 
ATOM     32  H   UNL     1       0.082  -3.669  -2.074  0.00  0.00    +0.153 HD
BRANCH  31  33
ATOM     33  C   UNL     1       0.928  -5.528  -2.351  0.00  0.00    +0.032 A 
ATOM     34  C   UNL     1       1.600  -5.298  -3.544  0.00  0.00    +0.023 A 
ATOM     35  C   UNL     1       2.546  -6.201  -3.987  0.00  0.00    +0.002 A 
ATOM     36  C   UNL     1       2.825  -7.334  -3.244  0.00  0.00    +0.000 A 
ATOM     37  C   UNL     1       2.156  -7.566  -2.056  0.00  0.00    +0.002 A 
ATOM     38  C   UNL     1       1.213  -6.665  -1.604  0.00  0.00    +0.023 A 
ENDBRANCH  31  33
ENDBRANCH   9  31
TORSDOF 6
