REMARK  Name = ZINC28161478
REMARK  9 active torsions:
REMARK  status: ('A' for Active; 'I' for Inactive)
REMARK    1  A    between atoms: C_1  and  C_2
REMARK    2  A    between atoms: C_2  and  C_3
REMARK    3  A    between atoms: C_6  and  C_9
REMARK    4  A    between atoms: C_12  and  C_34
REMARK    5  A    between atoms: C_19  and  C_22
REMARK    6  A    between atoms: C_22  and  C_23
REMARK    7  A    between atoms: N_25  and  C_26
REMARK    8  A    between atoms: C_30  and  C_33
REMARK    9  A    between atoms: C_31  and  C_32
REMARK                            x       y       z     vdW  Elec       q    Type
REMARK                         _______ _______ _______ _____ _____    ______ ____
ROOT
ATOM      1  C   UNL     1      -2.913  -9.922  -5.266  0.00  0.00    +0.136 C 
ATOM      2  C   UNL     1      -4.215 -10.630  -4.845  0.00  0.00    +0.087 C 
ATOM      3  C   UNL     1      -4.543 -10.024  -3.500  0.00  0.00    +0.075 C 
ATOM      4  N   UNL     1      -3.639  -9.156  -3.187  0.00  0.00    -0.181 NA
ATOM      5  N   UNL     1      -2.635  -9.013  -4.142  0.00  0.00    -0.195 N 
ATOM      6  C   UNL     1      -1.570  -8.166  -4.052  0.00  0.00    +0.170 C 
ATOM      7  N   UNL     1      -0.587  -7.988  -4.926  0.00  0.00    -0.157 NA
ATOM      8  C   UNL     1       0.401  -7.152  -4.763  0.00  0.00    +0.252 C 
ATOM      9  O   UNL     1       1.282  -7.018  -5.590  0.00  0.00    -0.272 OA
ATOM     10  C   UNL     1       0.372  -6.353  -3.466  0.00  0.00    +0.150 C 
ATOM     11  S   UNL     1      -1.169  -7.032  -2.729  0.00  0.00    -0.078 S 
ENDROOT
BRANCH   1  15
ATOM     12  C   UNL     1      -3.494  -7.713  -8.875  0.00  0.00    -0.048 A 
ATOM     13  C   UNL     1      -2.810  -8.914  -8.902  0.00  0.00    +0.004 A 
ATOM     14  C   UNL     1      -2.622  -9.629  -7.734  0.00  0.00    +0.006 A 
ATOM     15  C   UNL     1      -3.118  -9.142  -6.539  0.00  0.00    -0.025 A 
ATOM     16  C   UNL     1      -3.806  -7.944  -6.513  0.00  0.00    +0.006 A 
ATOM     17  C   UNL     1      -3.990  -7.226  -7.680  0.00  0.00    +0.004 A 
BRANCH  12  19
ATOM     18  C   UNL     1      -5.007  -7.369 -10.810  0.00  0.00    +0.009 C 
ATOM     19  C   UNL     1      -3.698  -6.933 -10.148  0.00  0.00    +0.032 C 
ENDBRANCH  12  19
ENDBRANCH   1  15
BRANCH   3  20
ATOM     20  C   UNL     1      -5.708 -10.367  -2.677  0.00  0.00    +0.035 A 
ATOM     21  C   UNL     1      -6.083  -9.866  -1.443  0.00  0.00    +0.017 A 
ATOM     22  C   UNL     1      -7.232 -10.350  -0.863  0.00  0.00    +0.008 A 
ATOM     23  C   UNL     1      -7.957 -11.297  -1.513  0.00  0.00    +0.046 A 
ATOM     24  S   UNL     1      -7.016 -11.536  -3.010  0.00  0.00    -0.095 S 
ENDBRANCH   3  20
BRANCH  10  25
ATOM     25  C   UNL     1       0.247  -4.852  -3.736  0.00  0.00    +0.120 C 
BRANCH  25  26
ATOM     26  C   UNL     1       0.136  -4.114  -2.428  0.00  0.00    +0.219 C 
ATOM     27  O   UNL     1       0.155  -4.727  -1.381  0.00  0.00    -0.275 OA
ATOM     28  N   UNL     1       0.016  -2.771  -2.419  0.00  0.00    -0.285 N 
ATOM     29  H   UNL     1      -0.092  -2.223  -3.367  0.00  0.00    +0.155 HD
BRANCH  28  30
ATOM     30  C   UNL     1       0.029  -2.075  -1.206  0.00  0.00    +0.037 A 
ATOM     31  C   UNL     1       0.656  -2.625  -0.095  0.00  0.00    +0.023 A 
ATOM     32  C   UNL     1       0.667  -1.935   1.102  0.00  0.00    +0.002 A 
ATOM     33  C   UNL     1       0.056  -0.698   1.194  0.00  0.00    +0.004 A 
ATOM     34  C   UNL     1      -0.569  -0.148   0.090  0.00  0.00    -0.046 A 
ATOM     35  C   UNL     1      -0.588  -0.835  -1.108  0.00  0.00    -0.026 A 
ATOM     36  C   UNL     1      -1.275  -0.238  -2.310  0.00  0.00    +0.046 C 
ATOM     37  C   UNL     1      -1.234   1.200   0.195  0.00  0.00    +0.044 C 
ENDBRANCH  28  30
ENDBRANCH  25  26
ENDBRANCH  10  25
TORSDOF 6
