REMARK  Name = ZINC10690174
REMARK  6 active torsions:
REMARK  status: ('A' for Active; 'I' for Inactive)
REMARK    1  A    between atoms: C_4  and  S_7
REMARK    2  A    between atoms: S_7  and  C_8
REMARK    3  A    between atoms: C_8  and  C_9
REMARK    4  A    between atoms: C_15  and  C_17
REMARK    5  A    between atoms: N_22  and  S_23
REMARK    6  A    between atoms: S_23  and  C_26
REMARK                            x       y       z     vdW  Elec       q    Type
REMARK                         _______ _______ _______ _____ _____    ______ ____
ROOT
ATOM      1  C   UNL     1       2.044  -3.681  -5.472  0.00  0.00    +0.229 A 
ATOM      2  N   UNL     1       0.776  -3.475  -5.267  0.00  0.00    -0.110 NA
ATOM      3  N   UNL     1       0.621  -2.773  -4.200  0.00  0.00    -0.092 NA
ATOM      4  C   UNL     1       1.795  -2.503  -3.685  0.00  0.00    +0.314 A 
ATOM      5  O   UNL     1       2.720  -3.067  -4.482  0.00  0.00    -0.408 OA
ATOM      6  N   UNL     1       2.038  -1.768  -2.534  0.00  0.00    -0.237 N 
ATOM      7  C   UNL     1       1.009  -1.254  -1.832  0.00  0.00    +0.239 C 
ATOM      8  O   UNL     1      -0.130  -1.434  -2.207  0.00  0.00    -0.274 OA
ATOM      9  H   UNL     1       2.950  -1.624  -2.234  0.00  0.00    +0.159 HD
ENDROOT
BRANCH   7  10
ATOM     10  C   UNL     1       1.274  -0.455  -0.582  0.00  0.00    +0.166 C 
ATOM     11  C   UNL     1       2.092   0.807  -0.929  0.00  0.00    +0.031 C 
ATOM     12  C   UNL     1       1.474   1.887  -0.002  0.00  0.00    +0.019 C 
ATOM     13  C   UNL     1      -0.018   1.470   0.010  0.00  0.00    +0.110 C 
ATOM     14  N   UNL     1       0.002  -0.004   0.002  0.00  0.00    -0.164 NA
BRANCH  14  15
ATOM     15  S   UNL     1      -1.207  -0.989   0.559  0.00  0.00    +0.068 S 
ATOM     16  O   UNL     1      -0.601  -2.231   0.888  0.00  0.00    -0.152 OA
ATOM     17  O   UNL     1      -1.947  -0.228   1.504  0.00  0.00    -0.152 OA
BRANCH  15  18
ATOM     18  C   UNL     1      -2.291  -1.300  -0.795  0.00  0.00    +0.143 A 
ATOM     19  C   UNL     1      -2.243  -2.295  -1.716  0.00  0.00    +0.036 A 
ATOM     20  C   UNL     1      -3.213  -2.345  -2.699  0.00  0.00    +0.010 A 
ATOM     21  C   UNL     1      -4.177  -1.392  -2.721  0.00  0.00    +0.047 A 
ATOM     22  S   UNL     1      -3.731  -0.384  -1.317  0.00  0.00    -0.077 S 
ENDBRANCH  15  18
ENDBRANCH  14  15
ENDBRANCH   7  10
BRANCH   1  23
ATOM     23  C   UNL     1       2.647  -4.458  -6.614  0.00  0.00    +0.172 C 
BRANCH  23  24
ATOM     24  S   UNL     1       2.969  -3.338  -8.004  0.00  0.00    -0.116 S 
BRANCH  24  28
ATOM     25  C   UNL     1       4.753  -6.024 -11.184  0.00  0.00    +0.000 A 
ATOM     26  C   UNL     1       4.583  -4.675 -11.437  0.00  0.00    +0.001 A 
ATOM     27  C   UNL     1       4.040  -3.853 -10.470  0.00  0.00    +0.015 A 
ATOM     28  C   UNL     1       3.663  -4.383  -9.241  0.00  0.00    +0.008 A 
ATOM     29  C   UNL     1       3.841  -5.738  -8.989  0.00  0.00    +0.015 A 
ATOM     30  C   UNL     1       4.380  -6.555  -9.963  0.00  0.00    +0.001 A 
ENDBRANCH  24  28
ENDBRANCH  23  24
ENDBRANCH   1  23
TORSDOF 6
