REMARK  Name = ZINC55334451
REMARK  4 active torsions:
REMARK  status: ('A' for Active; 'I' for Inactive)
REMARK    1  A    between atoms: C_5  and  C_7
REMARK    2  A    between atoms: C_7  and  C_8
REMARK    3  A    between atoms: C_10  and  C_13
REMARK    4  A    between atoms: C_14  and  N_18
REMARK                            x       y       z     vdW  Elec       q    Type
REMARK                         _______ _______ _______ _____ _____    ______ ____
ROOT
ATOM      1  C   UNL     1       1.373  -2.695   1.389  0.00  0.00    +0.176 A 
ATOM      2  N   UNL     1       2.529  -2.935   2.009  0.00  0.00    -0.191 NA
ATOM      3  C   UNL     1       2.300  -3.371   3.235  0.00  0.00    +0.267 A 
ATOM      4  O   UNL     1       0.966  -3.414   3.415  0.00  0.00    -0.332 OA
ATOM      5  N   UNL     1       0.388  -2.964   2.199  0.00  0.00    -0.061 NA
ENDROOT
BRANCH   3   6
ATOM      6  C   UNL     1       3.315  -3.741   4.220  0.00  0.00    +0.097 A 
ATOM      7  C   UNL     1       3.146  -4.210   5.520  0.00  0.00    +0.044 A 
ATOM      8  C   UNL     1       4.313  -4.476   6.212  0.00  0.00    +0.031 A 
ATOM      9  C   UNL     1       5.501  -4.269   5.600  0.00  0.00    +0.048 A 
ATOM     10  S   UNL     1       5.090  -3.716   4.068  0.00  0.00    -0.090 S 
BRANCH   7  11
ATOM     11  N   UNL     1       1.884  -4.399   6.086  0.00  0.00    -0.357 N 
ATOM     12  H   UNL     1       1.086  -4.201   5.571  0.00  0.00    +0.142 HD
ATOM     13  H   UNL     1       1.804  -4.728   6.995  0.00  0.00    +0.142 HD
ENDBRANCH   7  11
ENDBRANCH   3   6
BRANCH   1  14
ATOM     14  C   UNL     1       1.229  -2.186  -0.022  0.00  0.00    +0.116 C 
BRANCH  14  19
ATOM     15  C   UNL     1      -0.017   1.378   0.010  0.00  0.00    +0.000 A 
ATOM     16  C   UNL     1       1.171   2.086   0.002  0.00  0.00    +0.001 A 
ATOM     17  C   UNL     1       2.377   1.412  -0.013  0.00  0.00    +0.015 A 
ATOM     18  C   UNL     1       2.397   0.029  -0.021  0.00  0.00    +0.021 A 
ATOM     19  C   UNL     1       1.208  -0.679  -0.013  0.00  0.00    -0.026 A 
ATOM     20  C   UNL     1       0.002  -0.004   0.002  0.00  0.00    +0.005 A 
ATOM     21 BR   UNL     1       4.047  -0.894  -0.042  0.00  0.00    -0.050 Br
ENDBRANCH  14  19
ENDBRANCH   1  14
TORSDOF 4
