REMARK  Name = ZINC36531016
REMARK  16 active torsions:
REMARK  status: ('A' for Active; 'I' for Inactive)
REMARK    1  A    between atoms: C_1  and  C_2
REMARK    2  A    between atoms: C_7  and  C_8
REMARK    3  A    between atoms: C_8  and  C_10
REMARK    4  A    between atoms: C_8  and  N_21
REMARK    5  A    between atoms: N_12  and  C_13
REMARK    6  A    between atoms: C_13  and  C_14
REMARK    7  A    between atoms: C_13  and  C_15
REMARK    8  A    between atoms: C_13  and  C_16
REMARK    9  A    between atoms: C_16  and  C_17
REMARK   10  A    between atoms: C_17  and  C_18
REMARK   11  A    between atoms: C_17  and  C_19
REMARK   12  A    between atoms: C_17  and  C_20
REMARK   13  A    between atoms: N_21  and  C_22
REMARK   14  A    between atoms: C_23  and  C_25
REMARK   15  A    between atoms: C_26  and  O_32
REMARK   16  A    between atoms: C_30  and  O_31
REMARK                            x       y       z     vdW  Elec       q    Type
REMARK                         _______ _______ _______ _____ _____    ______ ____
ROOT
ATOM      1  C   UNL     1      -0.870   0.578   2.720  0.00  0.00    +0.192 C 
ENDROOT
BRANCH   1   8
ATOM      2  C   UNL     1       1.685   1.879   2.364  0.00  0.00    +0.044 C 
ATOM      3  C   UNL     1       1.035   1.164   1.206  0.00  0.00    -0.045 A 
ATOM      4  C   UNL     1       1.664   1.127  -0.024  0.00  0.00    +0.004 A 
ATOM      5  C   UNL     1       1.068   0.471  -1.085  0.00  0.00    +0.000 A 
ATOM      6  C   UNL     1      -0.157  -0.146  -0.916  0.00  0.00    +0.000 A 
ATOM      7  C   UNL     1      -0.785  -0.110   0.314  0.00  0.00    +0.006 A 
ATOM      8  C   UNL     1      -0.187   0.542   1.377  0.00  0.00    -0.015 A 
ENDBRANCH   1   8
BRANCH   1   9
ATOM      9  C   UNL     1      -2.332   0.254   2.549  0.00  0.00    +0.239 C 
ATOM     10  O   UNL     1      -2.811  -0.706   3.115  0.00  0.00    -0.273 OA
ATOM     11  N   UNL     1      -3.107   1.030   1.766  0.00  0.00    -0.308 N 
ATOM     12  H   UNL     1      -2.711   1.754   1.257  0.00  0.00    +0.149 HD
BRANCH  11  13
ATOM     13  C   UNL     1      -4.549   0.781   1.685  0.00  0.00    +0.030 C 
ATOM     14  C   UNL     1      -4.795  -0.572   1.015  0.00  0.00    +0.031 C 
ATOM     15  C   UNL     1      -5.144   0.767   3.095  0.00  0.00    +0.031 C 
BRANCH  13  16
ATOM     16  C   UNL     1      -5.212   1.887   0.862  0.00  0.00    +0.031 C 
BRANCH  16  17
ATOM     17  C   UNL     1      -4.435   3.192   1.042  0.00  0.00    -0.036 C 
ATOM     18  C   UNL     1      -3.217   3.192   0.116  0.00  0.00    +0.010 C 
ATOM     19  C   UNL     1      -5.340   4.376   0.694  0.00  0.00    +0.010 C 
ATOM     20  C   UNL     1      -3.971   3.314   2.494  0.00  0.00    +0.010 C 
ENDBRANCH  16  17
ENDBRANCH  13  16
ENDBRANCH  11  13
ENDBRANCH   1   9
BRANCH   1  21
ATOM     21  N   UNL     1      -0.252  -0.409   3.609  0.00  0.00    -0.285 N 
ATOM     22  C   UNL     1      -0.249  -1.827   3.240  0.00  0.00    +0.133 C 
ATOM     23  C   UNL     1       0.315  -0.013   4.765  0.00  0.00    +0.254 C 
ATOM     24  O   UNL     1       0.313   1.164   5.072  0.00  0.00    -0.270 OA
BRANCH  23  25
ATOM     25  C   UNL     1       0.936  -1.005   5.659  0.00  0.00    +0.119 A 
ATOM     26  C   UNL     1       2.295  -1.326   5.521  0.00  0.00    +0.133 A 
ATOM     27  C   UNL     1       2.869  -2.261   6.367  0.00  0.00    +0.046 A 
ATOM     28  C   UNL     1       2.109  -2.875   7.344  0.00  0.00    +0.007 A 
ATOM     29  C   UNL     1       0.769  -2.566   7.489  0.00  0.00    +0.046 A 
ATOM     30  C   UNL     1       0.176  -1.630   6.657  0.00  0.00    +0.133 A 
BRANCH  30  31
ATOM     31  O   UNL     1      -1.137  -1.324   6.805  0.00  0.00    -0.506 OA
ATOM     32  H   UNL     1      -1.732  -1.879   6.282  0.00  0.00    +0.292 HD
ENDBRANCH  30  31
BRANCH  26  33
ATOM     33  O   UNL     1       3.043  -0.725   4.562  0.00  0.00    -0.506 OA
ATOM     34  H   UNL     1       3.470   0.093   4.852  0.00  0.00    +0.292 HD
ENDBRANCH  26  33
ENDBRANCH  23  25
ENDBRANCH   1  21
TORSDOF 9
