REMARK  Name = ZINC19368379
REMARK  10 active torsions:
REMARK  status: ('A' for Active; 'I' for Inactive)
REMARK    1  A    between atoms: C_4  and  C_7
REMARK    2  A    between atoms: C_7  and  C_8
REMARK    3  A    between atoms: C_7  and  N_14
REMARK    4  A    between atoms: N_17  and  C_20
REMARK    5  A    between atoms: C_20  and  C_21
REMARK    6  A    between atoms: C_21  and  C_23
REMARK    7  A    between atoms: C_21  and  O_37
REMARK    8  A    between atoms: C_23  and  O_24
REMARK    9  A    between atoms: O_24  and  C_25
REMARK   10  A    between atoms: C_32  and  C_35
REMARK                            x       y       z     vdW  Elec       q    Type
REMARK                         _______ _______ _______ _____ _____    ______ ____
ROOT
ATOM      1  N   UNL     1      10.882  -1.806   0.891  0.00  0.00    +0.389 N 
ATOM      2  C   UNL     1      10.875  -0.886  -0.256  0.00  0.00    -0.062 C 
ATOM      3  C   UNL     1       9.548  -0.125  -0.289  0.00  0.00    +0.066 C 
ATOM      4  N   UNL     1       8.438  -1.085  -0.381  0.00  0.00    -0.303 NA
ATOM      5  C   UNL     1       8.445  -2.004   0.766  0.00  0.00    +0.066 C 
ATOM      6  C   UNL     1       9.772  -2.765   0.799  0.00  0.00    -0.062 C 
ATOM      7  H   UNL     1      10.741  -1.210   1.805  0.00  0.00    -0.080 HD
ENDROOT
BRANCH   1   8
ATOM      8  C   UNL     1      12.171  -2.501   1.001  0.00  0.00    -0.007 C 
BRANCH   8  12
ATOM      9  C   UNL     1      15.268   0.350   1.728  0.00  0.00    +0.000 A 
ATOM     10  C   UNL     1      15.464  -0.664   0.809  0.00  0.00    +0.000 A 
ATOM     11  C   UNL     1      14.462  -1.586   0.574  0.00  0.00    +0.002 A 
ATOM     12  C   UNL     1      13.264  -1.495   1.258  0.00  0.00    -0.057 A 
ATOM     13  C   UNL     1      13.065  -0.477   2.172  0.00  0.00    +0.002 A 
ATOM     14  C   UNL     1      14.069   0.442   2.411  0.00  0.00    +0.000 A 
ENDBRANCH   8  12
BRANCH   8  15
ATOM     15  C   UNL     1      12.116  -3.484   2.141  0.00  0.00    -0.057 A 
ATOM     16  C   UNL     1      11.578  -3.104   3.357  0.00  0.00    +0.002 A 
ATOM     17  C   UNL     1      11.523  -4.007   4.401  0.00  0.00    +0.000 A 
ATOM     18  C   UNL     1      12.014  -5.288   4.234  0.00  0.00    +0.000 A 
ATOM     19  C   UNL     1      12.557  -5.667   3.020  0.00  0.00    +0.000 A 
ATOM     20  C   UNL     1      12.608  -4.765   1.974  0.00  0.00    +0.002 A 
ENDBRANCH   8  15
ENDBRANCH   1   8
BRANCH   4  21
ATOM     21  C   UNL     1       7.149  -0.390  -0.491  0.00  0.00    +0.119 C 
BRANCH  21  22
ATOM     22  C   UNL     1       6.052  -1.400  -0.833  0.00  0.00    +0.166 C 
BRANCH  22  23
ATOM     23  O   UNL     1       6.359  -2.034  -2.076  0.00  0.00    -0.387 OA
ATOM     24  H   UNL     1       5.681  -2.796  -2.487  0.00  0.00    +0.210 HD
ENDBRANCH  22  23
BRANCH  22  25
ATOM     25  C   UNL     1       4.709  -0.676  -0.948  0.00  0.00    +0.261 C 
BRANCH  25  26
ATOM     26  O   UNL     1       3.668  -1.633  -1.151  0.00  0.00    -0.489 OA
BRANCH  26  27
ATOM     27  C   UNL     1       2.404  -1.153  -1.275  0.00  0.00    +0.130 A 
ATOM     28  C   UNL     1       2.167   0.206  -1.202  0.00  0.00    +0.046 A 
ATOM     29  C   UNL     1       0.878   0.702  -1.327  0.00  0.00    +0.006 A 
ATOM     30  C   UNL     1      -0.187  -0.150  -1.527  0.00  0.00    +0.026 A 
ATOM     31  C   UNL     1       0.023  -1.523  -1.604  0.00  0.00    +0.051 A 
ATOM     32  C   UNL     1       1.329  -2.034  -1.477  0.00  0.00    +0.043 A 
ATOM     33  C   UNL     1       1.236  -3.442  -1.595  0.00  0.00    +0.050 A 
ATOM     34  C   UNL     1      -0.073  -3.756  -1.785  0.00  0.00    +0.119 A 
ATOM     35  N   UNL     1      -0.821  -2.594  -1.792  0.00  0.00    -0.346 N 
ATOM     36  H   UNL     1      -1.901  -2.428  -1.916  0.00  0.00    +0.167 HD
BRANCH  34  37
ATOM     37  C   UNL     1      -0.594  -5.080  -1.950  0.00  0.00    +0.117 C 
ATOM     38  N   UNL     1      -1.007  -6.130  -2.081  0.00  0.00    -0.189 NA
ENDBRANCH  34  37
ENDBRANCH  26  27
ENDBRANCH  25  26
ENDBRANCH  22  25
ENDBRANCH  21  22
ENDBRANCH   4  21
TORSDOF 10
