REMARK  Name = ZINC13285552
REMARK  9 active torsions:
REMARK  status: ('A' for Active; 'I' for Inactive)
REMARK    1  A    between atoms: C_1  and  C_2
REMARK    2  A    between atoms: C_2  and  C_3
REMARK    3  A    between atoms: C_3  and  O_4
REMARK    4  A    between atoms: O_4  and  C_5
REMARK    5  A    between atoms: C_5  and  C_7
REMARK    6  A    between atoms: C_8  and  C_28
REMARK    7  A    between atoms: C_12  and  C_14
REMARK    8  A    between atoms: C_24  and  C_26
REMARK    9  A    between atoms: C_24  and  C_27
REMARK                            x       y       z     vdW  Elec       q    Type
REMARK                         _______ _______ _______ _____ _____    ______ ____
ROOT
ATOM      1  C   UNL     1      -2.696  -4.020  -0.216  0.00  0.00    +0.065 C 
ATOM      2  C   UNL     1      -3.854  -4.619   0.111  0.00  0.00    +0.016 C 
ATOM      3  N   UNL     1      -3.899  -5.968   0.323  0.00  0.00    -0.321 N 
ATOM      4  C   UNL     1      -2.913  -6.784  -0.162  0.00  0.00    +0.016 C 
ATOM      5  C   UNL     1      -1.708  -6.277  -0.499  0.00  0.00    +0.024 C 
ATOM      6  C   UNL     1      -1.425  -4.805  -0.353  0.00  0.00    +0.092 C 
ATOM      7  C   UNL     1      -0.685  -7.104  -0.995  0.00  0.00    +0.162 C 
ATOM      8  O   UNL     1       0.382  -6.613  -1.304  0.00  0.00    -0.292 OA
ATOM      9  C   UNL     1      -0.888  -8.587  -1.148  0.00  0.00    +0.086 C 
ATOM     10  C   UNL     1      -1.917  -9.059  -0.116  0.00  0.00    -0.023 C 
ATOM     11  C   UNL     1      -3.205  -8.257  -0.312  0.00  0.00    +0.058 C 
ATOM     12  C   UNL     1      -2.203 -10.548  -0.318  0.00  0.00    +0.011 C 
ATOM     13  C   UNL     1      -1.374  -8.823   1.295  0.00  0.00    +0.011 C 
ATOM     14  C   UNL     1      -5.110  -3.797   0.243  0.00  0.00    +0.061 C 
ATOM     15  H   UNL     1      -4.637  -6.351   0.823  0.00  0.00    +0.152 HD
ENDROOT
BRANCH   6  16
ATOM     16  C   UNL     1      -0.574  -4.589   0.872  0.00  0.00    -0.034 A 
ATOM     17  C   UNL     1      -1.054  -4.947   2.118  0.00  0.00    +0.004 A 
ATOM     18  C   UNL     1      -0.275  -4.749   3.243  0.00  0.00    +0.002 A 
ATOM     19  C   UNL     1       0.984  -4.192   3.122  0.00  0.00    +0.020 A 
ATOM     20  C   UNL     1       1.465  -3.834   1.875  0.00  0.00    +0.041 A 
ATOM     21  C   UNL     1       0.687  -4.038   0.749  0.00  0.00    +0.024 A 
ATOM     22 CL   UNL     1       3.047  -3.135   1.723  0.00  0.00    -0.084 Cl
ENDBRANCH   6  16
BRANCH   1  23
ATOM     23  C   UNL     1      -2.676  -2.623  -0.439  0.00  0.00    +0.338 C 
ATOM     24  O   UNL     1      -3.718  -1.995  -0.456  0.00  0.00    -0.245 OA
BRANCH  23  25
ATOM     25  O   UNL     1      -1.502  -1.987  -0.633  0.00  0.00    -0.461 OA
BRANCH  25  26
ATOM     26  C   UNL     1      -1.557  -0.576  -0.853  0.00  0.00    +0.232 C 
BRANCH  26  28
ATOM     27  C   UNL     1      -0.198   1.475  -1.286  0.00  0.00    +0.007 C 
ATOM     28  C   UNL     1      -0.139  -0.035  -1.051  0.00  0.00    +0.038 C 
ENDBRANCH  26  28
ENDBRANCH  25  26
ENDBRANCH  23  25
ENDBRANCH   1  23
TORSDOF 5
