REMARK  Name = ZINC18006336
REMARK  3 active torsions:
REMARK  status: ('A' for Active; 'I' for Inactive)
REMARK    1  A    between atoms: C_4  and  C_7
REMARK    2  A    between atoms: N_13  and  C_14
REMARK    3  A    between atoms: C_17  and  O_20
REMARK                            x       y       z     vdW  Elec       q    Type
REMARK                         _______ _______ _______ _____ _____    ______ ____
ROOT
ATOM      1  C   UNL     1      -2.559   1.507   0.022  0.00  0.00    +0.028 C 
ATOM      2  C   UNL     1      -1.286   1.944   0.188  0.00  0.00    +0.078 C 
ATOM      3  C   UNL     1      -0.032   1.167   0.263  0.00  0.00    +0.256 C 
ATOM      4  O   UNL     1      -0.028  -0.046   0.174  0.00  0.00    -0.269 OA
ATOM      5  N   UNL     1       1.088   1.853   0.425  0.00  0.00    -0.260 N 
ATOM      6  C   UNL     1       1.062   3.227   0.523  0.00  0.00    +0.166 C 
ATOM      7  N   UNL     1       2.071   4.053   0.684  0.00  0.00    -0.226 NA
ATOM      8  S   UNL     1      -0.675   3.612   0.377  0.00  0.00    -0.049 S 
ATOM      9  H   UNL     1       2.052   1.325   0.483  0.00  0.00    +0.157 HD
ENDROOT
BRANCH   1  13
ATOM     10  C   UNL     1      -5.795   4.225   0.373  0.00  0.00    +0.000 A 
ATOM     11  C   UNL     1      -5.990   2.999  -0.239  0.00  0.00    +0.001 A 
ATOM     12  C   UNL     1      -4.943   2.109  -0.357  0.00  0.00    +0.008 A 
ATOM     13  C   UNL     1      -3.681   2.450   0.143  0.00  0.00    -0.024 A 
ATOM     14  C   UNL     1      -3.494   3.690   0.764  0.00  0.00    +0.008 A 
ATOM     15  C   UNL     1      -4.550   4.570   0.869  0.00  0.00    +0.001 A 
ENDBRANCH   1  13
BRANCH   7  16
ATOM     16  C   UNL     1       1.846   5.402   0.760  0.00  0.00    +0.067 A 
ATOM     17  C   UNL     1       0.981   6.020  -0.146  0.00  0.00    +0.031 A 
ATOM     18  C   UNL     1       0.754   7.378  -0.063  0.00  0.00    +0.047 A 
ATOM     19  C   UNL     1       1.391   8.132   0.913  0.00  0.00    +0.117 A 
ATOM     20  C   UNL     1       2.255   7.522   1.813  0.00  0.00    +0.047 A 
ATOM     21  C   UNL     1       2.484   6.165   1.740  0.00  0.00    +0.031 A 
BRANCH  19  22
ATOM     22  O   UNL     1       1.168   9.471   0.989  0.00  0.00    -0.507 OA
ATOM     23  H   UNL     1       1.672  10.070   1.762  0.00  0.00    +0.292 HD
ENDBRANCH  19  22
ENDBRANCH   7  16
TORSDOF 3
