REMARK  Name = ZINC07321081
REMARK  6 active torsions:
REMARK  status: ('A' for Active; 'I' for Inactive)
REMARK    1  A    between atoms: C_1  and  C_2
REMARK    2  A    between atoms: C_6  and  C_7
REMARK    3  A    between atoms: N_8  and  N_9
REMARK    4  A    between atoms: C_10  and  C_12
REMARK    5  A    between atoms: C_12  and  N_13
REMARK    6  A    between atoms: C_14  and  C_16
REMARK                            x       y       z     vdW  Elec       q    Type
REMARK                         _______ _______ _______ _____ _____    ______ ____
ROOT
ATOM      1  C   UNL     1       1.248   1.716  -0.001  0.00  0.00    +0.202 C 
ENDROOT
BRANCH   1   3
ATOM      2  N   UNL     1       3.671   1.218  -0.026  0.00  0.00    -0.206 N 
ATOM      3  C   UNL     1       2.406   0.752  -0.017  0.00  0.00    +0.249 C 
ATOM      4  O   UNL     1       2.201  -0.444  -0.021  0.00  0.00    -0.272 OA
ATOM      5  H   UNL     1       3.835   2.174  -0.023  0.00  0.00    +0.177 HD
BRANCH   2   7
ATOM      6  C   UNL     1       5.968   0.773  -0.051  0.00  0.00    +0.145 C 
ATOM      7  N   UNL     1       4.748   0.323  -0.042  0.00  0.00    -0.187 NA
BRANCH   6  13
ATOM      8  C   UNL     1       8.960   1.522  -0.088  0.00  0.00    +0.045 C 
ATOM      9  C   UNL     1       8.453   0.103  -0.084  0.00  0.00    -0.035 A 
ATOM     10  C   UNL     1       9.329  -0.958  -0.093  0.00  0.00    +0.011 A 
ATOM     11  C   UNL     1       8.838  -2.225  -0.095  0.00  0.00    +0.046 A 
ATOM     12  S   UNL     1       7.074  -1.950  -0.077  0.00  0.00    -0.095 S 
ATOM     13  C   UNL     1       7.095  -0.165  -0.067  0.00  0.00    +0.035 A 
ENDBRANCH   6  13
ENDBRANCH   2   7
ENDBRANCH   1   3
BRANCH   1  14
ATOM     14  N   UNL     1      -0.011   0.966   0.007  0.00  0.00    -0.303 N 
ATOM     15  C   UNL     1      -1.187   1.624   0.017  0.00  0.00    +0.246 C 
ATOM     16  O   UNL     1      -1.204   2.839   0.023  0.00  0.00    -0.270 OA
ATOM     17  H   UNL     1       0.002  -0.004   0.002  0.00  0.00    +0.150 HD
BRANCH  15  18
ATOM     18  C   UNL     1      -2.456   0.868   0.018  0.00  0.00    +0.055 A 
ATOM     19  C   UNL     1      -2.441  -0.529   0.011  0.00  0.00    +0.016 A 
ATOM     20  C   UNL     1      -3.628  -1.228   0.013  0.00  0.00    +0.021 A 
ATOM     21  C   UNL     1      -4.837  -0.550   0.023  0.00  0.00    +0.042 A 
ATOM     22  C   UNL     1      -4.860   0.834   0.031  0.00  0.00    +0.040 A 
ATOM     23  C   UNL     1      -3.678   1.547   0.034  0.00  0.00    +0.054 A 
ATOM     24 CL   UNL     1      -3.708   3.283   0.051  0.00  0.00    -0.083 Cl
ATOM     25 CL   UNL     1      -6.327  -1.440   0.025  0.00  0.00    -0.083 Cl
ENDBRANCH  15  18
ENDBRANCH   1  14
TORSDOF 5
