REMARK  Name = ZINC06143657
REMARK  13 active torsions:
REMARK  status: ('A' for Active; 'I' for Inactive)
REMARK    1  A    between atoms: C_1  and  C_2
REMARK    2  A    between atoms: C_2  and  C_3
REMARK    3  A    between atoms: C_3  and  S_4
REMARK    4  A    between atoms: S_4  and  C_5
REMARK    5  A    between atoms: C_16  and  C_18
REMARK    6  A    between atoms: C_20  and  O_28
REMARK    7  A    between atoms: C_21  and  O_26
REMARK    8  A    between atoms: C_23  and  O_24
REMARK    9  A    between atoms: O_24  and  C_25
REMARK   10  A    between atoms: O_26  and  C_27
REMARK   11  A    between atoms: O_28  and  C_29
REMARK   12  A    between atoms: C_33  and  C_35
REMARK   13  A    between atoms: C_33  and  C_36
REMARK                            x       y       z     vdW  Elec       q    Type
REMARK                         _______ _______ _______ _____ _____    ______ ____
ROOT
ATOM      1  C   UNL     1      -2.680  -1.437  -3.421  0.00  0.00    +0.171 A 
ATOM      2  N   UNL     1      -2.935  -0.104  -3.539  0.00  0.00    -0.302 N 
ATOM      3  H   UNL     1      -3.149   0.272  -4.407  0.00  0.00    +0.171 HD
ATOM      4  C   UNL     1      -2.889   0.694  -2.452  0.00  0.00    +0.258 A 
ATOM      5  O   UNL     1      -3.114   1.890  -2.547  0.00  0.00    -0.267 OA
ATOM      6  C   UNL     1      -2.577   0.124  -1.212  0.00  0.00    +0.069 A 
ATOM      7  C   UNL     1      -2.331  -1.236  -1.145  0.00  0.00    +0.135 A 
ATOM      8  N   UNL     1      -2.388  -1.978  -2.256  0.00  0.00    -0.208 NA
ATOM      9  N   UNL     1      -2.030  -1.818   0.071  0.00  0.00    -0.302 N 
ATOM     10  C   UNL     1      -2.339  -1.185   1.244  0.00  0.00    +0.017 C 
ATOM     11  C   UNL     1      -2.586   0.141   1.272  0.00  0.00    +0.024 C 
ATOM     12  C   UNL     1      -2.513   0.978   0.020  0.00  0.00    +0.096 C 
ATOM     13  C   UNL     1      -2.920   0.790   2.475  0.00  0.00    +0.162 C 
ATOM     14  O   UNL     1      -3.130   1.986   2.467  0.00  0.00    -0.292 OA
ATOM     15  C   UNL     1      -3.023   0.032   3.770  0.00  0.00    +0.086 C 
ATOM     16  C   UNL     1      -3.421  -1.417   3.469  0.00  0.00    -0.023 C 
ATOM     17  C   UNL     1      -2.392  -2.012   2.506  0.00  0.00    +0.058 C 
ATOM     18  C   UNL     1      -4.808  -1.446   2.822  0.00  0.00    +0.011 C 
ATOM     19  C   UNL     1      -3.442  -2.229   4.765  0.00  0.00    +0.011 C 
ATOM     20  H   UNL     1      -1.595  -2.685   0.094  0.00  0.00    +0.153 HD
ENDROOT
BRANCH  12  21
ATOM     21  C   UNL     1      -1.220   1.750   0.017  0.00  0.00    +0.010 A 
ATOM     22  C   UNL     1      -0.013   1.076   0.008  0.00  0.00    +0.057 A 
ATOM     23  C   UNL     1       1.178   1.784   0.000  0.00  0.00    +0.162 A 
ATOM     24  C   UNL     1       1.158   3.176   0.008  0.00  0.00    +0.165 A 
ATOM     25  C   UNL     1      -0.051   3.850   0.022  0.00  0.00    +0.095 A 
ATOM     26  C   UNL     1      -1.241   3.137   0.030  0.00  0.00    +0.128 A 
BRANCH  26  27
ATOM     27  O   UNL     1      -2.429   3.798   0.044  0.00  0.00    -0.495 OA
ATOM     28  C   UNL     1      -2.377   5.226   0.051  0.00  0.00    +0.277 C 
ENDBRANCH  26  27
BRANCH  24  29
ATOM     29  O   UNL     1       2.326   3.873   0.001  0.00  0.00    -0.491 OA
ATOM     30  C   UNL     1       2.231   5.298   0.009  0.00  0.00    +0.277 C 
ENDBRANCH  24  29
BRANCH  23  31
ATOM     31  O   UNL     1       2.365   1.120  -0.015  0.00  0.00    -0.491 OA
ATOM     32  C   UNL     1       2.309  -0.308  -0.022  0.00  0.00    +0.277 C 
ENDBRANCH  23  31
ENDBRANCH  12  21
BRANCH   1  33
ATOM     33  S   UNL     1      -2.742  -2.458  -4.856  0.00  0.00    -0.088 S 
BRANCH  33  34
ATOM     34  C   UNL     1      -2.335  -4.061  -4.119  0.00  0.00    +0.077 C 
BRANCH  34  36
ATOM     35  C   UNL     1      -1.984  -6.490  -4.584  0.00  0.00    +0.004 C 
ATOM     36  C   UNL     1      -2.329  -5.136  -5.207  0.00  0.00    +0.008 C 
ENDBRANCH  34  36
ENDBRANCH  33  34
ENDBRANCH   1  33
TORSDOF 7
