REMARK  Name = ZINC47883313
REMARK  9 active torsions:
REMARK  status: ('A' for Active; 'I' for Inactive)
REMARK    1  A    between atoms: C_1  and  C_2
REMARK    2  A    between atoms: C_2  and  C_3
REMARK    3  A    between atoms: C_2  and  C_4
REMARK    4  A    between atoms: C_2  and  C_22
REMARK    5  A    between atoms: C_4  and  N_5
REMARK    6  A    between atoms: N_8  and  C_9
REMARK    7  A    between atoms: C_9  and  C_10
REMARK    8  A    between atoms: C_10  and  C_12
REMARK    9  A    between atoms: C_10  and  N_17
REMARK                            x       y       z     vdW  Elec       q    Type
REMARK                         _______ _______ _______ _____ _____    ______ ____
ROOT
ATOM      1  N   UNL     1      -2.080  -0.025   1.264  0.00  0.00    -0.299 N 
ATOM      2  C   UNL     1      -3.331  -0.458   1.520  0.00  0.00    +0.300 C 
ATOM      3  O   UNL     1      -3.849  -1.282   0.791  0.00  0.00    -0.253 OA
ATOM      4  N   UNL     1      -4.007   0.022   2.582  0.00  0.00    -0.301 N 
ATOM      5  H   UNL     1      -1.667   0.633   1.846  0.00  0.00    +0.150 HD
ATOM      6  H   UNL     1      -3.593   0.679   3.163  0.00  0.00    +0.150 HD
ENDROOT
BRANCH   1   7
ATOM      7  C   UNL     1      -1.346  -0.546   0.109  0.00  0.00    +0.116 C 
BRANCH   7   9
ATOM      8  C   UNL     1      -0.117   1.620  -0.088  0.00  0.00    +0.017 C 
ATOM      9  C   UNL     1       0.038   0.104   0.049  0.00  0.00    +0.006 C 
ATOM     10  C   UNL     1       0.809  -0.217   1.331  0.00  0.00    +0.017 C 
BRANCH   9  11
ATOM     11  C   UNL     1       0.793  -0.433  -1.140  0.00  0.00    -0.040 A 
ATOM     12  C   UNL     1       0.202  -1.365  -1.971  0.00  0.00    +0.004 A 
ATOM     13  C   UNL     1       0.895  -1.858  -3.061  0.00  0.00    +0.000 A 
ATOM     14  C   UNL     1       2.179  -1.417  -3.320  0.00  0.00    +0.000 A 
ATOM     15  C   UNL     1       2.771  -0.484  -2.489  0.00  0.00    +0.000 A 
ATOM     16  C   UNL     1       2.076   0.011  -1.401  0.00  0.00    +0.004 A 
ENDBRANCH   9  11
ENDBRANCH   7   9
ENDBRANCH   1   7
BRANCH   4  17
ATOM     17  C   UNL     1      -5.366  -0.449   2.860  0.00  0.00    +0.098 C 
BRANCH  17  18
ATOM     18  C   UNL     1      -5.863   0.169   4.168  0.00  0.00    +0.016 C 
BRANCH  18  19
ATOM     19  N   UNL     1      -7.170  -0.404   4.515  0.00  0.00    +0.387 N 
ATOM     20  C   UNL     1      -7.041  -1.863   4.758  0.00  0.00    -0.078 C 
ATOM     21  C   UNL     1      -8.283  -2.190   5.625  0.00  0.00    -0.020 C 
ATOM     22  C   UNL     1      -8.409  -0.944   6.532  0.00  0.00    -0.020 C 
ATOM     23  C   UNL     1      -7.660   0.175   5.785  0.00  0.00    -0.078 C 
ATOM     24  H   UNL     1      -7.834  -0.231   3.775  0.00  0.00    -0.081 HD
ENDBRANCH  18  19
BRANCH  18  25
ATOM     25  C   UNL     1      -5.997   1.661   4.000  0.00  0.00    +0.093 A 
ATOM     26  C   UNL     1      -5.108   2.582   4.412  0.00  0.00    +0.043 A 
ATOM     27  C   UNL     1      -5.631   3.846   4.052  0.00  0.00    +0.041 A 
ATOM     28  C   UNL     1      -6.808   3.621   3.442  0.00  0.00    +0.195 A 
ATOM     29  O   UNL     1      -7.022   2.295   3.408  0.00  0.00    -0.469 OA
ENDBRANCH  18  25
ENDBRANCH  17  18
ENDBRANCH   4  17
TORSDOF 7
