REMARK  Name = ZINC04477358
REMARK  8 active torsions:
REMARK  status: ('A' for Active; 'I' for Inactive)
REMARK    1  A    between atoms: C_1  and  C_2
REMARK    2  A    between atoms: C_2  and  C_3
REMARK    3  A    between atoms: C_3  and  C_25
REMARK    4  A    between atoms: N_6  and  C_10
REMARK    5  A    between atoms: C_10  and  C_11
REMARK    6  A    between atoms: N_13  and  C_14
REMARK    7  A    between atoms: C_19  and  C_24
REMARK    8  A    between atoms: C_21  and  C_23
REMARK                            x       y       z     vdW  Elec       q    Type
REMARK                         _______ _______ _______ _____ _____    ______ ____
ROOT
ATOM      1  C   UNL     1      -0.315   8.453  -2.807  0.00  0.00    +0.138 C 
ATOM      2  C   UNL     1      -0.425   6.941  -2.766  0.00  0.00    +0.251 C 
ATOM      3  O   UNL     1       0.273   6.141  -3.351  0.00  0.00    -0.272 OA
ATOM      4  N   UNL     1      -1.460   6.673  -1.946  0.00  0.00    -0.215 N 
ATOM      5  C   UNL     1      -2.017   7.793  -1.472  0.00  0.00    +0.310 C 
ATOM      6  O   UNL     1      -2.969   7.807  -0.716  0.00  0.00    -0.252 OA
ATOM      7  N   UNL     1      -1.403   8.903  -1.921  0.00  0.00    -0.281 N 
ATOM      8  H   UNL     1      -1.635   9.820  -1.708  0.00  0.00    +0.152 HD
ENDROOT
BRANCH   1   9
ATOM      9  C   UNL     1       1.023   8.901  -2.277  0.00  0.00    -0.015 A 
ATOM     10  C   UNL     1       2.092   9.053  -3.140  0.00  0.00    +0.006 A 
ATOM     11  C   UNL     1       3.318   9.470  -2.656  0.00  0.00    +0.000 A 
ATOM     12  C   UNL     1       3.478   9.724  -1.306  0.00  0.00    +0.000 A 
ATOM     13  C   UNL     1       2.410   9.567  -0.442  0.00  0.00    +0.000 A 
ATOM     14  C   UNL     1       1.183   9.156  -0.928  0.00  0.00    +0.006 A 
ENDBRANCH   1   9
BRANCH   1  16
ATOM     15  C   UNL     1      -1.958   8.655  -4.677  0.00  0.00    +0.007 C 
ATOM     16  C   UNL     1      -0.530   8.970  -4.230  0.00  0.00    +0.037 C 
ENDBRANCH   1  16
BRANCH   4  17
ATOM     17  C   UNL     1      -1.923   5.322  -1.620  0.00  0.00    +0.213 C 
BRANCH  17  18
ATOM     18  C   UNL     1      -1.194   4.823  -0.399  0.00  0.00    +0.231 C 
ATOM     19  O   UNL     1      -0.369   5.526   0.145  0.00  0.00    -0.274 OA
ATOM     20  N   UNL     1      -1.458   3.594   0.088  0.00  0.00    -0.311 N 
ATOM     21  H   UNL     1      -2.118   3.032  -0.347  0.00  0.00    +0.149 HD
BRANCH  20  22
ATOM     22  C   UNL     1      -0.750   3.109   1.275  0.00  0.00    +0.076 C 
ATOM     23  C   UNL     1      -1.466   3.603   2.534  0.00  0.00    +0.022 C 
ATOM     24  C   UNL     1      -0.726   3.096   3.774  0.00  0.00    +0.002 C 
ATOM     25  C   UNL     1      -0.705   1.566   3.765  0.00  0.00    +0.003 C 
ATOM     26  C   UNL     1       0.011   1.072   2.506  0.00  0.00    -0.009 C 
ATOM     27  C   UNL     1      -0.729   1.579   1.267  0.00  0.00    +0.009 C 
ATOM     28  C   UNL     1      -0.013   1.086   0.008  0.00  0.00    +0.009 C 
ATOM     29  C   UNL     1       1.446   1.602   2.495  0.00  0.00    +0.008 C 
ENDBRANCH  20  22
ENDBRANCH  17  18
ENDBRANCH   4  17
TORSDOF 5
