REMARK  Name = ZINC03645892
REMARK  7 active torsions:
REMARK  status: ('A' for Active; 'I' for Inactive)
REMARK    1  A    between atoms: C_4  and  C_7
REMARK    2  A    between atoms: C_7  and  C_9
REMARK    3  A    between atoms: C_7  and  C_30
REMARK    4  A    between atoms: C_9  and  N_10
REMARK    5  A    between atoms: N_10  and  C_11
REMARK    6  A    between atoms: C_11  and  N_13
REMARK    7  A    between atoms: N_13  and  C_14
REMARK                            x       y       z     vdW  Elec       q    Type
REMARK                         _______ _______ _______ _____ _____    ______ ____
ROOT
ATOM      1  N   UNL     1      -3.938   2.370   6.670  0.00  0.00    -0.297 N 
ATOM      2  H   UNL     1      -3.769   3.369   7.099  0.00  0.00    +0.154 HD
ENDROOT
BRANCH   1   3
ATOM      3  C   UNL     1      -3.237   1.972   5.526  0.00  0.00    +0.033 A 
ATOM      4  C   UNL     1      -1.883   2.278   5.401  0.00  0.00    +0.025 A 
ATOM      5  C   UNL     1      -1.177   1.900   4.295  0.00  0.00    +0.030 A 
ATOM      6  C   UNL     1      -1.813   1.196   3.269  0.00  0.00    +0.078 A 
ATOM      7  C   UNL     1      -3.185   0.885   3.391  0.00  0.00    +0.067 A 
ATOM      8  C   UNL     1      -3.893   1.277   4.524  0.00  0.00    +0.038 A 
ATOM      9  C   UNL     1      -3.821   0.139   2.295  0.00  0.00    +0.262 A 
ATOM     10  O   UNL     1      -5.001  -0.157   2.333  0.00  0.00    -0.267 OA
ATOM     11  N   UNL     1      -3.047  -0.200   1.244  0.00  0.00    -0.296 N 
ATOM     12  C   UNL     1      -1.723   0.138   1.204  0.00  0.00    +0.113 A 
ATOM     13  N   UNL     1      -1.143   0.801   2.158  0.00  0.00    -0.234 NA
ATOM     14  C   UNL     1      -0.922  -0.291  -0.005  0.00  0.00    +0.074 C 
ATOM     15  C   UNL     1      -0.683  -1.798   0.062  0.00  0.00    +0.008 C 
ATOM     16  C   UNL     1      -1.824  -2.563  -0.585  0.00  0.00    +0.002 C 
ATOM     17  C   UNL     1      -3.132  -2.390   0.169  0.00  0.00    +0.022 C 
ATOM     18  C   UNL     1      -3.613  -0.942   0.111  0.00  0.00    +0.126 C 
ENDBRANCH   1   3
BRANCH   1  19
ATOM     19  C   UNL     1      -4.820   1.529   7.247  0.00  0.00    +0.135 C 
ATOM     20  S   UNL     1      -4.977  -0.074   6.669  0.00  0.00    -0.019 S 
BRANCH  19  21
ATOM     21  N   UNL     1      -5.577   1.951   8.279  0.00  0.00    -0.326 N 
ATOM     22  H   UNL     1      -5.476   2.982   8.650  0.00  0.00    +0.148 HD
BRANCH  21  23
ATOM     23  C   UNL     1      -6.536   1.038   8.905  0.00  0.00    +0.111 C 
BRANCH  23  24
ATOM     24  C   UNL     1      -7.349   1.794   9.958  0.00  0.00    +0.039 C 
BRANCH  24  28
ATOM     25  C   UNL     1      -9.744   4.766   8.040  0.00  0.00    +0.000 A 
ATOM     26  C   UNL     1      -8.805   5.138   8.984  0.00  0.00    +0.000 A 
ATOM     27  C   UNL     1      -8.030   4.177   9.604  0.00  0.00    +0.004 A 
ATOM     28  C   UNL     1      -8.194   2.843   9.281  0.00  0.00    -0.043 A 
ATOM     29  C   UNL     1      -9.129   2.471   8.334  0.00  0.00    +0.004 A 
ATOM     30  C   UNL     1      -9.908   3.432   7.717  0.00  0.00    +0.000 A 
ENDBRANCH  24  28
BRANCH  24  31
ATOM     31  C   UNL     1      -8.254   0.813  10.705  0.00  0.00    -0.002 C 
ATOM     32  C   UNL     1      -9.125   1.572  11.728  0.00  0.00    +0.004 C 
ATOM     33  C   UNL     1      -9.206   0.614  12.943  0.00  0.00    +0.000 C 
ATOM     34  C   UNL     1      -7.783   0.003  12.991  0.00  0.00    +0.000 C 
ATOM     35  C   UNL     1      -7.401  -0.185  11.508  0.00  0.00    +0.004 C 
ENDBRANCH  24  31
ENDBRANCH  23  24
ENDBRANCH  21  23
ENDBRANCH  19  21
ENDBRANCH   1  19
TORSDOF 7
