REMARK  Name = ZINC01119567
REMARK  7 active torsions:
REMARK  status: ('A' for Active; 'I' for Inactive)
REMARK    1  A    between atoms: C_1  and  C_2
REMARK    2  A    between atoms: C_2  and  C_3
REMARK    3  A    between atoms: C_2  and  C_4
REMARK    4  A    between atoms: C_4  and  N_5
REMARK    5  A    between atoms: C_6  and  C_8
REMARK    6  A    between atoms: C_13  and  N_14
REMARK    7  A    between atoms: C_15  and  C_17
REMARK                            x       y       z     vdW  Elec       q    Type
REMARK                         _______ _______ _______ _____ _____    ______ ____
ROOT
ATOM      1  C   UNL     1      -2.460   0.866   0.013  0.00  0.00    +0.058 A 
ATOM      2  C   UNL     1      -2.453  -0.525  -0.111  0.00  0.00    +0.015 A 
ATOM      3  C   UNL     1      -3.642  -1.222  -0.108  0.00  0.00    +0.001 A 
ATOM      4  C   UNL     1      -4.847  -0.548   0.007  0.00  0.00    +0.002 A 
ATOM      5  C   UNL     1      -4.870   0.827   0.125  0.00  0.00    +0.024 A 
ATOM      6  C   UNL     1      -3.682   1.545   0.129  0.00  0.00    +0.046 A 
ENDROOT
BRANCH   1   8
ATOM      7  N   UNL     1      -0.016   0.957   0.004  0.00  0.00    -0.311 N 
ATOM      8  C   UNL     1      -1.191   1.618   0.015  0.00  0.00    +0.246 C 
ATOM      9  O   UNL     1      -1.204   2.834   0.027  0.00  0.00    -0.270 OA
ATOM     10  H   UNL     1      -0.006  -0.013  -0.005  0.00  0.00    +0.149 HD
BRANCH   7  11
ATOM     11  C   UNL     1       1.244   1.703  -0.000  0.00  0.00    +0.107 C 
BRANCH  11  13
ATOM     12  C   UNL     1       3.730   1.498  -0.150  0.00  0.00    +0.009 C 
ATOM     13  C   UNL     1       2.418   0.722  -0.020  0.00  0.00    -0.000 C 
ATOM     14  C   UNL     1       2.430  -0.086   1.280  0.00  0.00    +0.009 C 
ENDBRANCH  11  13
ENDBRANCH   7  11
ENDBRANCH   1   8
BRANCH   6  15
ATOM     15  N   UNL     1      -3.703   2.933   0.247  0.00  0.00    -0.282 N 
ATOM     16  C   UNL     1      -4.637   3.530   1.013  0.00  0.00    +0.261 C 
ATOM     17  O   UNL     1      -5.399   2.857   1.676  0.00  0.00    -0.271 OA
ATOM     18  H   UNL     1      -3.046   3.470  -0.223  0.00  0.00    +0.155 HD
BRANCH  16  19
ATOM     19  C   UNL     1      -4.736   5.033   1.047  0.00  0.00    +0.296 C 
ATOM     20  C   UNL     1      -5.161   5.555  -0.332  0.00  0.00    +0.283 C 
ATOM     21  O   UNL     1      -5.258   6.982  -0.260  0.00  0.00    -0.484 OA
ATOM     22  C   UNL     1      -5.916   7.497   0.814  0.00  0.00    +0.162 A 
ATOM     23  C   UNL     1      -6.359   8.811   0.775  0.00  0.00    +0.049 A 
ATOM     24  C   UNL     1      -7.026   9.350   1.859  0.00  0.00    +0.004 A 
ATOM     25  C   UNL     1      -7.253   8.581   2.985  0.00  0.00    +0.004 A 
ATOM     26  C   UNL     1      -6.815   7.271   3.030  0.00  0.00    +0.049 A 
ATOM     27  C   UNL     1      -6.147   6.724   1.945  0.00  0.00    +0.163 A 
ATOM     28  O   UNL     1      -5.725   5.431   2.003  0.00  0.00    -0.473 OA
ENDBRANCH  16  19
ENDBRANCH   6  15
TORSDOF 5
