REMARK  Name = ZINC67653974
REMARK  7 active torsions:
REMARK  status: ('A' for Active; 'I' for Inactive)
REMARK    1  A    between atoms: C_1  and  C_2
REMARK    2  A    between atoms: C_3  and  C_10
REMARK    3  A    between atoms: C_15  and  C_17
REMARK    4  A    between atoms: C_19  and  O_25
REMARK    5  A    between atoms: C_21  and  O_23
REMARK    6  A    between atoms: O_23  and  C_24
REMARK    7  A    between atoms: O_25  and  C_26
REMARK                            x       y       z     vdW  Elec       q    Type
REMARK                         _______ _______ _______ _____ _____    ______ ____
ROOT
ATOM      1  C   UNL     1      -0.059  -0.196  -2.388  0.00  0.00    +0.063 C 
ATOM      2  C   UNL     1      -0.919   0.860  -2.680  0.00  0.00    +0.154 C 
ATOM      3  C   UNL     1      -1.733   1.574  -1.761  0.00  0.00    +0.364 C 
ATOM      4  O   UNL     1      -1.819   1.387  -0.560  0.00  0.00    -0.243 OA
ATOM      5  O   UNL     1      -2.390   2.503  -2.486  0.00  0.00    -0.402 OA
ATOM      6  C   UNL     1      -2.014   2.380  -3.776  0.00  0.00    +0.232 C 
ATOM      7  N   UNL     1      -1.141   1.417  -3.903  0.00  0.00    -0.205 NA
ENDROOT
BRANCH   1  10
ATOM      8  C   UNL     1       2.466  -0.364  -0.577  0.00  0.00    +0.068 C 
ATOM      9  C   UNL     1       1.070  -0.835  -0.261  0.00  0.00    +0.065 A 
ATOM     10  C   UNL     1      -0.034  -0.741  -1.099  0.00  0.00    +0.072 A 
ATOM     11  N   UNL     1      -1.121  -1.301  -0.403  0.00  0.00    -0.293 N 
ATOM     12  C   UNL     1      -2.459  -1.533  -0.611  0.00  0.00    +0.101 A 
ATOM     13  C   UNL     1      -3.206  -2.115   0.329  0.00  0.00    +0.067 A 
ATOM     14  S   UNL     1      -2.012  -2.384   1.630  0.00  0.00    -0.058 S 
ATOM     15  C   UNL     1      -0.601  -1.690   0.799  0.00  0.00    +0.178 A 
ATOM     16  N   UNL     1       0.680  -1.416   0.865  0.00  0.00    -0.226 NA
ENDBRANCH   1  10
BRANCH   6  17
ATOM     17  C   UNL     1      -2.514   3.218  -4.884  0.00  0.00    +0.044 A 
ATOM     18  C   UNL     1      -2.061   3.000  -6.186  0.00  0.00    +0.059 A 
ATOM     19  C   UNL     1      -2.532   3.788  -7.223  0.00  0.00    +0.124 A 
ATOM     20  C   UNL     1      -3.453   4.794  -6.968  0.00  0.00    +0.091 A 
ATOM     21  C   UNL     1      -3.906   5.015  -5.675  0.00  0.00    +0.124 A 
ATOM     22  C   UNL     1      -3.445   4.228  -4.634  0.00  0.00    +0.059 A 
BRANCH  21  23
ATOM     23  O   UNL     1      -4.808   6.002  -5.432  0.00  0.00    -0.495 OA
ATOM     24  C   UNL     1      -5.246   6.772  -6.553  0.00  0.00    +0.277 C 
ENDBRANCH  21  23
BRANCH  19  25
ATOM     25  O   UNL     1      -2.092   3.577  -8.491  0.00  0.00    -0.495 OA
ATOM     26  C   UNL     1      -2.619   4.427  -9.511  0.00  0.00    +0.277 C 
ENDBRANCH  19  25
ENDBRANCH   6  17
TORSDOF 4
