REMARK  Name = ZINC35543749
REMARK  7 active torsions:
REMARK  status: ('A' for Active; 'I' for Inactive)
REMARK    1  A    between atoms: C_1  and  C_2
REMARK    2  A    between atoms: C_2  and  C_3
REMARK    3  A    between atoms: C_3  and  C_5
REMARK    4  A    between atoms: C_3  and  N_6
REMARK    5  A    between atoms: C_7  and  C_9
REMARK    6  A    between atoms: C_14  and  N_32
REMARK    7  A    between atoms: N_22  and  C_25
REMARK                            x       y       z     vdW  Elec       q    Type
REMARK                         _______ _______ _______ _____ _____    ______ ____
ROOT
ATOM      1  C   UNL     1       4.271   0.470  -2.304  0.00  0.00    +0.101 C 
ATOM      2  C   UNL     1       4.382   1.834  -1.625  0.00  0.00    +0.051 C 
ATOM      3  C   UNL     1       3.661   2.854  -2.467  0.00  0.00    -0.023 A 
ATOM      4  C   UNL     1       3.092   3.959  -1.863  0.00  0.00    +0.038 A 
ATOM      5  C   UNL     1       2.419   4.896  -2.626  0.00  0.00    +0.127 A 
ATOM      6  C   UNL     1       2.313   4.727  -3.994  0.00  0.00    +0.034 A 
ATOM      7  C   UNL     1       2.882   3.627  -4.602  0.00  0.00    +0.025 A 
ATOM      8  C   UNL     1       3.566   2.686  -3.837  0.00  0.00    +0.033 A 
ATOM      9  N   UNL     1       4.158   1.591  -4.489  0.00  0.00    -0.323 N 
ATOM     10  C   UNL     1       4.825   0.551  -3.730  0.00  0.00    +0.103 C 
ATOM     11  C   UNL     1       4.713  -0.825  -4.366  0.00  0.00    +0.128 C 
ATOM     12  N   UNL     1       4.674  -0.779  -5.814  0.00  0.00    -0.325 N 
ATOM     13  C   UNL     1       3.917   0.225  -6.545  0.00  0.00    +0.124 C 
ATOM     14  C   UNL     1       4.108   1.598  -5.950  0.00  0.00    +0.124 C 
ENDROOT
BRANCH  12  15
ATOM     15  C   UNL     1       5.392  -1.736  -6.536  0.00  0.00    +0.048 A 
ATOM     16  C   UNL     1       4.788  -2.933  -6.898  0.00  0.00    +0.024 A 
ATOM     17  C   UNL     1       5.500  -3.876  -7.612  0.00  0.00    +0.002 A 
ATOM     18  C   UNL     1       6.814  -3.631  -7.966  0.00  0.00    +0.002 A 
ATOM     19  C   UNL     1       7.420  -2.441  -7.608  0.00  0.00    +0.022 A 
ATOM     20  C   UNL     1       6.711  -1.490  -6.899  0.00  0.00    +0.062 A 
ATOM     21 CL   UNL     1       7.470   0.008  -6.455  0.00  0.00    -0.082 Cl
ENDBRANCH  12  15
BRANCH   1  23
ATOM     22  N   UNL     1       2.125  -0.091  -1.209  0.00  0.00    -0.312 N 
ATOM     23  C   UNL     1       2.824   0.051  -2.353  0.00  0.00    +0.218 C 
ATOM     24  O   UNL     1       2.289  -0.157  -3.421  0.00  0.00    -0.275 OA
ATOM     25  H   UNL     1       2.553   0.075  -0.355  0.00  0.00    +0.149 HD
BRANCH  22  26
ATOM     26  C   UNL     1       0.718  -0.497  -1.257  0.00  0.00    +0.070 C 
ATOM     27  C   UNL     1       0.630  -2.023  -1.329  0.00  0.00    +0.028 C 
BRANCH  26  29
ATOM     28  C   UNL     1      -0.019   1.526   0.010  0.00  0.00    +0.005 C 
ATOM     29  C   UNL     1       0.002  -0.004   0.002  0.00  0.00    +0.018 C 
ENDBRANCH  26  29
ENDBRANCH  22  26
ENDBRANCH   1  23
BRANCH   5  30
ATOM     30  N   UNL     1       1.812   6.079  -1.977  0.00  0.00    +0.056 N 
ATOM     31  O   UNL     1       1.904   6.227  -0.781  0.00  0.00    -0.126 OA
ATOM     32  O   UNL     1       1.223   6.898  -2.644  0.00  0.00    -0.126 OA
ENDBRANCH   5  30
TORSDOF 5
