REMARK  Name = ZINC36586169
REMARK  18 active torsions:
REMARK  status: ('A' for Active; 'I' for Inactive)
REMARK    1  A    between atoms: C_1  and  C_2
REMARK    2  A    between atoms: C_2  and  C_3
REMARK    3  A    between atoms: C_2  and  C_4
REMARK    4  A    between atoms: C_2  and  C_5
REMARK    5  A    between atoms: C_5  and  C_6
REMARK    6  A    between atoms: C_6  and  C_7
REMARK    7  A    between atoms: C_6  and  C_8
REMARK    8  A    between atoms: C_6  and  N_9
REMARK    9  A    between atoms: C_10  and  C_12
REMARK   10  A    between atoms: C_12  and  C_14
REMARK   11  A    between atoms: C_12  and  N_24
REMARK   12  A    between atoms: C_16  and  N_21
REMARK   13  A    between atoms: N_24  and  C_35
REMARK   14  A    between atoms: C_25  and  C_27
REMARK   15  A    between atoms: C_28  and  C_29
REMARK   16  A    between atoms: C_35  and  C_36
REMARK   17  A    between atoms: C_35  and  C_37
REMARK   18  A    between atoms: C_35  and  C_38
REMARK                            x       y       z     vdW  Elec       q    Type
REMARK                         _______ _______ _______ _____ _____    ______ ____
ROOT
ATOM      1  C   UNL     1       4.533   0.022  -2.198  0.00  0.00    +0.195 C 
ENDROOT
BRANCH   1   2
ATOM      2  C   UNL     1       4.510  -1.474  -2.018  0.00  0.00    +0.002 A 
ATOM      3  C   UNL     1       5.272  -2.063  -1.027  0.00  0.00    +0.040 A 
ATOM      4  C   UNL     1       5.252  -3.435  -0.863  0.00  0.00    +0.127 A 
ATOM      5  C   UNL     1       4.469  -4.219  -1.689  0.00  0.00    +0.034 A 
ATOM      6  C   UNL     1       3.706  -3.632  -2.680  0.00  0.00    +0.022 A 
ATOM      7  C   UNL     1       3.721  -2.257  -2.842  0.00  0.00    +0.047 A 
ATOM      8 CL   UNL     1       2.758  -1.518  -4.082  0.00  0.00    -0.083 Cl
BRANCH   4   9
ATOM      9  N   UNL     1       6.069  -4.065   0.199  0.00  0.00    +0.056 N 
ATOM     10  O   UNL     1       6.754  -3.380   0.921  0.00  0.00    -0.126 OA
ATOM     11  O   UNL     1       6.051  -5.266   0.343  0.00  0.00    -0.126 OA
ENDBRANCH   4   9
ENDBRANCH   1   2
BRANCH   1  13
ATOM     12  N   UNL     1       2.085   0.250  -1.926  0.00  0.00    -0.308 N 
ATOM     13  C   UNL     1       3.320   0.626  -1.539  0.00  0.00    +0.239 C 
ATOM     14  O   UNL     1       3.455   1.451  -0.660  0.00  0.00    -0.273 OA
ATOM     15  H   UNL     1       1.977  -0.420  -2.619  0.00  0.00    +0.149 HD
BRANCH  12  16
ATOM     16  C   UNL     1       0.906   0.853  -1.300  0.00  0.00    +0.030 C 
ATOM     17  C   UNL     1       1.046   2.376  -1.309  0.00  0.00    +0.031 C 
ATOM     18  C   UNL     1       0.787   0.360   0.144  0.00  0.00    +0.031 C 
BRANCH  16  19
ATOM     19  C   UNL     1      -0.347   0.451  -2.081  0.00  0.00    +0.031 C 
BRANCH  19  21
ATOM     20  C   UNL     1       1.150   0.301  -4.075  0.00  0.00    +0.010 C 
ATOM     21  C   UNL     1      -0.181   0.843  -3.550  0.00  0.00    -0.036 C 
ATOM     22  C   UNL     1      -0.195   2.368  -3.675  0.00  0.00    +0.010 C 
ATOM     23  C   UNL     1      -1.330   0.253  -4.369  0.00  0.00    +0.010 C 
ENDBRANCH  19  21
ENDBRANCH  16  19
ENDBRANCH  12  16
ENDBRANCH   1  13
BRANCH   1  24
ATOM     24  N   UNL     1       5.746   0.569  -1.584  0.00  0.00    -0.270 N 
ATOM     25  C   UNL     1       5.913   0.504  -0.248  0.00  0.00    +0.293 C 
ATOM     26  O   UNL     1       5.066  -0.027   0.446  0.00  0.00    -0.260 OA
BRANCH  24  27
ATOM     27  C   UNL     1       6.776   1.187  -2.422  0.00  0.00    +0.031 C 
ATOM     28  C   UNL     1       6.286   1.249  -3.870  0.00  0.00    +0.031 C 
ATOM     29  C   UNL     1       7.062   2.603  -1.919  0.00  0.00    +0.031 C 
ATOM     30  C   UNL     1       8.057   0.353  -2.353  0.00  0.00    +0.031 C 
ENDBRANCH  24  27
BRANCH  25  31
ATOM     31  C   UNL     1       7.087   1.060   0.354  0.00  0.00    -0.003 C 
ATOM     32  C   UNL     1       8.050   1.515   0.848  0.00  0.00    -0.057 C 
BRANCH  32  33
ATOM     33  C   UNL     1       9.224   2.071   1.451  0.00  0.00    +0.025 A 
ATOM     34  C   UNL     1      10.197   2.687   0.657  0.00  0.00    +0.017 A 
ATOM     35  C   UNL     1      11.325   3.220   1.245  0.00  0.00    +0.001 A 
ATOM     36  C   UNL     1      11.495   3.146   2.616  0.00  0.00    +0.000 A 
ATOM     37  C   UNL     1      10.537   2.538   3.408  0.00  0.00    +0.001 A 
ATOM     38  C   UNL     1       9.401   2.006   2.836  0.00  0.00    +0.017 A 
ENDBRANCH  32  33
ENDBRANCH  25  31
ENDBRANCH   1  24
TORSDOF 10
