REMARK  Name = ZINC08801615
REMARK  9 active torsions:
REMARK  status: ('A' for Active; 'I' for Inactive)
REMARK    1  A    between atoms: C_1  and  N_2
REMARK    2  A    between atoms: C_9  and  C_11
REMARK    3  A    between atoms: C_11  and  C_13
REMARK    4  A    between atoms: C_11  and  N_61
REMARK    5  A    between atoms: C_13  and  N_14
REMARK    6  A    between atoms: N_14  and  S_15
REMARK    7  A    between atoms: S_15  and  C_18
REMARK    8  A    between atoms: C_21  and  O_25
REMARK    9  A    between atoms: O_25  and  C_26
REMARK                            x       y       z     vdW  Elec       q    Type
REMARK                         _______ _______ _______ _____ _____    ______ ____
ROOT
ATOM      1  C   UNL     1      -3.344   6.166  -1.132  0.00  0.00    -0.022 C 
ENDROOT
BRANCH   1  10
ATOM      2  C   UNL     1       0.284   1.725   1.864  0.00  0.00    +0.129 C 
ATOM      3  N   UNL     1      -0.726   1.525   0.817  0.00  0.00    -0.332 N 
ATOM      4  C   UNL     1      -0.109   1.006  -0.423  0.00  0.00    +0.109 C 
ATOM      5  C   UNL     1      -1.012   1.599  -1.530  0.00  0.00    +0.056 C 
ATOM      6  C   UNL     1      -1.585   2.837  -0.869  0.00  0.00    -0.025 A 
ATOM      7  C   UNL     1      -1.374   2.729   0.500  0.00  0.00    +0.033 A 
ATOM      8  C   UNL     1      -1.807   3.757   1.336  0.00  0.00    +0.023 A 
ATOM      9  C   UNL     1      -2.440   4.862   0.806  0.00  0.00    +0.004 A 
ATOM     10  C   UNL     1      -2.649   4.958  -0.558  0.00  0.00    -0.059 A 
ATOM     11  C   UNL     1      -2.220   3.943  -1.394  0.00  0.00    +0.007 A 
ENDBRANCH   1  10
BRANCH   1  17
ATOM     12  C   UNL     1      -5.618   6.996  -1.140  0.00  0.00    -0.078 C 
ATOM     13  C   UNL     1      -6.865   7.188  -0.274  0.00  0.00    -0.019 C 
ATOM     14  C   UNL     1      -6.553   8.182   0.849  0.00  0.00    -0.004 C 
ATOM     15  C   UNL     1      -5.371   7.658   1.669  0.00  0.00    -0.019 C 
ATOM     16  C   UNL     1      -4.167   7.452   0.747  0.00  0.00    -0.078 C 
ATOM     17  N   UNL     1      -4.525   6.468  -0.297  0.00  0.00    +0.385 N 
ATOM     18  H   UNL     1      -4.842   5.603   0.157  0.00  0.00    -0.081 HD
ENDBRANCH   1  17
BRANCH   1  19
ATOM     19  C   UNL     1      -2.379   7.353  -1.140  0.00  0.00    +0.095 C 
BRANCH  19  20
ATOM     20  N   UNL     1      -3.053   8.527  -1.700  0.00  0.00    -0.191 NA
ATOM     21  H   UNL     1      -3.852   8.416  -2.239  0.00  0.00    +0.148 HD
BRANCH  20  22
ATOM     22  S   UNL     1      -2.451  10.043  -1.415  0.00  0.00    +0.058 S 
ATOM     23  O   UNL     1      -3.298  10.953  -2.104  0.00  0.00    -0.153 OA
ATOM     24  O   UNL     1      -2.218  10.130  -0.015  0.00  0.00    -0.153 OA
BRANCH  22  25
ATOM     25  C   UNL     1      -0.874  10.133  -2.194  0.00  0.00    +0.108 A 
ATOM     26  C   UNL     1       0.264   9.778  -1.493  0.00  0.00    +0.032 A 
ATOM     27  C   UNL     1       1.502   9.843  -2.103  0.00  0.00    +0.050 A 
ATOM     28  C   UNL     1       1.605  10.275  -3.417  0.00  0.00    +0.155 A 
ATOM     29  C   UNL     1       0.462  10.636  -4.118  0.00  0.00    +0.167 A 
ATOM     30  C   UNL     1      -0.775  10.564  -3.504  0.00  0.00    +0.070 A 
ATOM     31  F   UNL     1       0.559  11.057  -5.398  0.00  0.00    -0.202 F 
BRANCH  28  32
ATOM     32  O   UNL     1       2.823  10.344  -4.017  0.00  0.00    -0.492 OA
ATOM     33  C   UNL     1       3.955   9.957  -3.235  0.00  0.00    +0.277 C 
ENDBRANCH  28  32
ENDBRANCH  22  25
ENDBRANCH  20  22
ENDBRANCH  19  20
ENDBRANCH   1  19
TORSDOF 7
