REMARK  Name = ZINC01057853
REMARK  12 active torsions:
REMARK  status: ('A' for Active; 'I' for Inactive)
REMARK    1  A    between atoms: C_1  and  C_2
REMARK    2  A    between atoms: C_2  and  C_34
REMARK    3  A    between atoms: C_6  and  C_22
REMARK    4  A    between atoms: C_8  and  C_20
REMARK    5  A    between atoms: C_9  and  N_19
REMARK    6  A    between atoms: N_10  and  C_11
REMARK    7  A    between atoms: C_14  and  O_17
REMARK    8  A    between atoms: O_17  and  C_18
REMARK    9  A    between atoms: C_25  and  C_27
REMARK   10  A    between atoms: C_27  and  C_28
REMARK   11  A    between atoms: C_27  and  C_29
REMARK   12  A    between atoms: C_27  and  C_30
REMARK                            x       y       z     vdW  Elec       q    Type
REMARK                         _______ _______ _______ _____ _____    ______ ____
ROOT
ATOM      1  C   UNL     1       1.362  -0.082   2.204  0.00  0.00    +0.011 C 
ATOM      2  C   UNL     1       0.839  -1.384   1.594  0.00  0.00    -0.023 C 
ATOM      3  C   UNL     1      -0.603  -1.189   1.123  0.00  0.00    +0.058 C 
ATOM      4  C   UNL     1      -1.101  -2.458   0.476  0.00  0.00    +0.025 C 
ATOM      5  C   UNL     1      -0.255  -3.288  -0.171  0.00  0.00    +0.026 C 
ATOM      6  C   UNL     1      -0.755  -4.556  -0.817  0.00  0.00    +0.104 C 
ATOM      7  C   UNL     1      -2.242  -4.515  -1.010  0.00  0.00    +0.077 C 
ATOM      8  C   UNL     1      -3.015  -3.633  -0.325  0.00  0.00    +0.107 C 
ATOM      9  N   UNL     1      -2.438  -2.749   0.558  0.00  0.00    -0.260 N 
ATOM     10  C   UNL     1       1.118  -2.998  -0.258  0.00  0.00    +0.162 C 
ATOM     11  O   UNL     1       1.850  -3.757  -0.862  0.00  0.00    -0.292 OA
ATOM     12  C   UNL     1       1.701  -1.770   0.387  0.00  0.00    +0.086 C 
ATOM     13  C   UNL     1       0.892  -2.499   2.640  0.00  0.00    +0.011 C 
ENDROOT
BRANCH   9  14
ATOM     14  C   UNL     1      -3.222  -2.142   1.547  0.00  0.00    +0.040 A 
ATOM     15  C   UNL     1      -3.366  -2.747   2.789  0.00  0.00    +0.027 A 
ATOM     16  C   UNL     1      -4.134  -2.146   3.765  0.00  0.00    +0.047 A 
ATOM     17  C   UNL     1      -4.772  -0.942   3.502  0.00  0.00    +0.120 A 
ATOM     18  C   UNL     1      -4.634  -0.339   2.260  0.00  0.00    +0.047 A 
ATOM     19  C   UNL     1      -3.861  -0.937   1.285  0.00  0.00    +0.027 A 
BRANCH  17  20
ATOM     20  O   UNL     1      -5.534  -0.353   4.462  0.00  0.00    -0.495 OA
ATOM     21  C   UNL     1      -5.633  -1.028   5.718  0.00  0.00    +0.277 C 
ENDBRANCH  17  20
ENDBRANCH   9  14
BRANCH   6  22
ATOM     22  C   UNL     1      -0.403  -5.729   0.061  0.00  0.00    +0.003 A 
ATOM     23  C   UNL     1       0.388  -6.795  -0.216  0.00  0.00    +0.012 A 
ATOM     24  C   UNL     1       0.572  -7.763   0.754  0.00  0.00    +0.012 A 
ATOM     25  C   UNL     1      -0.045  -7.618   1.952  0.00  0.00    -0.005 A 
ATOM     26  S   UNL     1      -0.913  -6.073   1.737  0.00  0.00    -0.097 S 
BRANCH  25  27
ATOM     27  C   UNL     1      -0.003  -8.523   3.156  0.00  0.00    -0.006 C 
ATOM     28  C   UNL     1       1.440  -8.657   3.645  0.00  0.00    +0.016 C 
ATOM     29  C   UNL     1      -0.866  -7.929   4.271  0.00  0.00    +0.016 C 
ATOM     30  C   UNL     1      -0.543  -9.903   2.775  0.00  0.00    +0.016 C 
ENDBRANCH  25  27
ENDBRANCH   6  22
BRANCH   8  31
ATOM     31  N   UNL     1      -4.377  -3.623  -0.514  0.00  0.00    -0.345 N 
ATOM     32  H   UNL     1      -4.920  -2.938  -0.094  0.00  0.00    +0.144 HD
ATOM     33  H   UNL     1      -4.795  -4.301  -1.067  0.00  0.00    +0.144 HD
ENDBRANCH   8  31
BRANCH   7  34
ATOM     34  C   UNL     1      -2.857  -5.422  -1.932  0.00  0.00    +0.099 C 
ATOM     35  N   UNL     1      -3.345  -6.141  -2.664  0.00  0.00    -0.191 NA
ENDBRANCH   7  34
TORSDOF 6
