REMARK  Name = ZINC01376475
REMARK  7 active torsions:
REMARK  status: ('A' for Active; 'I' for Inactive)
REMARK    1  A    between atoms: C_1  and  C_2
REMARK    2  A    between atoms: C_2  and  C_3
REMARK    3  A    between atoms: C_2  and  C_4
REMARK    4  A    between atoms: C_17  and  S_20
REMARK    5  A    between atoms: S_20  and  C_21
REMARK    6  A    between atoms: C_21  and  C_22
REMARK    7  A    between atoms: N_24  and  C_25
REMARK                            x       y       z     vdW  Elec       q    Type
REMARK                         _______ _______ _______ _____ _____    ______ ____
ROOT
ATOM      1  C   UNL     1      -7.048   0.409   0.206  0.00  0.00    +0.121 A 
ATOM      2  N   UNL     1      -6.182   0.729   1.125  0.00  0.00    -0.226 NA
ATOM      3  C   UNL     1      -4.890   0.894   0.858  0.00  0.00    +0.114 A 
ATOM      4  C   UNL     1      -4.363   0.738  -0.432  0.00  0.00    +0.056 A 
ATOM      5  C   UNL     1      -2.968   0.944  -0.582  0.00  0.00    -0.024 A 
ATOM      6  C   UNL     1      -2.260   1.272   0.523  0.00  0.00    -0.004 A 
ATOM      7  S   UNL     1      -3.462   1.317   1.826  0.00  0.00    -0.073 S 
ATOM      8  C   UNL     1      -0.786   1.538   0.620  0.00  0.00    +0.043 C 
ATOM      9  C   UNL     1      -0.121   1.023  -0.665  0.00  0.00    +0.005 C 
ATOM     10  C   UNL     1      -0.923   1.523  -1.870  0.00  0.00    +0.005 C 
ATOM     11  C   UNL     1      -2.271   0.804  -1.933  0.00  0.00    +0.037 C 
ATOM     12  C   UNL     1      -5.355   0.375  -1.468  0.00  0.00    +0.173 A 
ATOM     13  N   UNL     1      -6.673   0.226  -1.093  0.00  0.00    -0.257 N 
ATOM     14  C   UNL     1      -7.342  -0.102  -2.239  0.00  0.00    +0.198 A 
ATOM     15  N   UNL     1      -6.457  -0.139  -3.209  0.00  0.00    -0.122 NA
ATOM     16  N   UNL     1      -5.285   0.143  -2.756  0.00  0.00    -0.128 NA
ENDROOT
BRANCH   1  18
ATOM     17  C   UNL     1      -8.639  -0.957   1.531  0.00  0.00    +0.015 C 
ATOM     18  C   UNL     1      -8.497   0.238   0.586  0.00  0.00    +0.049 C 
ATOM     19  C   UNL     1      -8.993   1.504   1.287  0.00  0.00    +0.015 C 
ENDBRANCH   1  18
BRANCH  14  20
ATOM     20  S   UNL     1      -9.069  -0.418  -2.386  0.00  0.00    -0.076 S 
BRANCH  20  21
ATOM     21  C   UNL     1      -9.298  -0.791  -4.147  0.00  0.00    +0.173 C 
BRANCH  21  22
ATOM     22  C   UNL     1     -10.752  -1.083  -4.413  0.00  0.00    +0.227 C 
ATOM     23  O   UNL     1     -11.555  -1.045  -3.505  0.00  0.00    -0.275 OA
ATOM     24  N   UNL     1     -11.161  -1.388  -5.661  0.00  0.00    -0.285 N 
ATOM     25  H   UNL     1     -10.509  -1.496  -6.372  0.00  0.00    +0.155 HD
BRANCH  24  26
ATOM     26  C   UNL     1     -12.525  -1.550  -5.931  0.00  0.00    +0.034 A 
ATOM     27  C   UNL     1     -12.942  -2.486  -6.869  0.00  0.00    +0.026 A 
ATOM     28  C   UNL     1     -14.288  -2.648  -7.129  0.00  0.00    +0.040 A 
ATOM     29  C   UNL     1     -15.222  -1.870  -6.465  0.00  0.00    +0.124 A 
ATOM     30  C   UNL     1     -14.808  -0.932  -5.535  0.00  0.00    +0.040 A 
ATOM     31  C   UNL     1     -13.463  -0.771  -5.267  0.00  0.00    +0.026 A 
ATOM     32  F   UNL     1     -16.538  -2.027  -6.726  0.00  0.00    -0.205 F 
ENDBRANCH  24  26
ENDBRANCH  21  22
ENDBRANCH  20  21
ENDBRANCH  14  20
TORSDOF 5
