REMARK  Name = ZINC50588931
REMARK  8 active torsions:
REMARK  status: ('A' for Active; 'I' for Inactive)
REMARK    1  A    between atoms: C_1  and  C_2
REMARK    2  A    between atoms: C_2  and  C_3
REMARK    3  A    between atoms: C_3  and  C_5
REMARK    4  A    between atoms: C_3  and  N_21
REMARK    5  A    between atoms: C_5  and  C_7
REMARK    6  A    between atoms: C_5  and  N_13
REMARK    7  A    between atoms: C_14  and  C_20
REMARK    8  A    between atoms: C_16  and  C_18
REMARK                            x       y       z     vdW  Elec       q    Type
REMARK                         _______ _______ _______ _____ _____    ______ ____
ROOT
ATOM      1  C   UNL     1       0.872  -2.034   1.171  0.00  0.00    +0.130 C 
ENDROOT
BRANCH   1   2
ATOM      2  N   UNL     1       1.581  -2.519   2.358  0.00  0.00    -0.261 N 
ATOM      3  C   UNL     1       1.098  -3.390   3.270  0.00  0.00    +0.051 A 
ATOM      4  C   UNL     1       2.058  -3.580   4.206  0.00  0.00    +0.061 A 
ATOM      5  C   UNL     1       3.163  -2.798   3.854  0.00  0.00    +0.074 A 
ATOM      6  N   UNL     1       2.880  -2.166   2.743  0.00  0.00    -0.175 NA
ATOM      7  C   UNL     1       4.458  -2.704   4.618  0.00  0.00    +0.068 C 
ATOM      8 BR   UNL     1       1.926  -4.702   5.722  0.00  0.00    -0.047 Br
ATOM      9  C   UNL     1      -0.264  -4.035   3.250  0.00  0.00    +0.066 C 
ENDBRANCH   1   2
BRANCH   1  10
ATOM     10  C   UNL     1       1.644  -2.415  -0.066  0.00  0.00    +0.014 A 
ATOM     11  C   UNL     1       1.252  -3.180  -1.115  0.00  0.00    +0.028 A 
ATOM     12  C   UNL     1       2.139  -3.399  -2.152  0.00  0.00    +0.025 A 
ATOM     13  C   UNL     1       3.374  -2.843  -2.090  0.00  0.00    +0.060 A 
ATOM     14  S   UNL     1       3.308  -1.971  -0.534  0.00  0.00    -0.098 S 
ATOM     15 BR   UNL     1       1.637  -4.460  -3.636  0.00  0.00    -0.050 Br
ENDBRANCH   1  10
BRANCH   1  16
ATOM     16  C   UNL     1       0.742  -0.511   1.242  0.00  0.00    -0.045 C 
BRANCH  16  17
ATOM     17  N   UNL     1      -0.010  -0.139   2.447  0.00  0.00    +0.382 N 
ATOM     18  H   UNL     1      -0.929  -0.554   2.411  0.00  0.00    -0.090 HD
ATOM     19  H   UNL     1       0.478  -0.473   3.265  0.00  0.00    -0.090 HD
ATOM     20  H   UNL     1      -0.096   0.865   2.494  0.00  0.00    -0.090 HD
ENDBRANCH  16  17
BRANCH  16  22
ATOM     21  C   UNL     1      -0.019   1.526   0.010  0.00  0.00    +0.002 C 
ATOM     22  C   UNL     1       0.002  -0.004   0.002  0.00  0.00    -0.017 C 
ENDBRANCH  16  22
ENDBRANCH   1  16
TORSDOF 5
