REMARK  Name = ZINC12329855
REMARK  5 active torsions:
REMARK  status: ('A' for Active; 'I' for Inactive)
REMARK    1  A    between atoms: C_17  and  C_18
REMARK    2  A    between atoms: C_17  and  N_56
REMARK    3  A    between atoms: C_18  and  C_20
REMARK    4  A    between atoms: C_18  and  O_27
REMARK    5  A    between atoms: C_29  and  O_31
REMARK                            x       y       z     vdW  Elec       q    Type
REMARK                         _______ _______ _______ _____ _____    ______ ____
ROOT
ATOM      1  C   UNL     1      -3.778   2.029   0.413  0.00  0.00    +0.001 A 
ATOM      2  C   UNL     1      -3.760   3.420   0.329  0.00  0.00    +0.001 A 
ATOM      3  C   UNL     1      -2.584   4.106   0.312  0.00  0.00    +0.012 A 
ATOM      4  C   UNL     1      -1.370   3.404   0.381  0.00  0.00    +0.024 A 
ATOM      5  C   UNL     1      -1.388   1.991   0.461  0.00  0.00    -0.014 A 
ATOM      6  C   UNL     1      -2.621   1.316   0.480  0.00  0.00    +0.008 A 
ATOM      7  C   UNL     1      -0.171   1.293   0.533  0.00  0.00    +0.009 A 
ATOM      8  C   UNL     1       1.001   1.981   0.512  0.00  0.00    +0.010 A 
ATOM      9  C   UNL     1       1.029   3.375   0.428  0.00  0.00    +0.023 A 
ATOM     10  C   UNL     1      -0.132   4.088   0.367  0.00  0.00    +0.135 A 
ATOM     11  O   UNL     1      -0.146   5.443   0.295  0.00  0.00    -0.485 OA
ATOM     12  C   UNL     1       1.058   6.107  -0.084  0.00  0.00    +0.110 C 
ATOM     13  C   UNL     1       1.339   5.869  -1.568  0.00  0.00    +0.029 C 
ATOM     14  C   UNL     1       0.218   6.494  -2.402  0.00  0.00    -0.075 C 
ATOM     15  C   UNL     1      -0.181   8.182  -0.710  0.00  0.00    -0.075 C 
ATOM     16  C   UNL     1       0.927   7.609   0.176  0.00  0.00    +0.029 C 
ATOM     17  C   UNL     1       2.209   5.541   0.754  0.00  0.00    +0.084 C 
ATOM     18  C   UNL     1       2.373   4.060   0.403  0.00  0.00    +0.152 C 
ATOM     19  N   UNL     1       0.168   7.946  -2.127  0.00  0.00    +0.382 N 
ATOM     20  H   UNL     1       1.092   8.352  -2.315  0.00  0.00    -0.082 HD
ENDROOT
BRANCH  18  21
ATOM     21  O   UNL     1       3.240   3.440   1.354  0.00  0.00    -0.387 OA
ATOM     22  H   UNL     1       3.395   2.499   1.190  0.00  0.00    +0.210 HD
ENDBRANCH  18  21
BRANCH  19  23
ATOM     23  C   UNL     1      -0.828   8.592  -3.007  0.00  0.00    -0.042 C 
BRANCH  23  24
ATOM     24  C   UNL     1      -2.135   7.797  -3.013  0.00  0.00    +0.128 C 
BRANCH  24  25
ATOM     25  C   UNL     1      -3.076   8.386  -4.033  0.00  0.00    -0.021 A 
ATOM     26  C   UNL     1      -3.810   9.516  -3.724  0.00  0.00    +0.007 A 
ATOM     27  C   UNL     1      -4.669  10.059  -4.661  0.00  0.00    +0.020 A 
ATOM     28  C   UNL     1      -4.802   9.465  -5.904  0.00  0.00    +0.041 A 
ATOM     29  C   UNL     1      -4.071   8.331  -6.210  0.00  0.00    +0.020 A 
ATOM     30  C   UNL     1      -3.209   7.792  -5.274  0.00  0.00    +0.007 A 
ATOM     31 CL   UNL     1      -5.885  10.143  -7.079  0.00  0.00    -0.084 Cl
ENDBRANCH  24  25
BRANCH  24  32
ATOM     32  O   UNL     1      -2.737   7.860  -1.718  0.00  0.00    -0.389 OA
ATOM     33  H   UNL     1      -2.949   8.757  -1.426  0.00  0.00    +0.210 HD
ENDBRANCH  24  32
ENDBRANCH  23  24
ENDBRANCH  19  23
TORSDOF 5
