REMARK  Name = ZINC67081506
REMARK  10 active torsions:
REMARK  status: ('A' for Active; 'I' for Inactive)
REMARK    1  A    between atoms: C_1  and  C_2
REMARK    2  A    between atoms: C_7  and  C_8
REMARK    3  A    between atoms: C_8  and  C_9
REMARK    4  A    between atoms: C_8  and  C_10
REMARK    5  A    between atoms: C_8  and  C_11
REMARK    6  A    between atoms: C_11  and  N_12
REMARK    7  A    between atoms: C_22  and  C_24
REMARK    8  A    between atoms: C_24  and  C_25
REMARK    9  A    between atoms: C_24  and  C_26
REMARK   10  A    between atoms: C_24  and  C_27
REMARK                            x       y       z     vdW  Elec       q    Type
REMARK                         _______ _______ _______ _____ _____    ______ ____
ROOT
ATOM      1  N   UNL     1       0.821  -1.227   6.062  0.00  0.00    -0.298 N 
ATOM      2  C   UNL     1       0.717  -1.706   7.317  0.00  0.00    +0.302 C 
ATOM      3  O   UNL     1       0.876  -2.892   7.531  0.00  0.00    -0.253 OA
ATOM      4  N   UNL     1       0.436  -0.870   8.336  0.00  0.00    -0.284 N 
ATOM      5  C   UNL     1       0.326  -1.339   9.673  0.00  0.00    +0.111 C 
ATOM      6  C   UNL     1      -1.077  -1.922  10.045  0.00  0.00    +0.038 C 
ATOM      7  C   UNL     1      -2.151  -1.035   9.335  0.00  0.00    +0.109 C 
ATOM      8  N   UNL     1      -1.847   0.353   9.306  0.00  0.00    -0.299 N 
ATOM      9  C   UNL     1      -1.199   0.877   8.076  0.00  0.00    +0.126 C 
ATOM     10  C   UNL     1       0.235   0.585   8.113  0.00  0.00    +0.128 C 
ATOM     11  C   UNL     1      -2.134   1.159  10.347  0.00  0.00    +0.221 C 
ATOM     12  O   UNL     1      -2.715   0.715  11.315  0.00  0.00    -0.275 OA
ATOM     13  H   UNL     1       0.694  -0.281   5.891  0.00  0.00    +0.150 HD
ENDROOT
BRANCH  11  14
ATOM     14  C   UNL     1      -1.734   2.611  10.309  0.00  0.00    +0.039 C 
ATOM     15  C   UNL     1      -1.983   3.245  11.679  0.00  0.00    +0.020 C 
ATOM     16  C   UNL     1      -0.249   2.722   9.959  0.00  0.00    +0.020 C 
ATOM     17  C   UNL     1      -2.563   3.342   9.251  0.00  0.00    +0.020 C 
ENDBRANCH  11  14
BRANCH   1  18
ATOM     18  C   UNL     1       1.126  -2.136   4.954  0.00  0.00    +0.116 C 
BRANCH  18  19
ATOM     19  C   UNL     1       1.187  -1.345   3.647  0.00  0.00    +0.006 C 
ATOM     20  C   UNL     1       2.279  -0.278   3.747  0.00  0.00    +0.017 C 
ATOM     21  C   UNL     1      -0.163  -0.670   3.396  0.00  0.00    +0.017 C 
BRANCH  19  28
ATOM     22  C   UNL     1       1.709  -0.285   1.010  0.00  0.00    +0.044 C 
ATOM     23  C   UNL     1       1.750  -1.773   1.246  0.00  0.00    -0.047 A 
ATOM     24  C   UNL     1       2.044  -2.631   0.202  0.00  0.00    +0.003 A 
ATOM     25  C   UNL     1       2.082  -3.995   0.418  0.00  0.00    +0.000 A 
ATOM     26  C   UNL     1       1.827  -4.503   1.679  0.00  0.00    +0.000 A 
ATOM     27  C   UNL     1       1.534  -3.645   2.723  0.00  0.00    +0.004 A 
ATOM     28  C   UNL     1       1.501  -2.280   2.507  0.00  0.00    -0.037 A 
ENDBRANCH  19  28
ENDBRANCH  18  19
ENDBRANCH   1  18
TORSDOF 4
