REMARK  Name = ZINC65886374
REMARK  5 active torsions:
REMARK  status: ('A' for Active; 'I' for Inactive)
REMARK    1  A    between atoms: C_5  and  S_7
REMARK    2  A    between atoms: S_7  and  O_10
REMARK    3  A    between atoms: O_10  and  C_11
REMARK    4  A    between atoms: C_14  and  C_20
REMARK    5  A    between atoms: C_16  and  N_17
REMARK                            x       y       z     vdW  Elec       q    Type
REMARK                         _______ _______ _______ _____ _____    ______ ____
ROOT
ATOM      1  O   UNL     1      -0.019  -3.008   0.631  0.00  0.00    -0.340 OA
ENDROOT
BRANCH   1   2
ATOM      2  C   UNL     1      -1.123  -2.967  -0.160  0.00  0.00    +0.187 A 
ATOM      3  C   UNL     1      -1.894  -1.812  -0.213  0.00  0.00    +0.052 A 
ATOM      4  C   UNL     1      -3.014  -1.766  -1.014  0.00  0.00    +0.022 A 
ATOM      5  C   UNL     1      -3.374  -2.883  -1.773  0.00  0.00    +0.054 A 
ATOM      6  C   UNL     1      -2.595  -4.042  -1.716  0.00  0.00    +0.055 A 
ATOM      7  C   UNL     1      -1.474  -4.078  -0.917  0.00  0.00    +0.172 A 
BRANCH   7   8
ATOM      8  N   UNL     1      -0.646  -5.303  -0.860  0.00  0.00    +0.060 N 
ATOM      9  O   UNL     1      -0.951  -6.270  -1.519  0.00  0.00    -0.126 OA
ATOM     10  O   UNL     1       0.336  -5.337  -0.155  0.00  0.00    -0.126 OA
ENDBRANCH   7   8
BRANCH   5  11
ATOM     11  C   UNL     1      -4.538  -2.840  -2.606  0.00  0.00    +0.099 C 
ATOM     12  N   UNL     1      -5.461  -2.806  -3.267  0.00  0.00    -0.191 NA
ENDBRANCH   5  11
ENDBRANCH   1   2
BRANCH   1  13
ATOM     13  S   UNL     1       1.228  -2.423  -0.016  0.00  0.00    +0.152 S 
ATOM     14  O   UNL     1       1.200  -1.025   0.239  0.00  0.00    -0.131 OA
ATOM     15  O   UNL     1       1.291  -2.956  -1.332  0.00  0.00    -0.131 OA
BRANCH  13  20
ATOM     16  C   UNL     1       3.540  -4.127   2.793  0.00  0.00    +0.002 A 
ATOM     17  C   UNL     1       4.799  -4.076   2.222  0.00  0.00    +0.001 A 
ATOM     18  C   UNL     1       4.967  -3.521   0.968  0.00  0.00    +0.017 A 
ATOM     19  C   UNL     1       3.876  -3.016   0.284  0.00  0.00    +0.046 A 
ATOM     20  C   UNL     1       2.617  -3.067   0.855  0.00  0.00    +0.142 A 
ATOM     21  C   UNL     1       2.450  -3.623   2.109  0.00  0.00    +0.031 A 
ATOM     22 BR   UNL     1       4.106  -2.255  -1.432  0.00  0.00    -0.048 Br
ENDBRANCH  13  20
ENDBRANCH   1  13
TORSDOF 5
