REMARK  Name = ZINC35361536
REMARK  9 active torsions:
REMARK  status: ('A' for Active; 'I' for Inactive)
REMARK    1  A    between atoms: C_1  and  C_2
REMARK    2  A    between atoms: C_2  and  C_3
REMARK    3  A    between atoms: C_3  and  C_4
REMARK    4  A    between atoms: C_4  and  N_5
REMARK    5  A    between atoms: C_6  and  C_24
REMARK    6  A    between atoms: N_16  and  C_17
REMARK    7  A    between atoms: C_17  and  C_18
REMARK    8  A    between atoms: C_24  and  N_25
REMARK    9  A    between atoms: C_34  and  C_36
REMARK                            x       y       z     vdW  Elec       q    Type
REMARK                         _______ _______ _______ _____ _____    ______ ____
ROOT
ATOM      1  N   UNL     1      -5.057  -1.648   2.215  0.00  0.00    -0.321 N 
ATOM      2  C   UNL     1      -5.018  -2.301   3.393  0.00  0.00    +0.127 A 
ATOM      3  N   UNL     1      -6.202  -2.782   3.670  0.00  0.00    -0.213 NA
ATOM      4  C   UNL     1      -7.058  -2.468   2.695  0.00  0.00    +0.169 A 
ATOM      5  C   UNL     1      -6.353  -1.735   1.748  0.00  0.00    +0.152 A 
ATOM      6  C   UNL     1      -7.027  -1.265   0.600  0.00  0.00    +0.280 A 
ATOM      7  O   UNL     1      -6.429  -0.623  -0.245  0.00  0.00    -0.265 OA
ATOM      8  N   UNL     1      -8.340  -1.536   0.450  0.00  0.00    -0.273 N 
ATOM      9  H   UNL     1      -8.807  -1.216  -0.338  0.00  0.00    +0.173 HD
ATOM     10  C   UNL     1      -9.011  -2.244   1.375  0.00  0.00    +0.331 A 
ATOM     11  O   UNL     1     -10.194  -2.469   1.206  0.00  0.00    -0.246 OA
ATOM     12  N   UNL     1      -8.404  -2.717   2.480  0.00  0.00    -0.272 N 
ENDROOT
BRANCH   1  13
ATOM     13  C   UNL     1      -3.937  -0.970   1.556  0.00  0.00    +0.124 C 
BRANCH  13  14
ATOM     14  C   UNL     1      -3.948   0.513   1.931  0.00  0.00    +0.021 C 
BRANCH  14  16
ATOM     15  C   UNL     1      -2.786   2.702   1.611  0.00  0.00    +0.004 C 
ATOM     16  C   UNL     1      -2.855   1.245   1.149  0.00  0.00    -0.002 C 
ENDBRANCH  14  16
ENDBRANCH  13  14
ENDBRANCH   1  13
BRANCH  12  17
ATOM     17  C   UNL     1      -9.172  -3.482   3.465  0.00  0.00    +0.163 C 
BRANCH  17  18
ATOM     18  C   UNL     1      -9.766  -2.541   4.481  0.00  0.00    -0.028 A 
ATOM     19  C   UNL     1      -9.056  -2.217   5.622  0.00  0.00    +0.005 A 
ATOM     20  C   UNL     1      -9.600  -1.354   6.554  0.00  0.00    +0.000 A 
ATOM     21  C   UNL     1     -10.855  -0.814   6.345  0.00  0.00    +0.000 A 
ATOM     22  C   UNL     1     -11.566  -1.137   5.204  0.00  0.00    +0.000 A 
ATOM     23  C   UNL     1     -11.019  -1.997   4.270  0.00  0.00    +0.005 A 
ENDBRANCH  17  18
ENDBRANCH  12  17
BRANCH   2  24
ATOM     24  C   UNL     1      -3.794  -2.454   4.259  0.00  0.00    +0.160 C 
BRANCH  24  25
ATOM     25  N   UNL     1      -3.007  -3.604   3.796  0.00  0.00    -0.280 NA
ATOM     26  C   UNL     1      -3.778  -4.847   3.905  0.00  0.00    +0.121 C 
ATOM     27  C   UNL     1      -2.929  -6.030   3.520  0.00  0.00    -0.030 A 
ATOM     28  C   UNL     1      -3.562  -7.222   3.202  0.00  0.00    +0.005 A 
ATOM     29  C   UNL     1      -2.823  -8.333   2.848  0.00  0.00    +0.000 A 
ATOM     30  C   UNL     1      -1.443  -8.258   2.809  0.00  0.00    +0.000 A 
ATOM     31  C   UNL     1      -0.811  -7.071   3.123  0.00  0.00    +0.004 A 
ATOM     32  C   UNL     1      -1.553  -5.954   3.477  0.00  0.00    -0.041 A 
ATOM     33  C   UNL     1      -0.820  -4.678   3.801  0.00  0.00    +0.063 C 
ATOM     34  C   UNL     1      -1.748  -3.719   4.549  0.00  0.00    +0.148 C 
BRANCH  34  35
ATOM     35  C   UNL     1      -1.096  -2.365   4.656  0.00  0.00    +0.228 C 
ATOM     36  O   UNL     1      -1.177  -1.579   3.735  0.00  0.00    -0.274 OA
ATOM     37  N   UNL     1      -0.424  -2.026   5.774  0.00  0.00    -0.328 N 
ATOM     38  H   UNL     1      -0.359  -2.655   6.510  0.00  0.00    +0.145 HD
ATOM     39  H   UNL     1      -0.004  -1.154   5.842  0.00  0.00    +0.145 HD
ENDBRANCH  34  35
ENDBRANCH  24  25
ENDBRANCH   2  24
TORSDOF 8
