REMARK  Name = ZINC23379424
REMARK  5 active torsions:
REMARK  status: ('A' for Active; 'I' for Inactive)
REMARK    1  A    between atoms: C_6  and  C_11
REMARK    2  A    between atoms: C_20  and  C_28
REMARK    3  A    between atoms: C_21  and  N_27
REMARK    4  A    between atoms: C_22  and  C_23
REMARK    5  A    between atoms: C_22  and  C_25
REMARK                            x       y       z     vdW  Elec       q    Type
REMARK                         _______ _______ _______ _____ _____    ______ ____
ROOT
ATOM      1  C   UNL     1      -2.489   0.965   0.019  0.00  0.00    +0.066 C 
ATOM      2  C   UNL     1      -3.363   1.419  -1.151  0.00  0.00    +0.030 C 
ATOM      3  C   UNL     1      -2.601   1.445  -2.454  0.00  0.00    +0.009 C 
ATOM      4  C   UNL     1      -2.893   0.215  -3.312  0.00  0.00    +0.005 C 
ATOM      5  C   UNL     1      -4.404   0.162  -3.582  0.00  0.00    +0.027 C 
ATOM      6  C   UNL     1      -5.104   0.027  -2.253  0.00  0.00    -0.022 C 
ATOM      7  C   UNL     1      -4.605   0.578  -1.164  0.00  0.00    -0.029 C 
ATOM      8  C   UNL     1      -5.288   0.368   0.139  0.00  0.00    +0.074 C 
ATOM      9  C   UNL     1      -4.629   0.663   1.288  0.00  0.00    +0.054 C 
ATOM     10  C   UNL     1      -3.238   1.220   1.328  0.00  0.00    +0.188 C 
ENDROOT
BRANCH   1  16
ATOM     11  C   UNL     1       3.537   3.284   0.198  0.00  0.00    +0.001 A 
ATOM     12  C   UNL     1       3.565   1.907   0.416  0.00  0.00    +0.001 A 
ATOM     13  C   UNL     1       2.418   1.176   0.430  0.00  0.00    +0.008 A 
ATOM     14  C   UNL     1       1.184   1.814   0.222  0.00  0.00    -0.018 A 
ATOM     15  C   UNL     1      -0.022   1.092   0.229  0.00  0.00    +0.012 A 
ATOM     16  C   UNL     1      -1.198   1.744   0.017  0.00  0.00    -0.040 A 
ATOM     17  C   UNL     1      -1.228   3.121  -0.195  0.00  0.00    +0.004 A 
ATOM     18  C   UNL     1      -0.080   3.853  -0.209  0.00  0.00    +0.009 A 
ATOM     19  C   UNL     1       1.154   3.214  -0.000  0.00  0.00    -0.018 A 
ATOM     20  C   UNL     1       2.360   3.936  -0.008  0.00  0.00    +0.008 A 
ENDBRANCH   1  16
BRANCH   9  21
ATOM     21  N   UNL     1      -5.269   0.439   2.475  0.00  0.00    -0.358 N 
ATOM     22  H   UNL     1      -4.762   0.667   3.424  0.00  0.00    +0.142 HD
ATOM     23  H   UNL     1      -6.290   0.030   2.481  0.00  0.00    +0.142 HD
ENDBRANCH   9  21
BRANCH  10  24
ATOM     24  C   UNL     1      -2.500   0.591   2.435  0.00  0.00    +0.091 C 
ATOM     25  N   UNL     1      -1.931   0.104   3.289  0.00  0.00    -0.194 NA
ENDBRANCH  10  24
BRANCH  10  26
ATOM     26  C   UNL     1      -3.311   2.671   1.564  0.00  0.00    +0.091 C 
ATOM     27  N   UNL     1      -3.367   3.791   1.747  0.00  0.00    -0.194 NA
ENDBRANCH  10  26
BRANCH   8  28
ATOM     28  C   UNL     1      -6.626  -0.140   0.182  0.00  0.00    +0.101 C 
ATOM     29  N   UNL     1      -7.688  -0.543   0.216  0.00  0.00    -0.191 NA
ENDBRANCH   8  28
TORSDOF 5
