REMARK  Name = ZINC66237854
REMARK  6 active torsions:
REMARK  status: ('A' for Active; 'I' for Inactive)
REMARK    1  A    between atoms: C_5  and  O_7
REMARK    2  A    between atoms: O_7  and  C_8
REMARK    3  A    between atoms: C_8  and  C_9
REMARK    4  A    between atoms: C_9  and  C_11
REMARK    5  A    between atoms: C_9  and  O_25
REMARK    6  A    between atoms: C_11  and  N_12
REMARK                            x       y       z     vdW  Elec       q    Type
REMARK                         _______ _______ _______ _____ _____    ______ ____
ROOT
ATOM      1  N   UNL     1      -0.941  -6.384  -0.150  0.00  0.00    -0.222 N 
ATOM      2  C   UNL     1      -0.740  -7.113  -1.268  0.00  0.00    +0.247 C 
ATOM      3  O   UNL     1      -0.704  -6.710  -2.411  0.00  0.00    -0.273 OA
ATOM      4  C   UNL     1      -0.570  -8.538  -0.794  0.00  0.00    +0.113 C 
ATOM      5  C   UNL     1      -1.595  -9.454  -1.398  0.00  0.00    +0.035 C 
ATOM      6  C   UNL     1      -2.051 -10.555  -0.416  0.00  0.00    +0.003 C 
ATOM      7  C   UNL     1      -0.883 -11.153   0.391  0.00  0.00    +0.000 C 
ATOM      8  C   UNL     1       0.343 -11.378  -0.452  0.00  0.00    +0.000 C 
ATOM      9  C   UNL     1       1.261 -10.148  -0.312  0.00  0.00    +0.003 C 
ATOM     10  C   UNL     1       0.841  -9.040  -1.160  0.00  0.00    +0.035 C 
ATOM     11  N   UNL     1      -0.703  -8.449   0.665  0.00  0.00    -0.285 N 
ATOM     12  C   UNL     1      -0.915  -7.149   0.948  0.00  0.00    +0.309 C 
ATOM     13  O   UNL     1      -1.068  -6.719   2.075  0.00  0.00    -0.252 OA
ATOM     14  H   UNL     1      -0.646  -9.180   1.299  0.00  0.00    +0.151 HD
ENDROOT
BRANCH   1  15
ATOM     15  C   UNL     1      -1.155  -4.935  -0.140  0.00  0.00    +0.152 C 
BRANCH  15  16
ATOM     16  C   UNL     1       0.194  -4.221  -0.024  0.00  0.00    +0.170 C 
BRANCH  16  17
ATOM     17  O   UNL     1       0.839  -4.616   1.189  0.00  0.00    -0.387 OA
ATOM     18  H   UNL     1       0.336  -4.408   1.988  0.00  0.00    +0.210 HD
ENDBRANCH  16  17
BRANCH  16  19
ATOM     19  C   UNL     1      -0.030  -2.708  -0.013  0.00  0.00    +0.262 C 
BRANCH  19  20
ATOM     20  O   UNL     1       1.233  -2.040  -0.022  0.00  0.00    -0.486 OA
BRANCH  20  25
ATOM     21  C   UNL     1      -0.017   1.378   0.010  0.00  0.00    +0.004 A 
ATOM     22  C   UNL     1       1.170   2.087   0.002  0.00  0.00    +0.003 A 
ATOM     23  C   UNL     1       2.379   1.417  -0.013  0.00  0.00    +0.042 A 
ATOM     24  C   UNL     1       2.404   0.034  -0.022  0.00  0.00    +0.165 A 
ATOM     25  C   UNL     1       1.212  -0.680  -0.014  0.00  0.00    +0.156 A 
ATOM     26  C   UNL     1       0.002  -0.004   0.002  0.00  0.00    +0.048 A 
ATOM     27  F   UNL     1       3.585  -0.622  -0.038  0.00  0.00    -0.202 F 
ENDBRANCH  20  25
ENDBRANCH  19  20
ENDBRANCH  16  19
ENDBRANCH  15  16
ENDBRANCH   1  15
TORSDOF 6
