REMARK  Name = ZINC23128958
REMARK  8 active torsions:
REMARK  status: ('A' for Active; 'I' for Inactive)
REMARK    1  A    between atoms: C_1  and  C_2
REMARK    2  A    between atoms: C_2  and  C_3
REMARK    3  A    between atoms: C_6  and  C_10
REMARK    4  A    between atoms: C_7  and  C_9
REMARK    5  A    between atoms: C_10  and  N_11
REMARK    6  A    between atoms: C_18  and  C_22
REMARK    7  A    between atoms: C_22  and  C_24
REMARK    8  A    between atoms: C_22  and  O_30
REMARK                            x       y       z     vdW  Elec       q    Type
REMARK                         _______ _______ _______ _____ _____    ______ ____
ROOT
ATOM      1  N   UNL     1       0.900  -3.034  -4.822  0.00  0.00    -0.289 NA
ATOM      2  C   UNL     1      -0.261  -3.579  -4.123  0.00  0.00    +0.126 C 
ATOM      3  C   UNL     1      -0.185  -5.074  -3.899  0.00  0.00    +0.244 C 
ATOM      4  O   UNL     1      -0.214  -5.777  -5.147  0.00  0.00    -0.490 OA
ATOM      5  C   UNL     1       0.993  -5.928  -5.759  0.00  0.00    +0.125 A 
ATOM      6  C   UNL     1       1.573  -7.184  -5.859  0.00  0.00    +0.046 A 
ATOM      7  C   UNL     1       2.809  -7.321  -6.462  0.00  0.00    +0.010 A 
ATOM      8  C   UNL     1       3.466  -6.212  -6.962  0.00  0.00    -0.018 A 
ATOM      9  C   UNL     1       2.883  -4.960  -6.871  0.00  0.00    +0.014 A 
ATOM     10  C   UNL     1       1.644  -4.825  -6.279  0.00  0.00    +0.009 A 
ATOM     11  C   UNL     1       0.971  -3.468  -6.222  0.00  0.00    +0.123 C 
ENDROOT
BRANCH   1  12
ATOM     12  C   UNL     1       0.932  -1.568  -4.723  0.00  0.00    +0.139 C 
BRANCH  12  16
ATOM     13  C   UNL     1       0.707  -0.490  -1.238  0.00  0.00    +0.084 A 
ATOM     14  N   UNL     1       0.121  -0.749  -2.427  0.00  0.00    -0.346 N 
ATOM     15  H   UNL     1      -0.821  -0.656  -2.636  0.00  0.00    +0.167 HD
ATOM     16  C   UNL     1       1.106  -1.166  -3.281  0.00  0.00    +0.051 A 
ATOM     17  C   UNL     1       2.259  -1.147  -2.586  0.00  0.00    +0.035 A 
ATOM     18  N   UNL     1       1.987  -0.725  -1.342  0.00  0.00    -0.347 N 
ATOM     19  C   UNL     1       3.618  -1.529  -3.114  0.00  0.00    +0.065 C 
ATOM     20  H   UNL     1       2.638  -0.615  -0.632  0.00  0.00    +0.167 HD
BRANCH  13  22
ATOM     21  C   UNL     1      -0.019   1.526   0.010  0.00  0.00    +0.012 C 
ATOM     22  C   UNL     1       0.002  -0.004   0.002  0.00  0.00    +0.069 C 
ENDBRANCH  13  22
ENDBRANCH  12  16
ENDBRANCH   1  12
BRANCH   8  23
ATOM     23  C   UNL     1       4.819  -6.366  -7.608  0.00  0.00    +0.148 C 
BRANCH  23  24
ATOM     24  C   UNL     1       5.894  -6.467  -6.523  0.00  0.00    +0.022 C 
ATOM     25  C   UNL     1       5.683  -7.748  -5.714  0.00  0.00    +0.006 C 
ATOM     26  C   UNL     1       6.757  -7.848  -4.629  0.00  0.00    +0.000 C 
ATOM     27  C   UNL     1       8.140  -7.880  -5.283  0.00  0.00    +0.000 C 
ATOM     28  C   UNL     1       8.351  -6.599  -6.093  0.00  0.00    +0.000 C 
ATOM     29  C   UNL     1       7.276  -6.498  -7.177  0.00  0.00    +0.006 C 
ENDBRANCH  23  24
BRANCH  23  30
ATOM     30  O   UNL     1       4.834  -7.553  -8.404  0.00  0.00    -0.387 OA
ATOM     31  H   UNL     1       4.661  -8.363  -7.906  0.00  0.00    +0.210 HD
ENDBRANCH  23  30
ENDBRANCH   8  23
TORSDOF 6
