REMARK  Name = ZINC35459226
REMARK  14 active torsions:
REMARK  status: ('A' for Active; 'I' for Inactive)
REMARK    1  A    between atoms: C_1  and  C_2
REMARK    2  A    between atoms: C_2  and  C_39
REMARK    3  A    between atoms: C_3  and  C_4
REMARK    4  A    between atoms: C_4  and  C_5
REMARK    5  A    between atoms: C_5  and  C_6
REMARK    6  A    between atoms: C_6  and  C_8
REMARK    7  A    between atoms: C_12  and  C_38
REMARK    8  A    between atoms: C_19  and  C_37
REMARK    9  A    between atoms: C_24  and  C_36
REMARK   10  A    between atoms: C_27  and  O_32
REMARK   11  A    between atoms: C_29  and  C_30
REMARK   12  A    between atoms: C_29  and  C_31
REMARK   13  A    between atoms: O_32  and  C_33
REMARK   14  A    between atoms: C_33  and  C_35
REMARK                            x       y       z     vdW  Elec       q    Type
REMARK                         _______ _______ _______ _____ _____    ______ ____
ROOT
ATOM      1  C   UNL     1      -0.326  -0.617   5.574  0.00  0.00    +0.018 C 
ATOM      2  C   UNL     1       1.196  -0.595   5.347  0.00  0.00    +0.009 C 
ATOM      3  C   UNL     1       1.759  -1.775   6.184  0.00  0.00    +0.008 C 
ATOM      4  C   UNL     1       0.603  -2.799   6.118  0.00  0.00    -0.023 C 
ATOM      5  C   UNL     1      -0.633  -1.924   6.357  0.00  0.00    +0.003 C 
ATOM      6  C   UNL     1      -0.701  -1.493   7.825  0.00  0.00    +0.005 C 
ATOM      7  C   UNL     1      -0.639  -2.702   8.747  0.00  0.00    +0.005 C 
ATOM      8  C   UNL     1       0.687  -3.452   8.554  0.00  0.00    +0.002 C 
ATOM      9  C   UNL     1       0.784  -3.934   7.116  0.00  0.00    -0.023 C 
ATOM     10  C   UNL     1      -0.222  -5.052   6.845  0.00  0.00    +0.008 C 
ATOM     11  C   UNL     1      -0.058  -6.187   7.867  0.00  0.00    +0.005 C 
ATOM     12  C   UNL     1      -0.318  -5.623   9.260  0.00  0.00    +0.004 C 
ATOM     13  C   UNL     1       0.724  -4.572   9.604  0.00  0.00    -0.025 C 
ATOM     14  C   UNL     1       0.351  -3.974  10.974  0.00  0.00    +0.011 C 
ATOM     15  C   UNL     1       0.392  -5.081  12.027  0.00  0.00    +0.046 C 
ATOM     16  C   UNL     1      -0.656  -6.141  11.714  0.00  0.00    +0.182 C 
ATOM     17  C   UNL     1      -0.528  -6.703  10.300  0.00  0.00    +0.005 C 
ATOM     18  C   UNL     1       0.553  -7.782  10.261  0.00  0.00    +0.015 C 
ATOM     19  C   UNL     1      -1.875  -7.406   9.991  0.00  0.00    +0.015 C 
ATOM     20  C   UNL     1       2.136  -5.134   9.732  0.00  0.00    +0.012 C 
ATOM     21  C   UNL     1       2.188  -4.489   6.810  0.00  0.00    +0.012 C 
ATOM     22  C   UNL     1       0.571  -3.385   4.703  0.00  0.00    +0.012 C 
ENDROOT
BRANCH   1  23
ATOM     23  C   UNL     1      -1.074  -0.567   4.272  0.00  0.00    -0.073 C 
ATOM     24  C   UNL     1      -1.637  -1.651   3.799  0.00  0.00    +0.008 C 
BRANCH  23  25
ATOM     25  C   UNL     1      -1.177   0.730   3.511  0.00  0.00    +0.034 C 
BRANCH  25  26
ATOM     26  C   UNL     1      -2.358   1.542   4.045  0.00  0.00    +0.031 C 
BRANCH  26  29
ATOM     27  C   UNL     1      -4.699   2.410   2.735  0.00  0.00    +0.038 C 
ATOM     28  C   UNL     1      -3.459   3.265   2.711  0.00  0.00    -0.080 C 
ATOM     29  C   UNL     1      -2.390   2.888   3.368  0.00  0.00    -0.028 C 
ATOM     30  C   UNL     1      -3.448   4.555   1.931  0.00  0.00    +0.038 C 
ENDBRANCH  26  29
ENDBRANCH  25  26
ENDBRANCH  23  25
ENDBRANCH   1  23
BRANCH  16  31
ATOM     31  O   UNL     1      -0.533  -7.217  12.655  0.00  0.00    -0.461 OA
BRANCH  31  32
ATOM     32  C   UNL     1      -1.253  -7.125  13.783  0.00  0.00    +0.304 C 
ATOM     33  O   UNL     1      -1.964  -6.166  13.970  0.00  0.00    -0.251 OA
ATOM     34  C   UNL     1      -1.175  -8.218  14.818  0.00  0.00    +0.136 C 
ENDBRANCH  31  32
ENDBRANCH  16  31
TORSDOF 6
