REMARK  Name = ZINC64981520
REMARK  12 active torsions:
REMARK  status: ('A' for Active; 'I' for Inactive)
REMARK    1  A    between atoms: C_1  and  C_2
REMARK    2  A    between atoms: C_2  and  C_3
REMARK    3  A    between atoms: C_3  and  C_4
REMARK    4  A    between atoms: C_4  and  C_5
REMARK    5  A    between atoms: C_5  and  C_6
REMARK    6  A    between atoms: C_6  and  N_7
REMARK    7  A    between atoms: N_20  and  N_21
REMARK    8  A    between atoms: C_22  and  C_23
REMARK    9  A    between atoms: C_25  and  O_31
REMARK   10  A    between atoms: C_26  and  O_30
REMARK   11  A    between atoms: O_31  and  C_32
REMARK   12  A    between atoms: C_32  and  C_33
REMARK                            x       y       z     vdW  Elec       q    Type
REMARK                         _______ _______ _______ _____ _____    ______ ____
ROOT
ATOM      1  N   UNL     1      -4.202  -4.630   0.017  0.00  0.00    -0.323 N 
ATOM      2  C   UNL     1      -4.934  -4.905   1.161  0.00  0.00    +0.053 A 
ATOM      3  C   UNL     1      -4.632  -4.798   2.514  0.00  0.00    +0.026 A 
ATOM      4  C   UNL     1      -5.571  -5.149   3.461  0.00  0.00    +0.002 A 
ATOM      5  C   UNL     1      -6.821  -5.609   3.078  0.00  0.00    +0.001 A 
ATOM      6  C   UNL     1      -7.140  -5.721   1.742  0.00  0.00    +0.012 A 
ATOM      7  C   UNL     1      -6.201  -5.370   0.774  0.00  0.00    +0.029 A 
ATOM      8  C   UNL     1      -6.212  -5.369  -0.699  0.00  0.00    +0.138 A 
ATOM      9  C   UNL     1      -4.948  -4.895  -1.105  0.00  0.00    +0.166 A 
ATOM     10  N   UNL     1      -4.701  -4.791  -2.407  0.00  0.00    -0.192 NA
ATOM     11  C   UNL     1      -5.645  -5.131  -3.275  0.00  0.00    +0.256 A 
ATOM     12  N   UNL     1      -6.830  -5.572  -2.868  0.00  0.00    -0.111 NA
ATOM     13  N   UNL     1      -7.110  -5.697  -1.616  0.00  0.00    -0.142 NA
ATOM     14  N   UNL     1      -5.390  -5.023  -4.631  0.00  0.00    -0.204 N 
ATOM     15  H   UNL     1      -4.528  -4.702  -4.939  0.00  0.00    +0.177 HD
ENDROOT
BRANCH  14  16
ATOM     16  N   UNL     1      -6.377  -5.378  -5.560  0.00  0.00    -0.187 NA
ATOM     17  C   UNL     1      -6.138  -5.277  -6.832  0.00  0.00    +0.138 C 
BRANCH  17  18
ATOM     18  C   UNL     1      -7.177  -5.651  -7.809  0.00  0.00    -0.001 A 
ATOM     19  C   UNL     1      -6.919  -5.548  -9.179  0.00  0.00    +0.059 A 
ATOM     20  C   UNL     1      -7.896  -5.900 -10.091  0.00  0.00    +0.163 A 
ATOM     21  C   UNL     1      -9.135  -6.355  -9.645  0.00  0.00    +0.173 A 
ATOM     22  C   UNL     1      -9.392  -6.457  -8.285  0.00  0.00    +0.063 A 
ATOM     23  C   UNL     1      -8.419  -6.113  -7.368  0.00  0.00    +0.028 A 
ATOM     24 BR   UNL     1     -11.075  -7.075  -7.687  0.00  0.00    -0.046 Br
BRANCH  21  25
ATOM     25  O   UNL     1     -10.095  -6.700 -10.544  0.00  0.00    -0.503 OA
ATOM     26  H   UNL     1     -10.069  -7.630 -10.809  0.00  0.00    +0.292 HD
ENDBRANCH  21  25
BRANCH  20  27
ATOM     27  O   UNL     1      -7.648  -5.801 -11.425  0.00  0.00    -0.489 OA
BRANCH  27  28
ATOM     28  C   UNL     1      -6.357  -5.326 -11.811  0.00  0.00    +0.226 C 
ATOM     29  C   UNL     1      -6.266  -5.283 -13.338  0.00  0.00    +0.048 C 
ENDBRANCH  27  28
ENDBRANCH  20  27
ENDBRANCH  17  18
ENDBRANCH  14  16
BRANCH   1  30
ATOM     30  C   UNL     1      -2.827  -4.123   0.007  0.00  0.00    +0.124 C 
BRANCH  30  31
ATOM     31  C   UNL     1      -2.848  -2.593   0.015  0.00  0.00    +0.022 C 
BRANCH  31  32
ATOM     32  C   UNL     1      -1.413  -2.063   0.004  0.00  0.00    +0.002 C 
BRANCH  32  33
ATOM     33  C   UNL     1      -1.433  -0.534   0.013  0.00  0.00    -0.000 C 
BRANCH  33  35
ATOM     34  C   UNL     1      -0.019   1.526   0.010  0.00  0.00    +0.004 C 
ATOM     35  C   UNL     1       0.002  -0.004   0.002  0.00  0.00    -0.003 C 
ENDBRANCH  33  35
ENDBRANCH  32  33
ENDBRANCH  31  32
ENDBRANCH  30  31
ENDBRANCH   1  30
TORSDOF 10
