REMARK  Name = ZINC40388665
REMARK  6 active torsions:
REMARK  status: ('A' for Active; 'I' for Inactive)
REMARK    1  A    between atoms: C_1  and  C_2
REMARK    2  A    between atoms: C_4  and  C_35
REMARK    3  A    between atoms: C_6  and  N_8
REMARK    4  A    between atoms: C_9  and  C_11
REMARK    5  A    between atoms: C_27  and  C_34
REMARK    6  A    between atoms: C_30  and  C_33
REMARK                            x       y       z     vdW  Elec       q    Type
REMARK                         _______ _______ _______ _____ _____    ______ ____
ROOT
ATOM      1  C   UNL     1       0.165  -3.058   4.763  0.00  0.00    +0.122 C 
ATOM      2  C   UNL     1       1.478  -3.842   4.758  0.00  0.00    +0.114 C 
ATOM      3  C   UNL     1       1.710  -4.449   6.117  0.00  0.00    +0.219 C 
ATOM      4  O   UNL     1       2.208  -5.551   6.205  0.00  0.00    -0.275 OA
ATOM      5  N   UNL     1       1.372  -3.781   7.233  0.00  0.00    -0.270 N 
ATOM      6  C   UNL     1       0.707  -2.569   7.163  0.00  0.00    +0.138 A 
ATOM      7  C   UNL     1       0.114  -2.171   5.978  0.00  0.00    +0.069 A 
ATOM      8  C   UNL     1      -0.534  -0.932   5.924  0.00  0.00    +0.258 A 
ATOM      9  O   UNL     1      -1.058  -0.548   4.891  0.00  0.00    -0.267 OA
ATOM     10  N   UNL     1      -0.570  -0.171   7.039  0.00  0.00    -0.295 N 
ATOM     11  H   UNL     1      -1.001   0.697   7.020  0.00  0.00    +0.172 HD
ATOM     12  C   UNL     1      -0.001  -0.623   8.190  0.00  0.00    +0.200 A 
ATOM     13  N   UNL     1       0.611  -1.787   8.244  0.00  0.00    -0.200 NA
ATOM     14  N   UNL     1      -0.067   0.151   9.318  0.00  0.00    -0.301 N 
ATOM     15  C   UNL     1       0.430  -0.356  10.604  0.00  0.00    +0.111 C 
ATOM     16  C   UNL     1       1.432   0.651  11.177  0.00  0.00    +0.004 C 
ATOM     17  C   UNL     1       0.774   2.030  11.257  0.00  0.00    +0.009 C 
ATOM     18  C   UNL     1       0.376   2.490   9.852  0.00  0.00    +0.004 C 
ATOM     19  C   UNL     1      -0.632   1.506   9.264  0.00  0.00    +0.111 C 
ATOM     20  C   UNL     1      -0.251   3.884   9.930  0.00  0.00    +0.009 C 
ATOM     21  C   UNL     1       2.660   0.723  10.267  0.00  0.00    +0.009 C 
ATOM     22  H   UNL     1       1.597  -4.153   8.100  0.00  0.00    +0.156 HD
ENDROOT
BRANCH   1  24
ATOM     23  N   UNL     1      -0.993  -2.306   2.711  0.00  0.00    -0.285 N 
ATOM     24  C   UNL     1       0.081  -2.211   3.519  0.00  0.00    +0.225 C 
ATOM     25  O   UNL     1       0.980  -1.444   3.246  0.00  0.00    -0.275 OA
ATOM     26  H   UNL     1      -1.745  -2.862   2.967  0.00  0.00    +0.155 HD
BRANCH  23  32
ATOM     27  C   UNL     1      -3.559   0.114  -0.715  0.00  0.00    +0.044 C 
ATOM     28  C   UNL     1      -2.253  -0.418  -0.182  0.00  0.00    -0.048 A 
ATOM     29  C   UNL     1      -1.083  -0.210  -0.889  0.00  0.00    +0.006 A 
ATOM     30  C   UNL     1       0.117  -0.696  -0.403  0.00  0.00    -0.048 A 
ATOM     31  C   UNL     1       0.150  -1.391   0.790  0.00  0.00    +0.026 A 
ATOM     32  C   UNL     1      -1.023  -1.602   1.502  0.00  0.00    +0.034 A 
ATOM     33  C   UNL     1      -2.226  -1.108   1.014  0.00  0.00    +0.026 A 
ATOM     34  C   UNL     1       1.390  -0.467  -1.177  0.00  0.00    +0.044 C 
ENDBRANCH  23  32
ENDBRANCH   1  24
TORSDOF 2
