REMARK  Name = ZINC22019260
REMARK  10 active torsions:
REMARK  status: ('A' for Active; 'I' for Inactive)
REMARK    1  A    between atoms: C_1  and  C_2
REMARK    2  A    between atoms: C_2  and  C_3
REMARK    3  A    between atoms: C_2  and  C_4
REMARK    4  A    between atoms: C_4  and  C_5
REMARK    5  A    between atoms: C_5  and  C_7
REMARK    6  A    between atoms: C_5  and  N_26
REMARK    7  A    between atoms: C_7  and  O_9
REMARK    8  A    between atoms: O_9  and  C_10
REMARK    9  A    between atoms: C_10  and  C_11
REMARK   10  A    between atoms: N_17  and  C_18
REMARK                            x       y       z     vdW  Elec       q    Type
REMARK                         _______ _______ _______ _____ _____    ______ ____
ROOT
ATOM      1  O   UNL     1       3.363  -2.875  -0.667  0.00  0.00    -0.455 OA
ENDROOT
BRANCH   1   2
ATOM      2  C   UNL     1       4.492  -3.521  -0.999  0.00  0.00    +0.329 C 
ATOM      3  O   UNL     1       5.268  -3.862  -0.138  0.00  0.00    -0.249 OA
BRANCH   2   4
ATOM      4  C   UNL     1       4.792  -3.820  -2.445  0.00  0.00    +0.193 C 
BRANCH   4   5
ATOM      5  N   UNL     1       6.072  -4.525  -2.542  0.00  0.00    -0.228 N 
ATOM      6  C   UNL     1       6.291  -5.750  -1.997  0.00  0.00    +0.227 C 
ATOM      7  O   UNL     1       5.455  -6.511  -1.558  0.00  0.00    -0.275 OA
ATOM      8  C   UNL     1       7.770  -5.976  -2.050  0.00  0.00    +0.091 C 
ATOM      9  C   UNL     1       8.277  -7.379  -2.310  0.00  0.00    +0.040 C 
ATOM     10  C   UNL     1       9.747  -7.259  -2.653  0.00  0.00    -0.030 C 
ATOM     11  C   UNL     1      10.324  -6.159  -3.031  0.00  0.00    -0.030 C 
ATOM     12  C   UNL     1       9.609  -4.836  -3.210  0.00  0.00    +0.040 C 
ATOM     13  C   UNL     1       8.131  -5.146  -3.321  0.00  0.00    +0.091 C 
ATOM     14  C   UNL     1       7.157  -4.016  -3.182  0.00  0.00    +0.227 C 
ATOM     15  O   UNL     1       7.307  -2.875  -3.564  0.00  0.00    -0.275 OA
ENDBRANCH   4   5
BRANCH   4  16
ATOM     16  C   UNL     1       3.681  -4.696  -3.026  0.00  0.00    +0.037 C 
BRANCH  16  18
ATOM     17  C   UNL     1       2.914  -5.923  -5.062  0.00  0.00    +0.007 C 
ATOM     18  C   UNL     1       3.943  -4.933  -4.514  0.00  0.00    -0.015 C 
ATOM     19  C   UNL     1       3.827  -3.607  -5.269  0.00  0.00    +0.007 C 
ENDBRANCH  16  18
ENDBRANCH   4  16
ENDBRANCH   2   4
ENDBRANCH   1   2
BRANCH   1  20
ATOM     20  C   UNL     1       3.139  -2.621   0.745  0.00  0.00    +0.308 C 
BRANCH  20  21
ATOM     21  C   UNL     1       1.832  -1.893   0.924  0.00  0.00    +0.173 A 
ATOM     22  N   UNL     1       0.715  -2.578   1.096  0.00  0.00    -0.196 NA
ATOM     23  C   UNL     1      -0.442  -1.938   1.254  0.00  0.00    +0.217 A 
ATOM     24  N   UNL     1      -0.472  -0.610   1.239  0.00  0.00    -0.181 NA
ATOM     25  C   UNL     1       0.653   0.075   1.066  0.00  0.00    +0.224 A 
ATOM     26  N   UNL     1       1.805  -0.572   0.903  0.00  0.00    -0.196 NA
ATOM     27  N   UNL     1       0.627   1.456   1.050  0.00  0.00    -0.284 N 
ATOM     28  N   UNL     1      -1.608  -2.654   1.434  0.00  0.00    -0.327 N 
ATOM     29  H   UNL     1       1.568   2.023   0.997  0.00  0.00    +0.155 HD
ATOM     30  H   UNL     1      -2.563  -2.124   1.565  0.00  0.00    +0.145 HD
ATOM     31  H   UNL     1      -1.582  -3.753   1.447  0.00  0.00    +0.145 HD
BRANCH  27  32
ATOM     32  C   UNL     1      -0.596   2.133   1.101  0.00  0.00    +0.034 A 
ATOM     33  C   UNL     1      -1.723   1.580   0.507  0.00  0.00    +0.025 A 
ATOM     34  C   UNL     1      -2.930   2.248   0.563  0.00  0.00    +0.022 A 
ATOM     35  C   UNL     1      -3.015   3.473   1.202  0.00  0.00    +0.041 A 
ATOM     36  C   UNL     1      -1.893   4.029   1.791  0.00  0.00    +0.022 A 
ATOM     37  C   UNL     1      -0.684   3.362   1.742  0.00  0.00    +0.025 A 
ATOM     38 CL   UNL     1      -4.533   4.313   1.266  0.00  0.00    -0.084 Cl
ENDBRANCH  27  32
ENDBRANCH  20  21
ENDBRANCH   1  20
TORSDOF 8
