REMARK  Name = ZINC17197854
REMARK  5 active torsions:
REMARK  status: ('A' for Active; 'I' for Inactive)
REMARK    1  A    between atoms: C_1  and  C_2
REMARK    2  A    between atoms: C_2  and  O_3
REMARK    3  A    between atoms: O_3  and  C_4
REMARK    4  A    between atoms: C_9  and  N_10
REMARK    5  A    between atoms: C_13  and  C_20
REMARK                            x       y       z     vdW  Elec       q    Type
REMARK                         _______ _______ _______ _____ _____    ______ ____
ROOT
ATOM      1  N   UNL     1      -3.904  -1.564   0.031  0.00  0.00    -0.225 N 
ATOM      2  C   UNL     1      -4.455  -1.164  -1.132  0.00  0.00    +0.267 A 
ATOM      3  O   UNL     1      -3.979  -1.526  -2.194  0.00  0.00    -0.267 OA
ATOM      4  C   UNL     1      -5.584  -0.326  -1.111  0.00  0.00    +0.073 A 
ATOM      5  C   UNL     1      -6.098   0.064   0.090  0.00  0.00    +0.260 A 
ATOM      6  N   UNL     1      -5.505  -0.367   1.250  0.00  0.00    -0.274 N 
ATOM      7  H   UNL     1      -5.867  -0.092   2.106  0.00  0.00    +0.173 HD
ATOM      8  C   UNL     1      -4.429  -1.173   1.206  0.00  0.00    +0.337 A 
ATOM      9  O   UNL     1      -3.920  -1.549   2.245  0.00  0.00    -0.246 OA
ATOM     10  O   UNL     1      -7.181   0.869   0.137  0.00  0.00    -0.267 OA
ENDROOT
BRANCH   4  11
ATOM     11  C   UNL     1      -6.217   0.134  -2.399  0.00  0.00    +0.018 C 
ATOM     12  C   UNL     1      -5.247   1.010  -3.156  0.00  0.00    +0.011 A 
ATOM     13  C   UNL     1      -5.060   0.915  -4.493  0.00  0.00    -0.022 A 
ATOM     14  C   UNL     1      -4.066   1.899  -4.856  0.00  0.00    +0.003 A 
ATOM     15  C   UNL     1      -3.480   2.255  -6.075  0.00  0.00    +0.010 A 
ATOM     16  C   UNL     1      -2.546   3.260  -6.046  0.00  0.00    +0.001 A 
ATOM     17  C   UNL     1      -2.191   3.901  -4.870  0.00  0.00    +0.002 A 
ATOM     18  C   UNL     1      -2.754   3.571  -3.650  0.00  0.00    +0.026 A 
ATOM     19  C   UNL     1      -3.706   2.553  -3.649  0.00  0.00    +0.047 A 
ATOM     20  N   UNL     1      -4.441   1.990  -2.645  0.00  0.00    -0.359 N 
ATOM     21  H   UNL     1      -4.397   2.246  -1.710  0.00  0.00    +0.166 HD
ATOM     22  C   UNL     1      -5.803  -0.067  -5.363  0.00  0.00    +0.018 C 
ATOM     23  C   UNL     1      -7.000  -0.595  -4.559  0.00  0.00    -0.076 C 
ATOM     24  N   UNL     1      -6.549  -1.033  -3.231  0.00  0.00    +0.388 N 
ATOM     25  H   UNL     1      -5.731  -1.615  -3.333  0.00  0.00    -0.084 HD
ATOM     26  H   UNL     1      -7.282  -1.564  -2.785  0.00  0.00    -0.084 HD
ENDBRANCH   4  11
BRANCH   1  32
ATOM     27  C   UNL     1      -1.498  -1.849   0.006  0.00  0.00    +0.144 A 
ATOM     28  C   UNL     1      -0.389  -2.679  -0.003  0.00  0.00    +0.048 A 
ATOM     29  C   UNL     1      -0.553  -4.052  -0.009  0.00  0.00    +0.004 A 
ATOM     30  C   UNL     1      -1.823  -4.600  -0.006  0.00  0.00    +0.002 A 
ATOM     31  C   UNL     1      -2.934  -3.779   0.004  0.00  0.00    +0.030 A 
ATOM     32  C   UNL     1      -2.777  -2.401   0.016  0.00  0.00    +0.096 A 
BRANCH  27  33
ATOM     33  O   UNL     1      -1.339  -0.499   0.012  0.00  0.00    -0.490 OA
BRANCH  33  35
ATOM     34  C   UNL     1      -0.019   1.526   0.010  0.00  0.00    +0.048 C 
ATOM     35  C   UNL     1       0.002  -0.004   0.002  0.00  0.00    +0.226 C 
ENDBRANCH  33  35
ENDBRANCH  27  33
ENDBRANCH   1  32
TORSDOF 4
