REMARK  Name = ZINC65462247
REMARK  7 active torsions:
REMARK  status: ('A' for Active; 'I' for Inactive)
REMARK    1  A    between atoms: C_1  and  C_2
REMARK    2  A    between atoms: C_3  and  C_25
REMARK    3  A    between atoms: C_7  and  N_14
REMARK    4  A    between atoms: C_9  and  C_11
REMARK    5  A    between atoms: C_11  and  C_12
REMARK    6  A    between atoms: C_12  and  N_13
REMARK    7  A    between atoms: C_22  and  O_24
REMARK                            x       y       z     vdW  Elec       q    Type
REMARK                         _______ _______ _______ _____ _____    ______ ____
ROOT
ATOM      1  C   UNL     1       0.064   1.504   0.004  0.00  0.00    +0.045 C 
ATOM      2  C   UNL     1       0.076  -0.003  -0.004  0.00  0.00    -0.028 A 
ATOM      3  C   UNL     1       0.008  -0.676  -1.162  0.00  0.00    -0.008 A 
ATOM      4  S   UNL     1       0.055  -2.385  -0.654  0.00  0.00    -0.074 S 
ATOM      5  C   UNL     1       0.165  -2.149   1.100  0.00  0.00    +0.114 A 
ATOM      6  C   UNL     1       0.168  -0.744   1.242  0.00  0.00    +0.051 A 
ATOM      7  C   UNL     1       0.255  -0.267   2.579  0.00  0.00    +0.134 A 
ATOM      8  N   UNL     1       0.331  -1.139   3.571  0.00  0.00    -0.217 NA
ATOM      9  C   UNL     1       0.328  -2.443   3.363  0.00  0.00    +0.131 A 
ATOM     10  N   UNL     1       0.239  -2.946   2.147  0.00  0.00    -0.225 NA
ATOM     11  C   UNL     1      -0.087  -0.121  -2.560  0.00  0.00    +0.052 C 
ENDROOT
BRANCH   7  12
ATOM     12  N   UNL     1       0.262   1.092   2.839  0.00  0.00    -0.308 N 
ATOM     13  C   UNL     1      -0.878   1.957   3.228  0.00  0.00    +0.078 C 
ATOM     14  C   UNL     1      -0.674   3.249   2.405  0.00  0.00    +0.024 C 
ATOM     15  C   UNL     1       0.841   3.297   2.117  0.00  0.00    +0.024 C 
ATOM     16  C   UNL     1       1.412   2.028   2.800  0.00  0.00    +0.078 C 
ATOM     17  C   UNL     1       1.757   2.387   4.254  0.00  0.00    +0.053 C 
ATOM     18  C   UNL     1       0.574   3.138   4.873  0.00  0.00    +0.118 C 
ATOM     19  C   UNL     1      -0.704   2.298   4.717  0.00  0.00    +0.053 C 
BRANCH  18  20
ATOM     20  O   UNL     1       0.415   4.397   4.218  0.00  0.00    -0.392 OA
ATOM     21  H   UNL     1      -0.317   4.929   4.559  0.00  0.00    +0.210 HD
ENDBRANCH  18  20
ENDBRANCH   7  12
BRANCH   9  22
ATOM     22  C   UNL     1       0.416  -3.378   4.542  0.00  0.00    +0.057 C 
BRANCH  22  23
ATOM     23  C   UNL     1      -0.993  -3.707   5.039  0.00  0.00    -0.079 C 
BRANCH  23  24
ATOM     24  N   UNL     1      -0.906  -4.617   6.189  0.00  0.00    +0.378 N 
ATOM     25  H   UNL     1      -0.441  -5.468   5.909  0.00  0.00    -0.090 HD
ATOM     26  H   UNL     1      -0.383  -4.176   6.929  0.00  0.00    -0.090 HD
ATOM     27  H   UNL     1      -1.836  -4.834   6.517  0.00  0.00    -0.090 HD
ENDBRANCH  23  24
ENDBRANCH  22  23
ENDBRANCH   9  22
TORSDOF 5
