REMARK  Name = ZINC27042746
REMARK  7 active torsions:
REMARK  status: ('A' for Active; 'I' for Inactive)
REMARK    1  A    between atoms: C_1  and  C_2
REMARK    2  A    between atoms: C_2  and  N_3
REMARK    3  A    between atoms: N_3  and  C_4
REMARK    4  A    between atoms: C_4  and  C_5
REMARK    5  A    between atoms: C_9  and  N_11
REMARK    6  A    between atoms: C_12  and  C_14
REMARK    7  A    between atoms: C_28  and  C_30
REMARK                            x       y       z     vdW  Elec       q    Type
REMARK                         _______ _______ _______ _____ _____    ______ ____
ROOT
ATOM      1  N   UNL     1       0.268  -3.764   3.925  0.00  0.00    -0.281 N 
ATOM      2  C   UNL     1       0.278  -4.045   5.243  0.00  0.00    +0.250 C 
ATOM      3  O   UNL     1       0.621  -3.196   6.043  0.00  0.00    -0.270 OA
ATOM      4  H   UNL     1      -0.115  -4.505   3.207  0.00  0.00    +0.155 HD
ENDROOT
BRANCH   2   5
ATOM      5  C   UNL     1      -0.127  -5.383   5.715  0.00  0.00    +0.061 A 
ATOM      6  C   UNL     1      -0.527  -6.356   4.801  0.00  0.00    +0.015 A 
ATOM      7  C   UNL     1      -0.903  -7.614   5.237  0.00  0.00    +0.001 A 
ATOM      8  C   UNL     1      -0.900  -7.921   6.581  0.00  0.00    +0.010 A 
ATOM      9  C   UNL     1      -0.509  -6.962   7.517  0.00  0.00    +0.004 A 
ATOM     10  C   UNL     1      -0.118  -5.680   7.087  0.00  0.00    +0.059 A 
ATOM     11  N   UNL     1       0.209  -4.955   8.206  0.00  0.00    -0.357 N 
ATOM     12  H   UNL     1       0.545  -3.913   8.107  0.00  0.00    +0.166 HD
ATOM     13  C   UNL     1       0.044  -5.723   9.325  0.00  0.00    +0.020 A 
ATOM     14  C   UNL     1      -0.388  -6.948   8.972  0.00  0.00    -0.019 A 
ATOM     15  C   UNL     1      -0.678  -8.067   9.937  0.00  0.00    +0.037 C 
ATOM     16  C   UNL     1      -0.025  -7.729  11.283  0.00  0.00    +0.005 C 
ATOM     17  C   UNL     1      -0.405  -6.301  11.685  0.00  0.00    +0.006 C 
ATOM     18  C   UNL     1       0.295  -5.304  10.755  0.00  0.00    +0.053 C 
ENDBRANCH   2   5
BRANCH   1  23
ATOM     19  C   UNL     1       1.901  -1.232   1.818  0.00  0.00    -0.028 A 
ATOM     20  C   UNL     1       1.691  -0.091   2.571  0.00  0.00    +0.005 A 
ATOM     21  C   UNL     1       1.002  -0.165   3.767  0.00  0.00    +0.002 A 
ATOM     22  C   UNL     1       0.531  -1.382   4.220  0.00  0.00    +0.023 A 
ATOM     23  C   UNL     1       0.744  -2.531   3.469  0.00  0.00    +0.034 A 
ATOM     24  C   UNL     1       1.432  -2.452   2.265  0.00  0.00    +0.028 A 
BRANCH  19  25
ATOM     25  C   UNL     1       2.647  -1.146   0.511  0.00  0.00    +0.142 C 
BRANCH  25  26
ATOM     26  N   UNL     1       1.699  -0.888  -0.576  0.00  0.00    -0.298 N 
ATOM     27  C   UNL     1       1.116  -1.919  -1.220  0.00  0.00    +0.213 C 
ATOM     28  O   UNL     1       0.260  -1.707  -2.053  0.00  0.00    -0.276 OA
ATOM     29  C   UNL     1       1.524  -3.334  -0.901  0.00  0.00    +0.109 C 
BRANCH  26  31
ATOM     30  C   UNL     1       0.191   0.989  -0.147  0.00  0.00    +0.024 C 
ATOM     31  C   UNL     1       1.386   0.489  -0.963  0.00  0.00    +0.105 C 
ENDBRANCH  26  31
ENDBRANCH  25  26
ENDBRANCH  19  25
ENDBRANCH   1  23
TORSDOF 5
