REMARK  Name = ZINC08616663
REMARK  7 active torsions:
REMARK  status: ('A' for Active; 'I' for Inactive)
REMARK    1  A    between atoms: C_4  and  C_7
REMARK    2  A    between atoms: C_12  and  N_16
REMARK    3  A    between atoms: N_16  and  C_17
REMARK    4  A    between atoms: C_17  and  C_18
REMARK    5  A    between atoms: C_18  and  N_19
REMARK    6  A    between atoms: N_19  and  S_20
REMARK    7  A    between atoms: S_20  and  C_23
REMARK                            x       y       z     vdW  Elec       q    Type
REMARK                         _______ _______ _______ _____ _____    ______ ____
ROOT
ATOM      1  N   UNL     1       1.860   3.021  -2.334  0.00  0.00    -0.327 N 
ATOM      2  H   UNL     1       1.508   2.385  -1.692  0.00  0.00    +0.148 HD
ENDROOT
BRANCH   1   8
ATOM      3  C   UNL     1       3.436   2.561   0.239  0.00  0.00    +0.002 A 
ATOM      4  C   UNL     1       4.290   2.493   1.287  0.00  0.00    +0.056 A 
ATOM      5  S   UNL     1       5.671   3.491   0.765  0.00  0.00    -0.076 S 
ATOM      6  C   UNL     1       5.075   3.982  -0.832  0.00  0.00    +0.114 A 
ATOM      7  C   UNL     1       3.816   3.354  -0.925  0.00  0.00    +0.055 A 
ATOM      8  C   UNL     1       3.107   3.587  -2.134  0.00  0.00    +0.131 A 
ATOM      9  N   UNL     1       3.652   4.352  -3.066  0.00  0.00    -0.220 NA
ATOM     10  C   UNL     1       4.839   4.910  -2.911  0.00  0.00    +0.224 A 
ATOM     11  N   UNL     1       5.545   4.730  -1.811  0.00  0.00    -0.228 NA
BRANCH   3  15
ATOM     12  C   UNL     1      -0.288   0.515   0.342  0.00  0.00    +0.000 A 
ATOM     13  C   UNL     1      -0.263   1.893   0.221  0.00  0.00    +0.001 A 
ATOM     14  C   UNL     1       0.944   2.562   0.188  0.00  0.00    +0.008 A 
ATOM     15  C   UNL     1       2.138   1.848   0.275  0.00  0.00    -0.017 A 
ATOM     16  C   UNL     1       2.105   0.459   0.398  0.00  0.00    +0.008 A 
ATOM     17  C   UNL     1       0.893  -0.200   0.431  0.00  0.00    +0.001 A 
ENDBRANCH   3  15
ENDBRANCH   1   8
BRANCH   1  18
ATOM     18  C   UNL     1       1.074   3.381  -3.517  0.00  0.00    +0.120 C 
BRANCH  18  19
ATOM     19  C   UNL     1      -0.253   2.620  -3.497  0.00  0.00    +0.124 C 
BRANCH  19  20
ATOM     20  N   UNL     1      -1.040   2.980  -4.679  0.00  0.00    -0.188 NA
ATOM     21  H   UNL     1      -0.800   3.761  -5.202  0.00  0.00    +0.148 HD
BRANCH  20  22
ATOM     22  S   UNL     1      -2.339   2.054  -5.123  0.00  0.00    +0.058 S 
ATOM     23  O   UNL     1      -2.902   2.668  -6.275  0.00  0.00    -0.153 OA
ATOM     24  O   UNL     1      -1.896   0.704  -5.120  0.00  0.00    -0.153 OA
BRANCH  22  25
ATOM     25  C   UNL     1      -3.540   2.192  -3.841  0.00  0.00    +0.105 A 
ATOM     26  C   UNL     1      -3.531   1.299  -2.786  0.00  0.00    +0.030 A 
ATOM     27  C   UNL     1      -4.469   1.411  -1.777  0.00  0.00    +0.022 A 
ATOM     28  C   UNL     1      -5.424   2.410  -1.829  0.00  0.00    +0.041 A 
ATOM     29  C   UNL     1      -5.437   3.300  -2.888  0.00  0.00    +0.022 A 
ATOM     30  C   UNL     1      -4.495   3.191  -3.894  0.00  0.00    +0.030 A 
ATOM     31 CL   UNL     1      -6.607   2.547  -0.566  0.00  0.00    -0.084 Cl
ENDBRANCH  22  25
ENDBRANCH  20  22
ENDBRANCH  19  20
ENDBRANCH  18  19
ENDBRANCH   1  18
TORSDOF 7
