REMARK  Name = ZINC01916149
REMARK  12 active torsions:
REMARK  status: ('A' for Active; 'I' for Inactive)
REMARK    1  A    between atoms: C_1  and  C_2
REMARK    2  A    between atoms: C_2  and  N_62
REMARK    3  A    between atoms: C_3  and  C_4
REMARK    4  A    between atoms: C_3  and  N_62
REMARK    5  A    between atoms: C_10  and  C_11
REMARK    6  A    between atoms: C_10  and  N_62
REMARK    7  A    between atoms: C_12  and  O_35
REMARK    8  A    between atoms: C_18  and  C_31
REMARK    9  A    between atoms: C_19  and  O_22
REMARK   10  A    between atoms: O_22  and  C_23
REMARK   11  A    between atoms: C_25  and  C_30
REMARK   12  A    between atoms: C_28  and  C_29
REMARK                            x       y       z     vdW  Elec       q    Type
REMARK                         _______ _______ _______ _____ _____    ______ ____
ROOT
ATOM      1  C   UNL     1      -0.543   7.537  -2.958  0.00  0.00    +0.020 A 
ATOM      2  C   UNL     1      -1.841   7.577  -3.439  0.00  0.00    +0.122 A 
ATOM      3  C   UNL     1      -2.093   7.902  -4.771  0.00  0.00    +0.046 A 
ATOM      4  C   UNL     1      -1.062   8.187  -5.620  0.00  0.00    +0.019 A 
ATOM      5  C   UNL     1       0.252   8.151  -5.149  0.00  0.00    +0.068 A 
ATOM      6  C   UNL     1       0.515   7.829  -3.806  0.00  0.00    +0.144 A 
ATOM      7  O   UNL     1       1.789   7.792  -3.364  0.00  0.00    -0.447 OA
ATOM      8  C   UNL     1       2.833   8.063  -4.159  0.00  0.00    +0.254 A 
ATOM      9  C   UNL     1       2.694   8.388  -5.460  0.00  0.00    +0.222 A 
ATOM     10  C   UNL     1       1.392   8.451  -6.032  0.00  0.00    +0.235 A 
ATOM     11  O   UNL     1       1.227   8.742  -7.206  0.00  0.00    -0.283 OA
ENDROOT
BRANCH   8  12
ATOM     12  C   UNL     1       4.220   8.002  -3.574  0.00  0.00    +0.454 C 
ATOM     13  F   UNL     1       4.568   9.258  -3.066  0.00  0.00    -0.163 F 
ATOM     14  F   UNL     1       4.250   7.057  -2.543  0.00  0.00    -0.163 F 
ATOM     15  F   UNL     1       5.130   7.634  -4.571  0.00  0.00    -0.163 F 
ENDBRANCH   8  12
BRANCH   2  16
ATOM     16  O   UNL     1      -2.876   7.296  -2.608  0.00  0.00    -0.506 OA
ATOM     17  H   UNL     1      -3.231   8.068  -2.147  0.00  0.00    +0.292 HD
ENDBRANCH   2  16
BRANCH   1  18
ATOM     18  C   UNL     1      -0.282   7.184  -1.516  0.00  0.00    -0.035 C 
BRANCH  18  19
ATOM     19  N   UNL     1      -0.133   5.718  -1.403  0.00  0.00    +0.385 N 
ATOM     20  H   UNL     1      -0.939   5.266  -1.851  0.00  0.00    -0.081 HD
BRANCH  19  22
ATOM     21  C   UNL     1       1.028   3.772  -2.320  0.00  0.00    -0.017 C 
ATOM     22  C   UNL     1       1.103   5.282  -2.086  0.00  0.00    -0.081 C 
ENDBRANCH  19  22
BRANCH  19  23
ATOM     23  C   UNL     1      -0.090   5.323   0.021  0.00  0.00    -0.043 C 
BRANCH  23  24
ATOM     24  C   UNL     1      -1.494   5.346   0.570  0.00  0.00    -0.064 A 
ATOM     25  C   UNL     1      -2.325   4.256   0.388  0.00  0.00    +0.002 A 
ATOM     26  C   UNL     1      -3.612   4.277   0.893  0.00  0.00    +0.000 A 
ATOM     27  C   UNL     1      -4.067   5.387   1.578  0.00  0.00    +0.000 A 
ATOM     28  C   UNL     1      -3.238   6.479   1.755  0.00  0.00    +0.000 A 
ATOM     29  C   UNL     1      -1.950   6.456   1.255  0.00  0.00    +0.002 A 
ENDBRANCH  23  24
ENDBRANCH  19  23
ENDBRANCH  18  19
ENDBRANCH   1  18
BRANCH   9  30
ATOM     30  O   UNL     1       3.791   8.655  -6.220  0.00  0.00    -0.448 OA
BRANCH  30  31
ATOM     31  C   UNL     1       4.230   9.939  -6.278  0.00  0.00    +0.132 A 
ATOM     32  C   UNL     1       3.561  10.935  -5.580  0.00  0.00    +0.050 A 
ATOM     33  C   UNL     1       4.013  12.239  -5.636  0.00  0.00    -0.047 A 
ATOM     34  C   UNL     1       5.124  12.555  -6.397  0.00  0.00    +0.004 A 
ATOM     35  C   UNL     1       5.789  11.566  -7.098  0.00  0.00    +0.007 A 
ATOM     36  C   UNL     1       5.344  10.259  -7.040  0.00  0.00    -0.008 A 
ATOM     37  C   UNL     1       6.069   9.181  -7.806  0.00  0.00    +0.047 C 
ATOM     38  C   UNL     1       3.290  13.319  -4.874  0.00  0.00    +0.044 C 
ENDBRANCH  30  31
ENDBRANCH   9  30
TORSDOF 9
