REMARK  Name = ZINC57468972
REMARK  5 active torsions:
REMARK  status: ('A' for Active; 'I' for Inactive)
REMARK    1  A    between atoms: C_1  and  C_2
REMARK    2  A    between atoms: C_2  and  C_4
REMARK    3  A    between atoms: C_2  and  S_11
REMARK    4  A    between atoms: S_11  and  C_12
REMARK    5  A    between atoms: C_15  and  C_17
REMARK                            x       y       z     vdW  Elec       q    Type
REMARK                         _______ _______ _______ _____ _____    ______ ____
ROOT
ATOM      1  C   UNL     1      -0.189  -0.057  -2.809  0.00  0.00    +0.278 A 
ATOM      2  N   UNL     1      -1.310   0.614  -2.691  0.00  0.00    -0.101 NA
ATOM      3  N   UNL     1      -1.804   0.833  -3.858  0.00  0.00    -0.106 NA
ATOM      4  C   UNL     1      -1.018   0.311  -4.769  0.00  0.00    +0.251 A 
ATOM      5  O   UNL     1       0.024  -0.259  -4.125  0.00  0.00    -0.411 OA
ENDROOT
BRANCH   4   6
ATOM      6  C   UNL     1      -1.229   0.345  -6.229  0.00  0.00    +0.063 A 
ATOM      7  C   UNL     1      -0.424  -0.198  -7.179  0.00  0.00    +0.097 A 
ATOM      8  N   UNL     1      -0.948   0.037  -8.416  0.00  0.00    -0.360 N 
ATOM      9  H   UNL     1      -0.550  -0.254  -9.252  0.00  0.00    +0.165 HD
ATOM     10  C   UNL     1      -2.124   0.749  -8.309  0.00  0.00    +0.047 A 
ATOM     11  C   UNL     1      -2.358   0.969  -6.941  0.00  0.00    +0.012 A 
ATOM     12  C   UNL     1      -3.493   1.666  -6.531  0.00  0.00    +0.011 A 
ATOM     13  C   UNL     1      -4.383   2.134  -7.472  0.00  0.00    +0.001 A 
ATOM     14  C   UNL     1      -4.154   1.914  -8.823  0.00  0.00    +0.002 A 
ATOM     15  C   UNL     1      -3.033   1.234  -9.244  0.00  0.00    +0.026 A 
ENDBRANCH   4   6
BRANCH   1  16
ATOM     16  S   UNL     1       0.851  -0.589  -1.490  0.00  0.00    -0.058 S 
BRANCH  16  18
ATOM     17  C   UNL     1      -0.019   1.526   0.010  0.00  0.00    +0.024 C 
ATOM     18  C   UNL     1       0.002  -0.004   0.002  0.00  0.00    +0.083 C 
BRANCH  18  19
ATOM     19  C   UNL     1       0.731  -0.503   1.223  0.00  0.00    -0.032 A 
ATOM     20  C   UNL     1       2.050  -0.148   1.434  0.00  0.00    +0.005 A 
ATOM     21  C   UNL     1       2.720  -0.605   2.553  0.00  0.00    +0.003 A 
ATOM     22  C   UNL     1       2.072  -1.419   3.463  0.00  0.00    +0.038 A 
ATOM     23  C   UNL     1       0.751  -1.775   3.253  0.00  0.00    +0.124 A 
ATOM     24  C   UNL     1       0.079  -1.312   2.134  0.00  0.00    +0.043 A 
ATOM     25  F   UNL     1       0.116  -2.571   4.141  0.00  0.00    -0.205 F 
ENDBRANCH  18  19
ENDBRANCH  16  18
ENDBRANCH   1  16
TORSDOF 4
