REMARK  Name = ZINC07298567
REMARK  11 active torsions:
REMARK  status: ('A' for Active; 'I' for Inactive)
REMARK    1  A    between atoms: C_1  and  C_2
REMARK    2  A    between atoms: C_5  and  C_8
REMARK    3  A    between atoms: C_11  and  S_14
REMARK    4  A    between atoms: N_12  and  N_13
REMARK    5  A    between atoms: S_14  and  C_15
REMARK    6  A    between atoms: C_15  and  C_17
REMARK    7  A    between atoms: C_15  and  C_18
REMARK    8  A    between atoms: N_23  and  C_24
REMARK    9  A    between atoms: C_24  and  C_25
REMARK   10  A    between atoms: C_24  and  C_26
REMARK   11  A    between atoms: C_24  and  C_27
REMARK                            x       y       z     vdW  Elec       q    Type
REMARK                         _______ _______ _______ _____ _____    ______ ____
ROOT
ATOM      1  C   UNL     1       0.058  -4.251  -0.021  0.00  0.00    +0.182 A 
ATOM      2  N   UNL     1      -0.205  -5.029  -1.045  0.00  0.00    -0.127 NA
ATOM      3  N   UNL     1      -0.094  -6.262  -0.700  0.00  0.00    -0.121 NA
ATOM      4  C   UNL     1       0.247  -6.346   0.567  0.00  0.00    +0.209 A 
ATOM      5  N   UNL     1       0.361  -5.071   1.041  0.00  0.00    -0.224 N 
ENDROOT
BRANCH   1  10
ATOM      6  C   UNL     1      -0.018   1.503   0.010  0.00  0.00    +0.044 C 
ATOM      7  C   UNL     1       0.002  -0.004   0.002  0.00  0.00    -0.050 A 
ATOM      8  C   UNL     1       0.006  -0.686  -1.202  0.00  0.00    +0.004 A 
ATOM      9  C   UNL     1       0.024  -2.066  -1.216  0.00  0.00    +0.012 A 
ATOM     10  C   UNL     1       0.039  -2.773  -0.013  0.00  0.00    +0.021 A 
ATOM     11  C   UNL     1       0.036  -2.079   1.198  0.00  0.00    +0.012 A 
ATOM     12  C   UNL     1       0.023  -0.699   1.198  0.00  0.00    +0.004 A 
ENDBRANCH   1  10
BRANCH   5  13
ATOM     13  N   UNL     1       0.701  -4.689   2.308  0.00  0.00    -0.295 N 
ATOM     14  H   UNL     1      -0.117  -4.601   2.891  0.00  0.00    +0.163 HD
ATOM     15  H   UNL     1       1.367  -5.330   2.713  0.00  0.00    +0.163 HD
ENDBRANCH   5  13
BRANCH   4  16
ATOM     16  S   UNL     1       0.514  -7.829   1.481  0.00  0.00    -0.072 S 
BRANCH  16  17
ATOM     17  C   UNL     1       0.210  -9.149   0.274  0.00  0.00    +0.137 C 
ATOM     18  C   UNL     1       1.267  -9.084  -0.830  0.00  0.00    +0.029 C 
BRANCH  17  19
ATOM     19  C   UNL     1       0.286 -10.487   0.963  0.00  0.00    +0.234 C 
ATOM     20  O   UNL     1       0.861 -10.590   2.026  0.00  0.00    -0.274 OA
ATOM     21  N   UNL     1      -0.285 -11.569   0.399  0.00  0.00    -0.239 N 
ATOM     22  C   UNL     1      -0.217 -12.766   1.015  0.00  0.00    +0.306 C 
ATOM     23  O   UNL     1       0.359 -12.869   2.080  0.00  0.00    -0.252 OA
ATOM     24  N   UNL     1      -0.788 -13.848   0.451  0.00  0.00    -0.294 N 
ATOM     25  H   UNL     1      -0.745 -11.487  -0.451  0.00  0.00    +0.159 HD
ATOM     26  H   UNL     1      -1.248 -13.766  -0.400  0.00  0.00    +0.151 HD
BRANCH  24  27
ATOM     27  C   UNL     1      -0.714 -15.149   1.121  0.00  0.00    +0.028 C 
ATOM     28  C   UNL     1      -1.381 -15.054   2.494  0.00  0.00    +0.031 C 
ATOM     29  C   UNL     1      -1.437 -16.200   0.275  0.00  0.00    +0.031 C 
ATOM     30  C   UNL     1       0.752 -15.552   1.292  0.00  0.00    +0.031 C 
ENDBRANCH  24  27
ENDBRANCH  17  19
ENDBRANCH  16  17
ENDBRANCH   4  16
TORSDOF 6
