REMARK  Name = ZINC04598540
REMARK  8 active torsions:
REMARK  status: ('A' for Active; 'I' for Inactive)
REMARK    1  A    between atoms: C_1  and  C_2
REMARK    2  A    between atoms: C_2  and  O_3
REMARK    3  A    between atoms: O_3  and  C_4
REMARK    4  A    between atoms: C_4  and  C_6
REMARK    5  A    between atoms: C_14  and  O_30
REMARK    6  A    between atoms: C_17  and  C_29
REMARK    7  A    between atoms: N_18  and  C_22
REMARK    8  A    between atoms: O_30  and  C_31
REMARK                            x       y       z     vdW  Elec       q    Type
REMARK                         _______ _______ _______ _____ _____    ______ ____
ROOT
ATOM      1  C   UNL     1      -0.031   1.686  -0.484  0.00  0.00    +0.185 C 
ATOM      2  C   UNL     1       1.445   1.342  -0.226  0.00  0.00    +0.125 C 
ATOM      3  C   UNL     1       1.606   1.016   1.242  0.00  0.00    +0.019 A 
ATOM      4  C   UNL     1       2.852   1.159   1.827  0.00  0.00    +0.009 A 
ATOM      5  C   UNL     1       3.032   0.863   3.164  0.00  0.00    +0.004 A 
ATOM      6  C   UNL     1       1.964   0.420   3.923  0.00  0.00    +0.049 A 
ATOM      7  C   UNL     1       0.716   0.276   3.343  0.00  0.00    +0.162 A 
ATOM      8  C   UNL     1       0.532   0.579   1.993  0.00  0.00    +0.170 A 
ATOM      9  O   UNL     1      -0.711   0.443   1.461  0.00  0.00    -0.463 OA
ATOM     10  C   UNL     1      -0.862   0.508   0.045  0.00  0.00    +0.196 C 
ATOM     11  N   UNL     1      -0.404  -0.727  -0.584  0.00  0.00    -0.243 N 
ATOM     12  C   UNL     1       0.832  -0.852  -1.091  0.00  0.00    +0.141 C 
ATOM     13  S   UNL     1       1.248  -2.300  -1.903  0.00  0.00    -0.018 S 
ATOM     14  N   UNL     1       1.755   0.119  -0.985  0.00  0.00    -0.318 N 
ATOM     15  C   UNL     1      -2.337   0.735  -0.293  0.00  0.00    +0.080 C 
ATOM     16  H   UNL     1       2.622   0.014  -1.407  0.00  0.00    +0.148 HD
ENDROOT
BRANCH  11  17
ATOM     17  C   UNL     1      -1.282  -1.815  -0.661  0.00  0.00    +0.039 A 
ATOM     18  C   UNL     1      -1.396  -2.692   0.410  0.00  0.00    +0.026 A 
ATOM     19  C   UNL     1      -2.267  -3.762   0.335  0.00  0.00    +0.040 A 
ATOM     20  C   UNL     1      -3.017  -3.966  -0.811  0.00  0.00    +0.124 A 
ATOM     21  C   UNL     1      -2.900  -3.096  -1.882  0.00  0.00    +0.040 A 
ATOM     22  C   UNL     1      -2.034  -2.022  -1.809  0.00  0.00    +0.026 A 
ATOM     23  F   UNL     1      -3.865  -5.016  -0.885  0.00  0.00    -0.205 F 
ENDBRANCH  11  17
BRANCH   1  24
ATOM     24  C   UNL     1      -0.269   1.861  -1.962  0.00  0.00    +0.318 C 
ATOM     25  O   UNL     1      -0.517   0.900  -2.651  0.00  0.00    -0.250 OA
BRANCH  24  26
ATOM     26  O   UNL     1      -0.204   3.083  -2.513  0.00  0.00    -0.465 OA
BRANCH  26  28
ATOM     27  C   UNL     1      -0.330   4.636  -4.384  0.00  0.00    +0.048 C 
ATOM     28  C   UNL     1      -0.444   3.176  -3.942  0.00  0.00    +0.229 C 
ENDBRANCH  26  28
ENDBRANCH  24  26
ENDBRANCH   1  24
BRANCH   7  29
ATOM     29  O   UNL     1      -0.334  -0.160   4.090  0.00  0.00    -0.491 OA
ATOM     30  C   UNL     1      -0.074  -0.452   5.465  0.00  0.00    +0.277 C 
ENDBRANCH   7  29
TORSDOF 5
