REMARK  Name = ZINC13498956
REMARK  16 active torsions:
REMARK  status: ('A' for Active; 'I' for Inactive)
REMARK    1  A    between atoms: C_1  and  C_2
REMARK    2  A    between atoms: C_6  and  C_15
REMARK    3  A    between atoms: C_13  and  C_14
REMARK    4  A    between atoms: C_15  and  N_72
REMARK    5  A    between atoms: C_16  and  C_17
REMARK    6  A    between atoms: C_16  and  N_72
REMARK    7  A    between atoms: C_17  and  C_18
REMARK    8  A    between atoms: C_18  and  O_19
REMARK    9  A    between atoms: C_20  and  C_22
REMARK   10  A    between atoms: C_20  and  C_35
REMARK   11  A    between atoms: C_20  and  N_72
REMARK   12  A    between atoms: N_26  and  C_27
REMARK   13  A    between atoms: C_27  and  C_28
REMARK   14  A    between atoms: C_28  and  C_29
REMARK   15  A    between atoms: C_35  and  C_36
REMARK   16  A    between atoms: C_35  and  C_37
REMARK                            x       y       z     vdW  Elec       q    Type
REMARK                         _______ _______ _______ _____ _____    ______ ____
ROOT
ATOM      1  N   UNL     1      -6.045   4.608  -1.780  0.00  0.00    +0.389 N 
ATOM      2  H   UNL     1      -5.754   3.641  -1.965  0.00  0.00    -0.080 HD
ENDROOT
BRANCH   1   3
ATOM      3  C   UNL     1      -5.448   5.054  -0.503  0.00  0.00    -0.037 C 
BRANCH   3   9
ATOM      4  C   UNL     1      -2.228  -0.893   2.641  0.00  0.00    +0.044 C 
ATOM      5  C   UNL     1      -3.394   0.053   2.506  0.00  0.00    -0.047 A 
ATOM      6  C   UNL     1      -3.326   1.088   1.617  0.00  0.00    +0.013 A 
ATOM      7  C   UNL     1      -4.407   1.966   1.493  0.00  0.00    -0.001 A 
ATOM      8  C   UNL     1      -4.368   3.086   0.550  0.00  0.00    +0.017 A 
ATOM      9  C   UNL     1      -5.453   3.895   0.460  0.00  0.00    +0.001 A 
ATOM     10  C   UNL     1      -6.582   3.663   1.275  0.00  0.00    +0.251 A 
ATOM     11  O   UNL     1      -7.542   4.408   1.185  0.00  0.00    -0.268 OA
ATOM     12  N   UNL     1      -6.625   2.640   2.147  0.00  0.00    -0.322 N 
ATOM     13  H   UNL     1      -7.417   2.510   2.691  0.00  0.00    +0.169 HD
ATOM     14  C   UNL     1      -5.560   1.776   2.278  0.00  0.00    +0.049 A 
ATOM     15  C   UNL     1      -5.604   0.717   3.180  0.00  0.00    +0.030 A 
ATOM     16  C   UNL     1      -4.526  -0.135   3.286  0.00  0.00    -0.046 A 
ATOM     17  C   UNL     1      -4.578  -1.285   4.260  0.00  0.00    +0.044 C 
ENDBRANCH   3   9
ENDBRANCH   1   3
BRANCH   1  18
ATOM     18  C   UNL     1      -5.574   5.470  -2.885  0.00  0.00    -0.075 C 
BRANCH  18  19
ATOM     19  C   UNL     1      -4.105   5.151  -3.167  0.00  0.00    +0.009 C 
BRANCH  19  20
ATOM     20  C   UNL     1      -3.644   5.920  -4.407  0.00  0.00    +0.154 C 
BRANCH  20  21
ATOM     21  O   UNL     1      -2.272   5.622  -4.670  0.00  0.00    -0.395 OA
ATOM     22  H   UNL     1      -1.912   6.076  -5.444  0.00  0.00    +0.209 HD
ENDBRANCH  20  21
ENDBRANCH  19  20
ENDBRANCH  18  19
ENDBRANCH   1  18
BRANCH   1  23
ATOM     23  C   UNL     1      -7.519   4.658  -1.694  0.00  0.00    +0.006 C 
BRANCH  23  24
ATOM     24  C   UNL     1      -8.023   6.024  -2.085  0.00  0.00    +0.138 A 
ATOM     25  N   UNL     1      -7.734   6.679  -3.182  0.00  0.00    -0.115 NA
ATOM     26  N   UNL     1      -8.360   7.805  -3.150  0.00  0.00    -0.023 NA
ATOM     27  N   UNL     1      -9.034   7.888  -2.056  0.00  0.00    -0.044 NA
ATOM     28  N   UNL     1      -8.853   6.809  -1.373  0.00  0.00    -0.231 N 
BRANCH  28  29
ATOM     29  C   UNL     1      -9.440   6.496  -0.068  0.00  0.00    +0.152 C 
BRANCH  29  30
ATOM     30  C   UNL     1      -8.596   7.136   1.037  0.00  0.00    +0.058 C 
BRANCH  30  31
ATOM     31  C   UNL     1      -9.282   6.947   2.366  0.00  0.00    -0.046 A 
ATOM     32  C   UNL     1     -10.268   7.829   2.766  0.00  0.00    +0.004 A 
ATOM     33  C   UNL     1     -10.900   7.652   3.983  0.00  0.00    +0.000 A 
ATOM     34  C   UNL     1     -10.539   6.601   4.803  0.00  0.00    +0.000 A 
ATOM     35  C   UNL     1      -9.548   5.722   4.405  0.00  0.00    +0.000 A 
ATOM     36  C   UNL     1      -8.920   5.895   3.187  0.00  0.00    +0.004 A 
ENDBRANCH  30  31
ENDBRANCH  29  30
ENDBRANCH  28  29
ENDBRANCH  23  24
BRANCH  23  37
ATOM     37  C   UNL     1      -8.099   3.609  -2.644  0.00  0.00    -0.024 C 
ATOM     38  C   UNL     1      -7.569   3.853  -4.058  0.00  0.00    +0.006 C 
ATOM     39  C   UNL     1      -7.683   2.212  -2.177  0.00  0.00    +0.006 C 
ENDBRANCH  23  37
ENDBRANCH   1  23
TORSDOF 12
