REMARK  Name = ZINC65978569
REMARK  7 active torsions:
REMARK  status: ('A' for Active; 'I' for Inactive)
REMARK    1  A    between atoms: C_1  and  O_2
REMARK    2  A    between atoms: O_2  and  C_3
REMARK    3  A    between atoms: C_5  and  C_10
REMARK    4  A    between atoms: C_8  and  O_9
REMARK    5  A    between atoms: C_10  and  N_11
REMARK    6  A    between atoms: N_11  and  C_12
REMARK    7  A    between atoms: C_12  and  C_13
REMARK                            x       y       z     vdW  Elec       q    Type
REMARK                         _______ _______ _______ _____ _____    ______ ____
ROOT
ATOM      1  N   UNL     1      -5.295   0.520  -1.344  0.00  0.00    +0.384 N 
ATOM      2  H   UNL     1      -4.575   1.038  -1.824  0.00  0.00    -0.085 HD
ATOM      3  H   UNL     1      -5.454  -0.355  -1.820  0.00  0.00    -0.085 HD
ENDROOT
BRANCH   1   4
ATOM      4  C   UNL     1      -4.871   0.257   0.037  0.00  0.00    -0.046 C 
BRANCH   4   7
ATOM      5  C   UNL     1      -1.201  -0.638   0.010  0.00  0.00    +0.161 A 
ATOM      6  C   UNL     1      -2.374   0.099   0.019  0.00  0.00    +0.051 A 
ATOM      7  C   UNL     1      -3.596  -0.546   0.027  0.00  0.00    -0.061 A 
ATOM      8  C   UNL     1      -3.652  -1.928   0.026  0.00  0.00    +0.005 A 
ATOM      9  C   UNL     1      -2.485  -2.669   0.017  0.00  0.00    +0.049 A 
ATOM     10  C   UNL     1      -1.257  -2.028   0.003  0.00  0.00    +0.158 A 
BRANCH   5  12
ATOM     11  C   UNL     1      -0.017   1.425   0.010  0.00  0.00    +0.277 C 
ATOM     12  O   UNL     1       0.002  -0.004   0.002  0.00  0.00    -0.491 OA
ENDBRANCH   5  12
BRANCH  10  13
ATOM     13  O   UNL     1      -0.108  -2.756  -0.012  0.00  0.00    -0.503 OA
ATOM     14  H   UNL     1       0.232  -2.972   0.867  0.00  0.00    +0.292 HD
ENDBRANCH  10  13
ENDBRANCH   4   7
ENDBRANCH   1   4
BRANCH   1  15
ATOM     15  C   UNL     1      -6.538   1.303  -1.334  0.00  0.00    -0.043 C 
BRANCH  15  16
ATOM     16  C   UNL     1      -6.973   1.573  -2.752  0.00  0.00    -0.019 A 
ATOM     17  C   UNL     1      -6.706   2.797  -3.340  0.00  0.00    +0.005 A 
ATOM     18  C   UNL     1      -7.103   3.046  -4.640  0.00  0.00    +0.004 A 
ATOM     19  C   UNL     1      -7.772   2.073  -5.362  0.00  0.00    +0.049 A 
ATOM     20  C   UNL     1      -8.042   0.848  -4.777  0.00  0.00    +0.162 A 
ATOM     21  C   UNL     1      -7.637   0.596  -3.473  0.00  0.00    +0.163 A 
ATOM     22  O   UNL     1      -7.902  -0.618  -2.908  0.00  0.00    -0.488 OA
ATOM     23  C   UNL     1      -9.279  -0.900  -2.652  0.00  0.00    +0.232 C 
ATOM     24  C   UNL     1      -9.955  -1.457  -3.895  0.00  0.00    +0.082 C 
ATOM     25  C   UNL     1     -10.007  -0.445  -5.029  0.00  0.00    +0.232 C 
ATOM     26  O   UNL     1      -8.700  -0.120  -5.478  0.00  0.00    -0.488 OA
ENDBRANCH  15  16
ENDBRANCH   1  15
TORSDOF 6
