REMARK  Name = ZINC47441563
REMARK  11 active torsions:
REMARK  status: ('A' for Active; 'I' for Inactive)
REMARK    1  A    between atoms: C_1  and  C_2
REMARK    2  A    between atoms: C_3  and  C_15
REMARK    3  A    between atoms: C_10  and  C_14
REMARK    4  A    between atoms: N_12  and  C_13
REMARK    5  A    between atoms: C_15  and  C_16
REMARK    6  A    between atoms: C_16  and  C_17
REMARK    7  A    between atoms: N_19  and  C_20
REMARK    8  A    between atoms: C_20  and  C_21
REMARK    9  A    between atoms: C_21  and  N_27
REMARK   10  A    between atoms: N_27  and  C_28
REMARK   11  A    between atoms: N_27  and  C_29
REMARK                            x       y       z     vdW  Elec       q    Type
REMARK                         _______ _______ _______ _____ _____    ______ ____
ROOT
ATOM      1  C   UNL     1       1.293   0.214  -3.043  0.00  0.00    +0.100 C 
ENDROOT
BRANCH   1   2
ATOM      2  C   UNL     1       1.099   0.878  -4.382  0.00  0.00    +0.213 C 
ATOM      3  O   UNL     1      -0.007   1.236  -4.727  0.00  0.00    -0.276 OA
ATOM      4  N   UNL     1       2.155   1.075  -5.197  0.00  0.00    -0.317 N 
ATOM      5  H   UNL     1       3.040   0.788  -4.921  0.00  0.00    +0.149 HD
BRANCH   4   6
ATOM      6  C   UNL     1       1.966   1.721  -6.498  0.00  0.00    +0.092 C 
BRANCH   6   7
ATOM      7  C   UNL     1       3.287   1.710  -7.269  0.00  0.00    -0.050 C 
ATOM      8  C   UNL     1       3.121   2.486  -8.577  0.00  0.00    -0.010 C 
ATOM      9  C   UNL     1       2.030   1.828  -9.425  0.00  0.00    -0.001 C 
ATOM     10  C   UNL     1       2.428   0.384  -9.736  0.00  0.00    -0.000 C 
ATOM     11  C   UNL     1       2.595  -0.392  -8.428  0.00  0.00    -0.001 C 
ATOM     12  C   UNL     1       3.685   0.266  -7.580  0.00  0.00    -0.010 C 
BRANCH   7  13
ATOM     13  N   UNL     1       4.334   2.342  -6.455  0.00  0.00    +0.381 N 
ATOM     14  C   UNL     1       5.584   2.402  -7.225  0.00  0.00    -0.096 C 
ATOM     15  C   UNL     1       3.917   3.703  -6.091  0.00  0.00    -0.096 C 
ATOM     16  H   UNL     1       4.482   1.800  -5.617  0.00  0.00    -0.082 HD
ENDBRANCH   7  13
ENDBRANCH   6   7
ENDBRANCH   4   6
ENDBRANCH   1   2
BRANCH   1  17
ATOM     17  C   UNL     1      -0.053   0.114  -2.324  0.00  0.00    +0.050 C 
BRANCH  17  20
ATOM     18  C   UNL     1       0.369   1.709   0.031  0.00  0.00    +0.045 C 
ATOM     19  C   UNL     1       0.340   0.206   0.126  0.00  0.00    -0.030 A 
ATOM     20  C   UNL     1       0.141  -0.551  -0.985  0.00  0.00    +0.021 A 
ATOM     21  C   UNL     1       0.116  -1.954  -0.886  0.00  0.00    +0.254 A 
ATOM     22  O   UNL     1      -0.063  -2.625  -1.889  0.00  0.00    -0.268 OA
ATOM     23  N   UNL     1       0.288  -2.565   0.301  0.00  0.00    -0.307 N 
ATOM     24  H   UNL     1       0.268  -3.534   0.351  0.00  0.00    +0.170 HD
ATOM     25  C   UNL     1       0.491  -1.832   1.439  0.00  0.00    +0.139 A 
ATOM     26  C   UNL     1       0.525  -0.437   1.372  0.00  0.00    +0.043 A 
ATOM     27  C   UNL     1       0.754   0.036   2.685  0.00  0.00    +0.069 A 
ATOM     28  N   UNL     1       0.853  -0.994   3.476  0.00  0.00    -0.174 NA
ATOM     29  N   UNL     1       0.687  -2.168   2.732  0.00  0.00    -0.251 N 
ATOM     30  C   UNL     1       0.731  -3.533   3.265  0.00  0.00    +0.174 C 
ATOM     31  C   UNL     1       0.864   1.482   3.097  0.00  0.00    +0.068 C 
ENDBRANCH  17  20
ENDBRANCH   1  17
TORSDOF 6
