REMARK  Name = ZINC23248931
REMARK  7 active torsions:
REMARK  status: ('A' for Active; 'I' for Inactive)
REMARK    1  A    between atoms: C_4  and  N_7
REMARK    2  A    between atoms: C_9  and  C_12
REMARK    3  A    between atoms: C_12  and  N_13
REMARK    4  A    between atoms: N_13  and  C_14
REMARK    5  A    between atoms: C_14  and  C_15
REMARK    6  A    between atoms: C_15  and  C_17
REMARK    7  A    between atoms: C_15  and  N_22
REMARK                            x       y       z     vdW  Elec       q    Type
REMARK                         _______ _______ _______ _____ _____    ______ ____
ROOT
ATOM      1  N   UNL     1       5.975  -4.039  -1.467  0.00  0.00    +0.381 N 
ATOM      2  H   UNL     1       5.120  -3.985  -2.000  0.00  0.00    -0.086 HD
ATOM      3  H   UNL     1       6.664  -3.425  -1.875  0.00  0.00    -0.086 HD
ENDROOT
BRANCH   1   4
ATOM      4  C   UNL     1       5.715  -3.630  -0.080  0.00  0.00    -0.044 C 
BRANCH   4   7
ATOM      5  N   UNL     1       3.862  -0.487  -0.086  0.00  0.00    -0.240 N 
ATOM      6  C   UNL     1       3.902  -1.838  -0.135  0.00  0.00    +0.116 A 
ATOM      7  C   UNL     1       5.200  -2.214  -0.062  0.00  0.00    -0.027 A 
ATOM      8  C   UNL     1       5.980  -1.056   0.034  0.00  0.00    +0.136 A 
ATOM      9  N   UNL     1       5.179  -0.021   0.014  0.00  0.00    -0.175 NA
BRANCH   5  13
ATOM     10  C   UNL     1       0.428   1.872  -0.230  0.00  0.00    +0.000 A 
ATOM     11  C   UNL     1       1.672   2.469  -0.129  0.00  0.00    +0.002 A 
ATOM     12  C   UNL     1       2.811   1.690  -0.081  0.00  0.00    +0.028 A 
ATOM     13  C   UNL     1       2.708   0.306  -0.134  0.00  0.00    +0.065 A 
ATOM     14  C   UNL     1       1.458  -0.290  -0.235  0.00  0.00    +0.028 A 
ATOM     15  C   UNL     1       0.322   0.494  -0.283  0.00  0.00    +0.002 A 
ENDBRANCH   5  13
ENDBRANCH   4   7
ENDBRANCH   1   4
BRANCH   1  16
ATOM     16  C   UNL     1       6.477  -5.419  -1.485  0.00  0.00    -0.093 C 
BRANCH  16  17
ATOM     17  C   UNL     1       6.671  -5.872  -2.934  0.00  0.00    -0.048 C 
BRANCH  17  18
ATOM     18  N   UNL     1       7.297  -7.201  -2.951  0.00  0.00    +0.383 N 
ATOM     19  C   UNL     1       8.615  -7.139  -2.284  0.00  0.00    -0.078 C 
ATOM     20  C   UNL     1       9.512  -8.113  -3.088  0.00  0.00    -0.020 C 
ATOM     21  C   UNL     1       9.009  -7.878  -4.537  0.00  0.00    -0.020 C 
ATOM     22  C   UNL     1       7.497  -7.637  -4.346  0.00  0.00    -0.078 C 
ATOM     23  H   UNL     1       6.706  -7.862  -2.470  0.00  0.00    -0.081 HD
ENDBRANCH  17  18
BRANCH  17  24
ATOM     24  C   UNL     1       5.333  -5.938  -3.624  0.00  0.00    -0.025 A 
ATOM     25  C   UNL     1       4.763  -5.044  -4.468  0.00  0.00    +0.009 A 
ATOM     26  C   UNL     1       3.512  -5.316  -4.988  0.00  0.00    +0.008 A 
ATOM     27  C   UNL     1       2.892  -6.470  -4.638  0.00  0.00    +0.045 A 
ATOM     28  S   UNL     1       4.091  -7.218  -3.547  0.00  0.00    -0.103 S 
ENDBRANCH  17  24
ENDBRANCH  16  17
ENDBRANCH   1  16
TORSDOF 7
