REMARK  Name = ZINC67218425
REMARK  8 active torsions:
REMARK  status: ('A' for Active; 'I' for Inactive)
REMARK    1  A    between atoms: C_1  and  C_2
REMARK    2  A    between atoms: C_6  and  N_9
REMARK    3  A    between atoms: C_7  and  C_8
REMARK    4  A    between atoms: N_17  and  C_20
REMARK    5  A    between atoms: C_20  and  C_21
REMARK    6  A    between atoms: N_23  and  C_24
REMARK    7  A    between atoms: C_28  and  S_30
REMARK    8  A    between atoms: S_30  and  C_31
REMARK                            x       y       z     vdW  Elec       q    Type
REMARK                         _______ _______ _______ _____ _____    ______ ____
ROOT
ATOM      1  N   UNL     1       0.047  -2.806   2.391  0.00  0.00    -0.228 N 
ATOM      2  C   UNL     1      -1.116  -3.162   2.982  0.00  0.00    +0.275 A 
ATOM      3  O   UNL     1      -2.183  -2.878   2.468  0.00  0.00    -0.266 OA
ATOM      4  C   UNL     1      -1.075  -3.862   4.192  0.00  0.00    +0.101 A 
ATOM      5  C   UNL     1       0.139  -4.197   4.798  0.00  0.00    +0.066 A 
ATOM      6  C   UNL     1      -0.006  -4.891   5.995  0.00  0.00    +0.034 A 
ATOM      7  C   UNL     1      -1.243  -5.175   6.459  0.00  0.00    +0.048 A 
ATOM      8  S   UNL     1      -2.281  -4.522   5.309  0.00  0.00    -0.090 S 
ATOM      9  N   UNL     1       1.301  -3.793   4.124  0.00  0.00    -0.284 N 
ATOM     10  C   UNL     1       1.220  -3.127   2.961  0.00  0.00    +0.337 A 
ATOM     11  O   UNL     1       2.250  -2.798   2.404  0.00  0.00    -0.246 OA
ENDROOT
BRANCH   1  17
ATOM     12  C   UNL     1      -0.026   1.480  -0.020  0.00  0.00    +0.044 C 
ATOM     13  C   UNL     1      -0.007  -0.027  -0.019  0.00  0.00    -0.046 A 
ATOM     14  C   UNL     1      -0.010  -0.719  -1.216  0.00  0.00    +0.004 A 
ATOM     15  C   UNL     1       0.007  -2.101  -1.219  0.00  0.00    +0.002 A 
ATOM     16  C   UNL     1       0.026  -2.796  -0.025  0.00  0.00    +0.027 A 
ATOM     17  C   UNL     1       0.028  -2.104   1.179  0.00  0.00    +0.058 A 
ATOM     18  C   UNL     1       0.017  -0.716   1.178  0.00  0.00    -0.023 A 
ATOM     19  C   UNL     1       0.026   0.039   2.483  0.00  0.00    +0.046 C 
ENDBRANCH   1  17
BRANCH   9  20
ATOM     20  C   UNL     1       2.615  -4.105   4.692  0.00  0.00    +0.222 C 
BRANCH  20  21
ATOM     21  C   UNL     1       3.080  -5.442   4.175  0.00  0.00    +0.237 C 
ATOM     22  O   UNL     1       2.383  -6.072   3.408  0.00  0.00    -0.274 OA
ATOM     23  N   UNL     1       4.271  -5.938   4.565  0.00  0.00    -0.284 N 
ATOM     24  H   UNL     1       4.858  -5.406   5.125  0.00  0.00    +0.155 HD
BRANCH  23  25
ATOM     25  C   UNL     1       4.661  -7.220   4.163  0.00  0.00    +0.034 A 
ATOM     26  C   UNL     1       5.399  -8.024   5.022  0.00  0.00    +0.023 A 
ATOM     27  C   UNL     1       5.785  -9.290   4.626  0.00  0.00    +0.003 A 
ATOM     28  C   UNL     1       5.439  -9.762   3.375  0.00  0.00    +0.015 A 
ATOM     29  C   UNL     1       4.700  -8.963   2.510  0.00  0.00    +0.009 A 
ATOM     30  C   UNL     1       4.306  -7.692   2.908  0.00  0.00    +0.038 A 
BRANCH  29  31
ATOM     31  S   UNL     1       4.259  -9.564   0.913  0.00  0.00    -0.129 S 
ATOM     32  C   UNL     1       4.974 -11.230   0.859  0.00  0.00    +0.090 C 
ENDBRANCH  29  31
ENDBRANCH  23  25
ENDBRANCH  20  21
ENDBRANCH   9  20
TORSDOF 5
