REMARK  Name = ZINC41084085
REMARK  10 active torsions:
REMARK  status: ('A' for Active; 'I' for Inactive)
REMARK    1  A    between atoms: C_1  and  C_2
REMARK    2  A    between atoms: C_2  and  S_3
REMARK    3  A    between atoms: S_3  and  C_6
REMARK    4  A    between atoms: C_12  and  C_13
REMARK    5  A    between atoms: C_16  and  O_19
REMARK    6  A    between atoms: O_19  and  C_20
REMARK    7  A    between atoms: C_20  and  C_21
REMARK    8  A    between atoms: C_21  and  O_22
REMARK    9  A    between atoms: O_22  and  C_23
REMARK   10  A    between atoms: C_26  and  C_29
REMARK                            x       y       z     vdW  Elec       q    Type
REMARK                         _______ _______ _______ _____ _____    ______ ____
ROOT
ATOM      1  C   UNL     1       1.102  -3.482   3.077  0.00  0.00    +0.235 C 
ATOM      2  N   UNL     1       1.739  -3.864   2.007  0.00  0.00    -0.145 NA
ATOM      3  N   UNL     1       1.936  -5.200   1.732  0.00  0.00    -0.150 N 
ATOM      4  C   UNL     1       2.686  -5.718   0.653  0.00  0.00    +0.153 C 
ATOM      5  N   UNL     1       3.615  -5.041   0.034  0.00  0.00    -0.283 NA
ATOM      6  C   UNL     1       2.312  -7.115   0.291  0.00  0.00    +0.081 C 
ATOM      7  C   UNL     1       2.369  -7.568  -1.008  0.00  0.00    +0.024 C 
ATOM      8  C   UNL     1       1.875  -7.992   1.406  0.00  0.00    +0.273 C 
ATOM      9  O   UNL     1       1.984  -9.205   1.330  0.00  0.00    -0.268 OA
ATOM     10  N   UNL     1       1.355  -7.410   2.505  0.00  0.00    -0.152 NA
ATOM     11  C   UNL     1       1.372  -6.104   2.606  0.00  0.00    +0.182 C 
ATOM     12  S   UNL     1       0.689  -5.040   3.850  0.00  0.00    -0.015 S 
ATOM     13  H   UNL     1       3.819  -4.133   0.310  0.00  0.00    +0.188 HD
ENDROOT
BRANCH   7  14
ATOM     14  C   UNL     1       1.818  -8.880  -1.351  0.00  0.00    -0.024 A 
ATOM     15  C   UNL     1       0.650  -9.339  -0.724  0.00  0.00    +0.011 A 
ATOM     16  C   UNL     1       0.141 -10.564  -1.048  0.00  0.00    +0.046 A 
ATOM     17  C   UNL     1       0.777 -11.356  -1.998  0.00  0.00    +0.121 A 
ATOM     18  C   UNL     1       1.935 -10.907  -2.624  0.00  0.00    +0.046 A 
ATOM     19  C   UNL     1       2.452  -9.681  -2.312  0.00  0.00    +0.011 A 
BRANCH  17  20
ATOM     20  O   UNL     1       0.266 -12.572  -2.316  0.00  0.00    -0.489 OA
BRANCH  20  21
ATOM     21  C   UNL     1       0.969 -13.335  -3.300  0.00  0.00    +0.270 C 
BRANCH  21  22
ATOM     22  C   UNL     1       0.249 -14.666  -3.524  0.00  0.00    +0.270 C 
BRANCH  22  23
ATOM     23  O   UNL     1      -1.042 -14.420  -4.087  0.00  0.00    -0.489 OA
BRANCH  23  24
ATOM     24  C   UNL     1      -1.817 -15.505  -4.349  0.00  0.00    +0.121 A 
ATOM     25  C   UNL     1      -1.347 -16.780  -4.066  0.00  0.00    +0.046 A 
ATOM     26  C   UNL     1      -2.137 -17.881  -4.333  0.00  0.00    +0.007 A 
ATOM     27  C   UNL     1      -3.394 -17.714  -4.883  0.00  0.00    -0.050 A 
ATOM     28  C   UNL     1      -3.864 -16.445  -5.167  0.00  0.00    +0.007 A 
ATOM     29  C   UNL     1      -3.081 -15.340  -4.896  0.00  0.00    +0.046 A 
ATOM     30  C   UNL     1      -4.254 -18.917  -5.175  0.00  0.00    +0.044 C 
ENDBRANCH  23  24
ENDBRANCH  22  23
ENDBRANCH  21  22
ENDBRANCH  20  21
ENDBRANCH  17  20
ENDBRANCH   7  14
BRANCH   1  31
ATOM     31  S   UNL     1       0.744  -1.846   3.626  0.00  0.00    +0.022 S 
ATOM     32  O   UNL     1       1.687  -1.024   2.952  0.00  0.00    -0.167 OA
ATOM     33  O   UNL     1       0.741  -1.932   5.044  0.00  0.00    -0.167 OA
BRANCH  31  35
ATOM     34  C   UNL     1      -1.350  -0.096   3.439  0.00  0.00    +0.028 C 
ATOM     35  C   UNL     1      -0.930  -1.506   3.017  0.00  0.00    +0.171 C 
ENDBRANCH  31  35
ENDBRANCH   1  31
TORSDOF 8
