REMARK  Name = ZINC59019318
REMARK  9 active torsions:
REMARK  status: ('A' for Active; 'I' for Inactive)
REMARK    1  A    between atoms: C_1  and  C_2
REMARK    2  A    between atoms: C_7  and  C_8
REMARK    3  A    between atoms: C_8  and  S_9
REMARK    4  A    between atoms: S_9  and  C_10
REMARK    5  A    between atoms: N_16  and  N_17
REMARK    6  A    between atoms: C_18  and  C_19
REMARK    7  A    between atoms: C_24  and  O_25
REMARK    8  A    between atoms: O_25  and  C_26
REMARK    9  A    between atoms: C_26  and  C_27
REMARK                            x       y       z     vdW  Elec       q    Type
REMARK                         _______ _______ _______ _____ _____    ______ ____
ROOT
ATOM      1  C   UNL     1      -1.513   1.192   4.568  0.00  0.00    +0.191 A 
ATOM      2  N   UNL     1      -2.535   1.622   5.366  0.00  0.00    -0.303 N 
ATOM      3  H   UNL     1      -3.482   1.500   5.195  0.00  0.00    +0.171 HD
ATOM      4  C   UNL     1      -1.989   2.252   6.450  0.00  0.00    +0.235 A 
ATOM      5  N   UNL     1      -0.684   2.213   6.326  0.00  0.00    -0.111 NA
ATOM      6  N   UNL     1      -0.382   1.537   5.136  0.00  0.00    -0.121 NA
ATOM      7  N   UNL     1      -2.692   2.831   7.496  0.00  0.00    -0.205 N 
ATOM      8  H   UNL     1      -3.661   2.810   7.500  0.00  0.00    +0.177 HD
ENDROOT
BRANCH   7   9
ATOM      9  N   UNL     1      -2.001   3.446   8.548  0.00  0.00    -0.187 NA
ATOM     10  C   UNL     1      -2.659   3.989   9.528  0.00  0.00    +0.142 C 
BRANCH  10  11
ATOM     11  C   UNL     1      -1.932   4.636  10.635  0.00  0.00    +0.036 A 
ATOM     12  C   UNL     1      -2.635   5.215  11.693  0.00  0.00    +0.013 A 
ATOM     13  C   UNL     1      -1.949   5.819  12.726  0.00  0.00    +0.001 A 
ATOM     14  C   UNL     1      -0.565   5.855  12.717  0.00  0.00    +0.004 A 
ATOM     15  C   UNL     1       0.142   5.285  11.675  0.00  0.00    +0.046 A 
ATOM     16  C   UNL     1      -0.531   4.669  10.634  0.00  0.00    +0.130 A 
BRANCH  16  17
ATOM     17  O   UNL     1       0.164   4.104   9.612  0.00  0.00    -0.487 OA
BRANCH  17  18
ATOM     18  C   UNL     1       1.590   4.176   9.679  0.00  0.00    +0.264 C 
BRANCH  18  19
ATOM     19  C   UNL     1       2.184   3.501   8.470  0.00  0.00    -0.009 A 
ATOM     20  C   UNL     1       2.476   2.150   8.506  0.00  0.00    +0.007 A 
ATOM     21  C   UNL     1       3.022   1.531   7.397  0.00  0.00    +0.001 A 
ATOM     22  C   UNL     1       3.275   2.262   6.252  0.00  0.00    +0.015 A 
ATOM     23  C   UNL     1       2.983   3.613   6.215  0.00  0.00    +0.018 A 
ATOM     24  C   UNL     1       2.432   4.231   7.324  0.00  0.00    +0.022 A 
ATOM     25 BR   UNL     1       3.330   4.614   4.649  0.00  0.00    -0.050 Br
ENDBRANCH  18  19
ENDBRANCH  17  18
ENDBRANCH  16  17
ENDBRANCH  10  11
ENDBRANCH   7   9
BRANCH   1  26
ATOM     26  S   UNL     1      -1.684   0.321   3.046  0.00  0.00    -0.081 S 
BRANCH  26  27
ATOM     27  C   UNL     1       0.025   0.045   2.504  0.00  0.00    +0.112 C 
BRANCH  27  34
ATOM     28  C   UNL     1      -0.018   1.503   0.010  0.00  0.00    +0.044 C 
ATOM     29  C   UNL     1       0.002  -0.004   0.002  0.00  0.00    -0.046 A 
ATOM     30  C   UNL     1       0.006  -0.689  -1.199  0.00  0.00    +0.003 A 
ATOM     31  C   UNL     1       0.025  -2.071  -1.207  0.00  0.00    +0.000 A 
ATOM     32  C   UNL     1       0.040  -2.768  -0.013  0.00  0.00    +0.000 A 
ATOM     33  C   UNL     1       0.037  -2.084   1.188  0.00  0.00    +0.005 A 
ATOM     34  C   UNL     1       0.023  -0.702   1.195  0.00  0.00    -0.034 A 
ENDBRANCH  27  34
ENDBRANCH  26  27
ENDBRANCH   1  26
TORSDOF 8
