REMARK  Name = ZINC20720008
REMARK  2 active torsions:
REMARK  status: ('A' for Active; 'I' for Inactive)
REMARK    1  A    between atoms: C_7  and  C_11
REMARK    2  A    between atoms: C_24  and  O_27
REMARK                            x       y       z     vdW  Elec       q    Type
REMARK                         _______ _______ _______ _____ _____    ______ ____
ROOT
ATOM      1  C   UNL     1       0.666  -3.275  -0.022  0.00  0.00    +0.107 C 
ATOM      2  C   UNL     1       0.164  -3.533   1.383  0.00  0.00    +0.029 C 
ATOM      3  C   UNL     1      -0.574  -2.399   2.103  0.00  0.00    +0.033 C 
ATOM      4  C   UNL     1      -0.237  -2.696   3.566  0.00  0.00    -0.030 C 
ATOM      5  C   UNL     1       0.912  -3.360   3.640  0.00  0.00    -0.023 C 
ATOM      6  C   UNL     1       1.452  -3.558   2.264  0.00  0.00    +0.049 C 
ATOM      7  C   UNL     1       2.229  -4.746   1.848  0.00  0.00    -0.016 A 
ATOM      8  C   UNL     1       2.997  -5.461   2.745  0.00  0.00    +0.006 A 
ATOM      9  C   UNL     1       3.724  -6.559   2.329  0.00  0.00    +0.004 A 
ATOM     10  C   UNL     1       3.683  -6.944   1.000  0.00  0.00    +0.047 A 
ATOM     11  C   UNL     1       2.914  -6.239   0.097  0.00  0.00    +0.138 A 
ATOM     12  C   UNL     1       2.166  -5.128   0.507  0.00  0.00    +0.073 A 
ATOM     13  N   UNL     1       1.383  -4.486  -0.454  0.00  0.00    -0.334 N 
ATOM     14  H   UNL     1       1.286  -4.842  -1.490  0.00  0.00    +0.147 HD
ENDROOT
BRANCH   1  21
ATOM     15  C   UNL     1      -0.017   1.362   0.009  0.00  0.00    +0.001 A 
ATOM     16  C   UNL     1       1.170   2.083   0.002  0.00  0.00    +0.002 A 
ATOM     17  C   UNL     1       2.386   1.436  -0.013  0.00  0.00    +0.026 A 
ATOM     18  C   UNL     1       2.428   0.046  -0.021  0.00  0.00    +0.047 A 
ATOM     19  C   UNL     1       1.223  -0.681  -0.013  0.00  0.00    +0.005 A 
ATOM     20  C   UNL     1       0.002  -0.004   0.002  0.00  0.00    +0.010 A 
ATOM     21  C   UNL     1       1.604  -2.095  -0.024  0.00  0.00    -0.002 A 
ATOM     22  C   UNL     1       2.945  -2.141  -0.037  0.00  0.00    +0.089 A 
ATOM     23  N   UNL     1       3.455  -0.871  -0.035  0.00  0.00    -0.360 N 
ATOM     24  H   UNL     1       4.500  -0.527  -0.043  0.00  0.00    +0.165 HD
ENDBRANCH   1  21
BRANCH  11  25
ATOM     25  O   UNL     1       2.883  -6.626  -1.207  0.00  0.00    -0.505 OA
ATOM     26  H   UNL     1       2.272  -6.068  -1.932  0.00  0.00    +0.292 HD
ENDBRANCH  11  25
TORSDOF 2
