REMARK  Name = ZINC38563967
REMARK  11 active torsions:
REMARK  status: ('A' for Active; 'I' for Inactive)
REMARK    1  A    between atoms: C_1  and  O_2
REMARK    2  A    between atoms: O_2  and  C_3
REMARK    3  A    between atoms: C_5  and  C_13
REMARK    4  A    between atoms: C_7  and  O_11
REMARK    5  A    between atoms: C_8  and  O_9
REMARK    6  A    between atoms: O_9  and  C_10
REMARK    7  A    between atoms: O_11  and  C_12
REMARK    8  A    between atoms: C_15  and  C_27
REMARK    9  A    between atoms: N_29  and  C_30
REMARK   10  A    between atoms: C_30  and  C_31
REMARK   11  A    between atoms: C_31  and  C_32
REMARK                            x       y       z     vdW  Elec       q    Type
REMARK                         _______ _______ _______ _____ _____    ______ ____
ROOT
ATOM      1  C   UNL     1       2.452   0.299   4.186  0.00  0.00    +0.076 C 
ATOM      2  N   UNL     1       2.484   1.612   4.102  0.00  0.00    -0.244 NA
ATOM      3  C   UNL     1       3.141   2.408   4.957  0.00  0.00    +0.126 C 
ATOM      4  C   UNL     1       4.089   1.894   5.845  0.00  0.00    +0.039 C 
ATOM      5  C   UNL     1       4.157   0.512   5.929  0.00  0.00    -0.008 C 
ATOM      6  C   UNL     1       5.095  -0.376   6.386  0.00  0.00    +0.004 A 
ATOM      7  C   UNL     1       6.249  -0.207   7.185  0.00  0.00    +0.010 A 
ATOM      8  C   UNL     1       7.007  -1.318   7.417  0.00  0.00    +0.001 A 
ATOM      9  C   UNL     1       6.695  -2.579   6.910  0.00  0.00    +0.002 A 
ATOM     10  C   UNL     1       5.593  -2.832   6.152  0.00  0.00    +0.026 A 
ATOM     11  C   UNL     1       4.734  -1.730   5.880  0.00  0.00    +0.044 A 
ATOM     12  N   UNL     1       3.591  -1.695   5.239  0.00  0.00    -0.372 N 
ATOM     13  C   UNL     1       3.038  -0.364   5.381  0.00  0.00    +0.160 C 
ATOM     14  H   UNL     1       3.184  -2.432   4.757  0.00  0.00    +0.161 HD
ENDROOT
BRANCH   1  17
ATOM     15  C   UNL     1       1.210  -0.751   0.808  0.00  0.00    +0.166 A 
ATOM     16  C   UNL     1       1.785   0.004   1.810  0.00  0.00    +0.059 A 
ATOM     17  C   UNL     1       1.842  -0.498   3.118  0.00  0.00    +0.006 A 
ATOM     18  C   UNL     1       1.315  -1.766   3.401  0.00  0.00    +0.059 A 
ATOM     19  C   UNL     1       0.741  -2.514   2.393  0.00  0.00    +0.166 A 
ATOM     20  C   UNL     1       0.681  -2.009   1.095  0.00  0.00    +0.204 A 
BRANCH  15  22
ATOM     21  C   UNL     1       1.713   1.031  -0.685  0.00  0.00    +0.277 C 
ATOM     22  O   UNL     1       1.153  -0.265  -0.461  0.00  0.00    -0.491 OA
ENDBRANCH  15  22
BRANCH  20  23
ATOM     23  O   UNL     1       0.111  -2.746   0.106  0.00  0.00    -0.488 OA
ATOM     24  C   UNL     1       0.968  -3.630  -0.620  0.00  0.00    +0.277 C 
ENDBRANCH  20  23
BRANCH  19  25
ATOM     25  O   UNL     1       0.230  -3.744   2.667  0.00  0.00    -0.491 OA
ATOM     26  C   UNL     1       0.320  -4.198   4.019  0.00  0.00    +0.277 C 
ENDBRANCH  19  25
ENDBRANCH   1  17
BRANCH   3  27
ATOM     27  C   UNL     1       2.857   3.861   4.960  0.00  0.00    +0.262 C 
ATOM     28  O   UNL     1       3.446   4.593   5.730  0.00  0.00    -0.269 OA
ATOM     29  N   UNL     1       1.944   4.370   4.109  0.00  0.00    -0.310 N 
ATOM     30  H   UNL     1       1.474   3.786   3.494  0.00  0.00    +0.149 HD
BRANCH  29  31
ATOM     31  C   UNL     1       1.663   5.808   4.112  0.00  0.00    +0.109 C 
BRANCH  31  32
ATOM     32  C   UNL     1       0.598   6.122   3.059  0.00  0.00    +0.057 C 
BRANCH  32  33
ATOM     33  C   UNL     1       0.308   7.601   3.063  0.00  0.00    -0.011 A 
ATOM     34  C   UNL     1      -0.746   8.097   3.807  0.00  0.00    +0.006 A 
ATOM     35  C   UNL     1      -1.011   9.454   3.810  0.00  0.00    +0.000 A 
ATOM     36  C   UNL     1      -0.224  10.315   3.069  0.00  0.00    +0.003 A 
ATOM     37  C   UNL     1       0.830   9.821   2.325  0.00  0.00    +0.038 A 
ATOM     38  C   UNL     1       1.101   8.463   2.325  0.00  0.00    +0.127 A 
ATOM     39  F   UNL     1       2.134   7.979   1.601  0.00  0.00    -0.205 F 
ENDBRANCH  32  33
ENDBRANCH  31  32
ENDBRANCH  29  31
ENDBRANCH   3  27
TORSDOF 8
