REMARK  Name = ZINC19370484
REMARK  8 active torsions:
REMARK  status: ('A' for Active; 'I' for Inactive)
REMARK    1  A    between atoms: C_1  and  C_2
REMARK    2  A    between atoms: C_2  and  N_3
REMARK    3  A    between atoms: C_14  and  C_16
REMARK    4  A    between atoms: N_17  and  N_18
REMARK    5  A    between atoms: C_19  and  C_21
REMARK    6  A    between atoms: C_21  and  N_22
REMARK    7  A    between atoms: N_25  and  C_28
REMARK    8  A    between atoms: C_28  and  C_29
REMARK                            x       y       z     vdW  Elec       q    Type
REMARK                         _______ _______ _______ _____ _____    ______ ____
ROOT
ATOM      1  N   UNL     1      -0.926  11.241   0.072  0.00  0.00    -0.209 N 
ATOM      2  C   UNL     1      -0.328  12.448   0.073  0.00  0.00    +0.216 C 
ATOM      3  O   UNL     1       0.883  12.525   0.061  0.00  0.00    -0.276 OA
ATOM      4  H   UNL     1      -2.024  11.171   0.083  0.00  0.00    +0.177 HD
ENDROOT
BRANCH   1   6
ATOM      5  C   UNL     1      -0.727   8.911   0.057  0.00  0.00    +0.138 C 
ATOM      6  N   UNL     1      -0.150  10.074   0.058  0.00  0.00    -0.188 NA
BRANCH   5  18
ATOM      7  N   UNL     1       2.180   4.106   0.003  0.00  0.00    -0.340 N 
ATOM      8  C   UNL     1       1.164   3.167   0.008  0.00  0.00    +0.050 A 
ATOM      9  C   UNL     1       1.175   1.775   0.000  0.00  0.00    +0.026 A 
ATOM     10  C   UNL     1      -0.013   1.076   0.008  0.00  0.00    +0.002 A 
ATOM     11  C   UNL     1      -1.226   1.747   0.017  0.00  0.00    +0.001 A 
ATOM     12  C   UNL     1      -1.257   3.125   0.031  0.00  0.00    +0.010 A 
ATOM     13  C   UNL     1      -0.065   3.844   0.023  0.00  0.00    +0.008 A 
ATOM     14  C   UNL     1       0.252   5.284   0.028  0.00  0.00    +0.008 A 
ATOM     15  C   UNL     1       1.653   5.384   0.015  0.00  0.00    +0.050 A 
ATOM     16  C   UNL     1       2.253   6.642   0.016  0.00  0.00    +0.027 A 
ATOM     17  C   UNL     1       1.487   7.771   0.030  0.00  0.00    +0.011 A 
ATOM     18  C   UNL     1       0.090   7.684   0.043  0.00  0.00    -0.005 A 
ATOM     19  C   UNL     1      -0.528   6.434   0.042  0.00  0.00    +0.020 A 
BRANCH   7  21
ATOM     20  C   UNL     1       4.095   3.688  -1.459  0.00  0.00    +0.027 C 
ATOM     21  C   UNL     1       3.611   3.790  -0.012  0.00  0.00    +0.119 C 
ENDBRANCH   7  21
ENDBRANCH   5  18
ENDBRANCH   1   6
BRANCH   2  22
ATOM     22  C   UNL     1      -1.162  13.703   0.088  0.00  0.00    +0.020 C 
BRANCH  22  23
ATOM     23  N   UNL     1      -0.280  14.878   0.086  0.00  0.00    +0.387 N 
ATOM     24  C   UNL     1       0.491  14.959   1.334  0.00  0.00    -0.063 C 
ATOM     25  C   UNL     1       1.452  16.148   1.260  0.00  0.00    +0.066 C 
ATOM     26  N   UNL     1       0.686  17.382   1.036  0.00  0.00    -0.302 NA
ATOM     27  C   UNL     1      -0.086  17.300  -0.212  0.00  0.00    +0.066 C 
ATOM     28  C   UNL     1      -1.047  16.111  -0.138  0.00  0.00    -0.063 C 
ATOM     29  H   UNL     1       0.430  14.764  -0.746  0.00  0.00    -0.081 HD
BRANCH  26  30
ATOM     30  C   UNL     1       1.568  18.556   1.034  0.00  0.00    +0.119 C 
BRANCH  30  31
ATOM     31  C   UNL     1       2.154  18.747   2.409  0.00  0.00    -0.033 A 
ATOM     32  C   UNL     1       1.498  19.535   3.336  0.00  0.00    +0.006 A 
ATOM     33  C   UNL     1       2.033  19.706   4.599  0.00  0.00    +0.020 A 
ATOM     34  C   UNL     1       3.229  19.097   4.932  0.00  0.00    +0.041 A 
ATOM     35  C   UNL     1       3.888  18.312   4.002  0.00  0.00    +0.020 A 
ATOM     36  C   UNL     1       3.350  18.138   2.741  0.00  0.00    +0.006 A 
ATOM     37 CL   UNL     1       3.905  19.316   6.516  0.00  0.00    -0.084 Cl
ENDBRANCH  30  31
ENDBRANCH  26  30
ENDBRANCH  22  23
ENDBRANCH   2  22
TORSDOF 7
