REMARK  Name = ZINC05091477
REMARK  5 active torsions:
REMARK  status: ('A' for Active; 'I' for Inactive)
REMARK    1  A    between atoms: C_3  and  N_20
REMARK    2  A    between atoms: C_6  and  C_7
REMARK    3  A    between atoms: N_8  and  O_9
REMARK    4  A    between atoms: O_9  and  C_10
REMARK    5  A    between atoms: C_10  and  C_12
REMARK                            x       y       z     vdW  Elec       q    Type
REMARK                         _______ _______ _______ _____ _____    ______ ____
ROOT
ATOM      1  C   UNL     1      -1.268  -0.765   0.011  0.00  0.00    +0.163 C 
ATOM      2  N   UNL     1      -1.247  -2.066   0.003  0.00  0.00    -0.059 NA
ATOM      3  N   UNL     1      -2.477  -0.092   0.026  0.00  0.00    -0.340 N 
ATOM      4  H   UNL     1      -2.492   0.878   0.032  0.00  0.00    +0.144 HD
ATOM      5  H   UNL     1      -3.309  -0.591   0.032  0.00  0.00    +0.144 HD
ENDROOT
BRANCH   1  11
ATOM      6  C   UNL     1      -0.017   1.391   0.010  0.00  0.00    +0.013 A 
ATOM      7  C   UNL     1       1.170   2.094   0.002  0.00  0.00    +0.033 A 
ATOM      8  C   UNL     1       2.378   1.419  -0.013  0.00  0.00    +0.126 A 
ATOM      9  C   UNL     1       2.403   0.035  -0.021  0.00  0.00    +0.033 A 
ATOM     10  C   UNL     1       1.222  -0.679  -0.013  0.00  0.00    +0.013 A 
ATOM     11  C   UNL     1       0.002  -0.004   0.002  0.00  0.00    +0.018 A 
BRANCH   8  12
ATOM     12  N   UNL     1       3.647   2.179  -0.022  0.00  0.00    +0.056 N 
ATOM     13  O   UNL     1       3.628   3.388  -0.016  0.00  0.00    -0.126 OA
ATOM     14  O   UNL     1       4.704   1.591  -0.036  0.00  0.00    -0.126 OA
ENDBRANCH   8  12
ENDBRANCH   1  11
BRANCH   2  15
ATOM     15  O   UNL     1      -2.462  -2.794   0.011  0.00  0.00    -0.310 OA
BRANCH  15  16
ATOM     16  C   UNL     1      -2.300  -4.130   0.003  0.00  0.00    +0.366 C 
ATOM     17  O   UNL     1      -1.182  -4.606  -0.011  0.00  0.00    -0.243 OA
BRANCH  16  18
ATOM     18  C   UNL     1      -3.481  -5.017   0.010  0.00  0.00    +0.061 A 
ATOM     19  C   UNL     1      -4.767  -4.472   0.020  0.00  0.00    +0.016 A 
ATOM     20  C   UNL     1      -5.865  -5.306   0.025  0.00  0.00    +0.016 A 
ATOM     21  C   UNL     1      -5.695  -6.680   0.022  0.00  0.00    +0.018 A 
ATOM     22  C   UNL     1      -4.423  -7.226   0.012  0.00  0.00    +0.016 A 
ATOM     23  C   UNL     1      -3.316  -6.404   0.001  0.00  0.00    +0.016 A 
ATOM     24 BR   UNL     1      -7.207  -7.816   0.031  0.00  0.00    -0.050 Br
ENDBRANCH  16  18
ENDBRANCH  15  16
ENDBRANCH   2  15
TORSDOF 5
