REMARK  Name = ZINC13661053
REMARK  6 active torsions:
REMARK  status: ('A' for Active; 'I' for Inactive)
REMARK    1  A    between atoms: C_1  and  C_2
REMARK    2  A    between atoms: C_2  and  O_3
REMARK    3  A    between atoms: O_3  and  C_4
REMARK    4  A    between atoms: C_6  and  C_11
REMARK    5  A    between atoms: C_9  and  O_10
REMARK    6  A    between atoms: N_17  and  C_18
REMARK                            x       y       z     vdW  Elec       q    Type
REMARK                         _______ _______ _______ _____ _____    ______ ____
ROOT
ATOM      1  C   UNL     1       0.660  -5.136   0.960  0.00  0.00    +0.028 C 
ATOM      2  C   UNL     1       0.478  -6.438   0.622  0.00  0.00    +0.078 C 
ATOM      3  C   UNL     1      -0.135  -7.530   1.401  0.00  0.00    +0.256 C 
ATOM      4  O   UNL     1      -0.574  -7.345   2.521  0.00  0.00    -0.269 OA
ATOM      5  N   UNL     1      -0.187  -8.721   0.827  0.00  0.00    -0.260 N 
ATOM      6  C   UNL     1       0.315  -8.911  -0.442  0.00  0.00    +0.166 C 
ATOM      7  N   UNL     1       0.343 -10.016  -1.153  0.00  0.00    -0.224 NA
ATOM      8  S   UNL     1       0.911  -7.288  -0.889  0.00  0.00    -0.049 S 
ATOM      9  H   UNL     1      -0.582  -9.467   1.304  0.00  0.00    +0.157 HD
ENDROOT
BRANCH   7  10
ATOM     10  C   UNL     1      -0.194 -11.169  -0.646  0.00  0.00    +0.085 A 
ATOM     11  C   UNL     1      -1.472 -11.158  -0.082  0.00  0.00    +0.031 A 
ATOM     12  C   UNL     1      -2.007 -12.323   0.426  0.00  0.00    +0.022 A 
ATOM     13  C   UNL     1      -1.281 -13.502   0.378  0.00  0.00    +0.042 A 
ATOM     14  C   UNL     1      -0.014 -13.520  -0.179  0.00  0.00    +0.042 A 
ATOM     15  C   UNL     1       0.531 -12.362  -0.698  0.00  0.00    +0.068 A 
ATOM     16 CL   UNL     1       2.116 -12.387  -1.404  0.00  0.00    -0.081 Cl
ATOM     17 CL   UNL     1      -1.963 -14.963   1.021  0.00  0.00    -0.083 Cl
ENDBRANCH   7  10
BRANCH   1  20
ATOM     18  C   UNL     1       2.361  -2.092  -0.420  0.00  0.00    +0.162 A 
ATOM     19  C   UNL     1       1.551  -2.894   0.358  0.00  0.00    +0.057 A 
ATOM     20  C   UNL     1       1.520  -4.277   0.136  0.00  0.00    -0.020 A 
ATOM     21  C   UNL     1       2.311  -4.837  -0.874  0.00  0.00    +0.012 A 
ATOM     22  C   UNL     1       3.117  -4.028  -1.645  0.00  0.00    +0.050 A 
ATOM     23  C   UNL     1       3.142  -2.657  -1.427  0.00  0.00    +0.158 A 
BRANCH  23  24
ATOM     24  O   UNL     1       3.934  -1.864  -2.195  0.00  0.00    -0.503 OA
ATOM     25  H   UNL     1       4.827  -1.741  -1.844  0.00  0.00    +0.292 HD
ENDBRANCH  23  24
BRANCH  18  26
ATOM     26  O   UNL     1       2.394  -0.749  -0.207  0.00  0.00    -0.489 OA
BRANCH  26  28
ATOM     27  C   UNL     1       1.738   1.280   0.930  0.00  0.00    +0.048 C 
ATOM     28  C   UNL     1       1.569  -0.238   0.842  0.00  0.00    +0.226 C 
ENDBRANCH  26  28
ENDBRANCH  18  26
ENDBRANCH   1  20
TORSDOF 5
