REMARK  Name = ZINC43568744
REMARK  5 active torsions:
REMARK  status: ('A' for Active; 'I' for Inactive)
REMARK    1  A    between atoms: C_1  and  C_2
REMARK    2  A    between atoms: C_5  and  C_8
REMARK    3  A    between atoms: C_8  and  O_30
REMARK    4  A    between atoms: N_16  and  C_18
REMARK    5  A    between atoms: C_18  and  C_19
REMARK                            x       y       z     vdW  Elec       q    Type
REMARK                         _______ _______ _______ _____ _____    ______ ____
ROOT
ATOM      1  C   UNL     1       0.060  -4.229   0.126  0.00  0.00    +0.109 C 
ATOM      2  C   UNL     1       1.405  -4.758  -0.410  0.00  0.00    +0.041 C 
ATOM      3  C   UNL     1       1.704  -5.994   0.472  0.00  0.00    +0.005 C 
ATOM      4  C   UNL     1       1.213  -5.556   1.872  0.00  0.00    -0.023 C 
ATOM      5  C   UNL     1      -0.053  -4.702   1.583  0.00  0.00    +0.011 C 
ATOM      6  C   UNL     1      -1.201  -5.732   1.694  0.00  0.00    -0.072 C 
ATOM      7  N   UNL     1      -0.763  -6.621   2.799  0.00  0.00    +0.383 N 
ATOM      8  C   UNL     1       0.709  -6.798   2.627  0.00  0.00    -0.075 C 
ATOM      9  H   UNL     1      -0.956  -6.189   3.690  0.00  0.00    -0.081 HD
ENDROOT
BRANCH   1  14
ATOM     10  C   UNL     1      -0.018   1.503   0.010  0.00  0.00    +0.045 C 
ATOM     11  C   UNL     1       0.002  -0.004   0.002  0.00  0.00    -0.032 A 
ATOM     12  C   UNL     1       0.006  -0.700  -1.198  0.00  0.00    +0.007 A 
ATOM     13  C   UNL     1       0.025  -2.085  -1.157  0.00  0.00    +0.026 A 
ATOM     14  C   UNL     1       0.039  -2.723   0.069  0.00  0.00    +0.073 A 
ATOM     15  N   UNL     1       0.035  -2.029   1.190  0.00  0.00    -0.257 NA
ATOM     16  C   UNL     1       0.023  -0.710   1.190  0.00  0.00    +0.114 A 
ENDBRANCH   1  14
BRANCH   1  17
ATOM     17  O   UNL     1      -1.018  -4.761  -0.646  0.00  0.00    -0.382 OA
ATOM     18  H   UNL     1      -0.998  -4.506  -1.579  0.00  0.00    +0.211 HD
ENDBRANCH   1  17
BRANCH   7  19
ATOM     19  C   UNL     1      -1.444  -7.919   2.705  0.00  0.00    -0.039 C 
BRANCH  19  20
ATOM     20  C   UNL     1      -1.083  -8.764   3.900  0.00  0.00    -0.020 A 
ATOM     21  C   UNL     1      -0.125  -9.733   3.801  0.00  0.00    +0.114 A 
ATOM     22  N   UNL     1       0.210 -10.487   4.836  0.00  0.00    -0.262 NA
ATOM     23  C   UNL     1      -0.353 -10.352   6.017  0.00  0.00    +0.123 A 
ATOM     24  C   UNL     1      -1.343  -9.386   6.212  0.00  0.00    +0.056 A 
ATOM     25  C   UNL     1      -1.716  -8.564   5.126  0.00  0.00    +0.071 A 
ATOM     26  N   UNL     1      -2.683  -7.718   5.586  0.00  0.00    -0.275 N 
ATOM     27  H   UNL     1      -3.132  -7.038   5.060  0.00  0.00    +0.189 HD
ATOM     28  N   UNL     1      -2.922  -7.985   6.939  0.00  0.00    -0.161 NA
ATOM     29  C   UNL     1      -2.161  -8.964   7.343  0.00  0.00    +0.160 A 
ATOM     30 CL   UNL     1      -2.117  -9.632   8.945  0.00  0.00    -0.059 Cl
ENDBRANCH  19  20
ENDBRANCH   7  19
TORSDOF 4
