REMARK  Name = ZINC12543800
REMARK  5 active torsions:
REMARK  status: ('A' for Active; 'I' for Inactive)
REMARK    1  A    between atoms: N_9  and  C_24
REMARK    2  A    between atoms: C_10  and  C_13
REMARK    3  A    between atoms: C_16  and  O_19
REMARK    4  A    between atoms: O_19  and  C_20
REMARK    5  A    between atoms: C_20  and  C_21
REMARK                            x       y       z     vdW  Elec       q    Type
REMARK                         _______ _______ _______ _____ _____    ______ ____
ROOT
ATOM      1  C   UNL     1       3.559  -6.394   4.753  0.00  0.00    +0.001 A 
ATOM      2  C   UNL     1       4.693  -6.038   4.038  0.00  0.00    +0.002 A 
ATOM      3  C   UNL     1       4.666  -5.989   2.658  0.00  0.00    +0.024 A 
ATOM      4  C   UNL     1       3.497  -6.298   1.984  0.00  0.00    +0.041 A 
ATOM      5  C   UNL     1       2.343  -6.650   2.705  0.00  0.00    +0.058 A 
ATOM      6  C   UNL     1       2.385  -6.700   4.097  0.00  0.00    +0.015 A 
ATOM      7  C   UNL     1       1.107  -6.944   1.959  0.00  0.00    +0.254 C 
ATOM      8  O   UNL     1       0.140  -7.408   2.532  0.00  0.00    -0.270 OA
ATOM      9  N   UNL     1       1.059  -6.692   0.639  0.00  0.00    -0.244 N 
ATOM     10  C   UNL     1       2.136  -5.971  -0.040  0.00  0.00    +0.198 C 
ATOM     11  N   UNL     1       3.424  -6.272   0.595  0.00  0.00    -0.321 N 
ATOM     12  H   UNL     1       4.211  -6.451   0.056  0.00  0.00    +0.148 HD
ENDROOT
BRANCH   9  13
ATOM     13  C   UNL     1      -0.047  -7.128  -0.098  0.00  0.00    +0.039 A 
ATOM     14  C   UNL     1      -1.325  -6.709   0.250  0.00  0.00    +0.025 A 
ATOM     15  C   UNL     1      -2.414  -7.138  -0.482  0.00  0.00    +0.022 A 
ATOM     16  C   UNL     1      -2.235  -7.991  -1.556  0.00  0.00    +0.041 A 
ATOM     17  C   UNL     1      -0.964  -8.414  -1.903  0.00  0.00    +0.022 A 
ATOM     18  C   UNL     1       0.130  -7.985  -1.177  0.00  0.00    +0.025 A 
ATOM     19 CL   UNL     1      -3.608  -8.533  -2.471  0.00  0.00    -0.084 Cl
ENDBRANCH   9  13
BRANCH  10  20
ATOM     20  C   UNL     1       1.874  -4.489   0.042  0.00  0.00    -0.009 A 
ATOM     21  C   UNL     1       2.934  -3.601   0.057  0.00  0.00    +0.010 A 
ATOM     22  C   UNL     1       2.696  -2.242   0.132  0.00  0.00    +0.046 A 
ATOM     23  C   UNL     1       1.393  -1.769   0.193  0.00  0.00    +0.121 A 
ATOM     24  C   UNL     1       0.332  -2.663   0.184  0.00  0.00    +0.046 A 
ATOM     25  C   UNL     1       0.575  -4.020   0.103  0.00  0.00    +0.010 A 
BRANCH  23  26
ATOM     26  O   UNL     1       1.157  -0.433   0.267  0.00  0.00    -0.483 OA
BRANCH  26  27
ATOM     27  C   UNL     1      -0.209  -0.018   0.326  0.00  0.00    +0.324 C 
BRANCH  27  28
ATOM     28  C   UNL     1      -0.274   1.486   0.404  0.00  0.00    +0.248 C 
ATOM     29  O   UNL     1       0.749   2.138   0.407  0.00  0.00    -0.272 OA
ATOM     30  N   UNL     1      -1.469   2.106   0.463  0.00  0.00    -0.327 N 
ATOM     31  H   UNL     1      -2.287   1.585   0.456  0.00  0.00    +0.145 HD
ATOM     32  H   UNL     1      -1.511   3.074   0.513  0.00  0.00    +0.145 HD
ENDBRANCH  27  28
ENDBRANCH  26  27
ENDBRANCH  23  26
ENDBRANCH  10  20
TORSDOF 5
