REMARK  Name = ZINC36584636
REMARK  9 active torsions:
REMARK  status: ('A' for Active; 'I' for Inactive)
REMARK    1  A    between atoms: C_1  and  C_2
REMARK    2  A    between atoms: C_2  and  C_3
REMARK    3  A    between atoms: C_3  and  C_5
REMARK    4  A    between atoms: C_3  and  C_6
REMARK    5  A    between atoms: C_6  and  C_8
REMARK    6  A    between atoms: C_6  and  N_12
REMARK    7  A    between atoms: C_8  and  O_10
REMARK    8  A    between atoms: O_10  and  C_11
REMARK    9  A    between atoms: C_24  and  C_26
REMARK                            x       y       z     vdW  Elec       q    Type
REMARK                         _______ _______ _______ _____ _____    ______ ____
ROOT
ATOM      1  N   UNL     1       1.991   1.586  -1.083  0.00  0.00    -0.286 N 
ATOM      2  C   UNL     1       1.885   2.022   0.188  0.00  0.00    +0.304 C 
ATOM      3  O   UNL     1       1.899   1.226   1.107  0.00  0.00    -0.253 OA
ATOM      4  N   UNL     1       1.765   3.340   0.441  0.00  0.00    -0.273 N 
ATOM      5  C   UNL     1       1.632   4.308  -0.658  0.00  0.00    +0.116 C 
ATOM      6  C   UNL     1       0.255   4.980  -0.571  0.00  0.00    +0.074 C 
ATOM      7  C   UNL     1      -0.006   5.367   0.861  0.00  0.00    +0.040 A 
ATOM      8  C   UNL     1       0.653   4.867   1.928  0.00  0.00    +0.062 A 
ATOM      9  N   UNL     1       0.153   5.433   3.028  0.00  0.00    -0.348 N 
ATOM     10  C   UNL     1      -0.791   6.271   2.687  0.00  0.00    +0.171 A 
ATOM     11  N   UNL     1      -0.919   6.257   1.340  0.00  0.00    -0.349 N 
ATOM     12  H   UNL     1      -1.543   6.782   0.815  0.00  0.00    +0.166 HD
ATOM     13  C   UNL     1       1.756   3.846   1.825  0.00  0.00    +0.156 C 
ATOM     14  H   UNL     1       2.053   2.224  -1.811  0.00  0.00    +0.151 HD
ATOM     15  H   UNL     1       0.445   5.253   3.936  0.00  0.00    +0.167 HD
ENDROOT
BRANCH  13  16
ATOM     16  C   UNL     1       3.079   4.494   2.142  0.00  0.00    -0.021 A 
ATOM     17  C   UNL     1       3.485   5.615   1.442  0.00  0.00    +0.007 A 
ATOM     18  C   UNL     1       4.699   6.210   1.732  0.00  0.00    +0.020 A 
ATOM     19  C   UNL     1       5.507   5.684   2.723  0.00  0.00    +0.041 A 
ATOM     20  C   UNL     1       5.101   4.562   3.424  0.00  0.00    +0.020 A 
ATOM     21  C   UNL     1       3.885   3.971   3.137  0.00  0.00    +0.007 A 
ATOM     22 CL   UNL     1       7.032   6.430   3.088  0.00  0.00    -0.084 Cl
ENDBRANCH  13  16
BRANCH   1  23
ATOM     23  C   UNL     1       2.013   0.148  -1.364  0.00  0.00    +0.186 C 
BRANCH  23  24
ATOM     24  C   UNL     1       0.581  -0.390  -1.382  0.00  0.00    +0.017 C 
ATOM     25  C   UNL     1      -0.177   0.215  -2.566  0.00  0.00    +0.010 C 
BRANCH  24  27
ATOM     26  C   UNL     1       1.275  -2.524  -0.284  0.00  0.00    +0.004 C 
ATOM     27  C   UNL     1       0.610  -1.913  -1.520  0.00  0.00    +0.002 C 
ENDBRANCH  24  27
ENDBRANCH  23  24
BRANCH  23  28
ATOM     28  C   UNL     1       2.656  -0.091  -2.706  0.00  0.00    +0.328 C 
ATOM     29  O   UNL     1       3.055   0.843  -3.360  0.00  0.00    -0.249 OA
BRANCH  28  30
ATOM     30  O   UNL     1       2.785  -1.342  -3.175  0.00  0.00    -0.467 OA
ATOM     31  C   UNL     1       3.404  -1.495  -4.454  0.00  0.00    +0.280 C 
ENDBRANCH  28  30
ENDBRANCH  23  28
ENDBRANCH   1  23
TORSDOF 6
