REMARK  Name = ZINC16695654
REMARK  3 active torsions:
REMARK  status: ('A' for Active; 'I' for Inactive)
REMARK    1  A    between atoms: N_13  and  C_17
REMARK    2  A    between atoms: C_17  and  C_18
REMARK    3  A    between atoms: C_24  and  C_26
REMARK                            x       y       z     vdW  Elec       q    Type
REMARK                         _______ _______ _______ _____ _____    ______ ____
ROOT
ATOM      1  C   UNL     1      -0.014   1.209   0.009  0.00  0.00    +0.237 C 
ATOM      2  O   UNL     1       0.002  -0.004   0.002  0.00  0.00    -0.274 OA
ATOM      3  N   UNL     1      -1.191   1.867   0.018  0.00  0.00    -0.262 N 
ATOM      4  C   UNL     1      -2.385   1.155   0.020  0.00  0.00    +0.188 A 
ATOM      5  N   UNL     1      -2.588  -0.151   0.008  0.00  0.00    -0.126 NA
ATOM      6  N   UNL     1      -3.749  -0.646   0.016  0.00  0.00    -0.144 NA
ATOM      7  C   UNL     1      -4.812   0.133   0.026  0.00  0.00    +0.110 A 
ATOM      8  S   UNL     1      -4.024   1.739   0.031  0.00  0.00    -0.035 S 
ATOM      9  H   UNL     1      -1.204   2.837   0.023  0.00  0.00    +0.157 HD
ENDROOT
BRANCH   7  10
ATOM     10  C   UNL     1      -6.275  -0.226   0.031  0.00  0.00    +0.022 C 
ATOM     11  C   UNL     1      -6.605  -1.041  -1.221  0.00  0.00    +0.017 C 
ATOM     12  C   UNL     1      -8.091  -1.406  -1.216  0.00  0.00    -0.010 C 
ATOM     13  C   UNL     1      -8.408  -2.235   0.031  0.00  0.00    +0.007 C 
ATOM     14  C   UNL     1      -8.078  -1.420   1.283  0.00  0.00    -0.010 C 
ATOM     15  C   UNL     1      -6.592  -1.055   1.277  0.00  0.00    +0.017 C 
ATOM     16  C   UNL     1      -8.918  -0.141   1.294  0.00  0.00    +0.007 C 
ATOM     17  C   UNL     1      -8.601   0.689   0.048  0.00  0.00    -0.010 C 
ATOM     18  C   UNL     1      -8.930  -0.127  -1.204  0.00  0.00    +0.007 C 
ATOM     19  C   UNL     1      -7.115   1.053   0.042  0.00  0.00    +0.017 C 
ENDBRANCH   7  10
BRANCH   1  20
ATOM     20  C   UNL     1       1.280   1.980   0.001  0.00  0.00    +0.214 C 
BRANCH  20  33
ATOM     21  C   UNL     1       3.272  -4.357   1.866  0.00  0.00    +0.000 A 
ATOM     22  C   UNL     1       2.255  -3.533   1.422  0.00  0.00    +0.000 A 
ATOM     23  C   UNL     1       2.543  -2.246   1.017  0.00  0.00    +0.006 A 
ATOM     24  C   UNL     1       3.847  -1.770   1.052  0.00  0.00    -0.012 A 
ATOM     25  C   UNL     1       4.860  -2.591   1.497  0.00  0.00    -0.042 A 
ATOM     26  C   UNL     1       4.568  -3.887   1.903  0.00  0.00    +0.004 A 
ATOM     27  C   UNL     1       6.294  -2.136   1.573  0.00  0.00    +0.035 C 
ATOM     28  C   UNL     1       6.516  -0.905   0.697  0.00  0.00    +0.008 C 
ATOM     29  C   UNL     1       5.457   0.144   1.058  0.00  0.00    +0.040 C 
ATOM     30  C   UNL     1       4.097  -0.361   0.593  0.00  0.00    +0.138 C 
ATOM     31  C   UNL     1       3.003   0.556   1.092  0.00  0.00    +0.251 C 
ATOM     32  O   UNL     1       2.721   0.801   2.245  0.00  0.00    -0.272 OA
ATOM     33  N   UNL     1       2.407   1.043  -0.015  0.00  0.00    -0.215 N 
ATOM     34  C   UNL     1       2.975   0.569  -1.130  0.00  0.00    +0.310 C 
ATOM     35  O   UNL     1       2.613   0.866  -2.252  0.00  0.00    -0.252 OA
ATOM     36  N   UNL     1       3.991  -0.275  -0.870  0.00  0.00    -0.281 N 
ATOM     37  H   UNL     1       4.544  -0.736  -1.520  0.00  0.00    +0.152 HD
ENDBRANCH  20  33
ENDBRANCH   1  20
TORSDOF 3
