REMARK  Name = ZINC06465751
REMARK  6 active torsions:
REMARK  status: ('A' for Active; 'I' for Inactive)
REMARK    1  A    between atoms: C_1  and  C_2
REMARK    2  A    between atoms: C_10  and  C_11
REMARK    3  A    between atoms: C_11  and  C_12
REMARK    4  A    between atoms: C_12  and  O_14
REMARK    5  A    between atoms: O_14  and  C_15
REMARK    6  A    between atoms: C_15  and  C_16
REMARK                            x       y       z     vdW  Elec       q    Type
REMARK                         _______ _______ _______ _____ _____    ______ ____
ROOT
ATOM      1  C   UNL     1       7.739   2.386  -0.059  0.00  0.00    +0.312 C 
ATOM      2  O   UNL     1       8.485   1.435  -0.072  0.00  0.00    -0.250 OA
ENDROOT
BRANCH   1   3
ATOM      3  C   UNL     1       8.301   3.784  -0.057  0.00  0.00    +0.159 C 
BRANCH   3  13
ATOM      4  C   UNL     1      13.954   3.228  -3.955  0.00  0.00    +0.044 C 
ATOM      5  C   UNL     1      12.800   3.355  -2.994  0.00  0.00    -0.047 A 
ATOM      6  C   UNL     1      11.501   3.368  -3.480  0.00  0.00    +0.004 A 
ATOM      7  C   UNL     1      10.442   3.483  -2.622  0.00  0.00    +0.012 A 
ATOM      8  C   UNL     1      10.672   3.587  -1.251  0.00  0.00    +0.024 A 
ATOM      9  C   UNL     1      11.985   3.575  -0.753  0.00  0.00    +0.135 A 
ATOM     10  C   UNL     1      13.047   3.458  -1.641  0.00  0.00    +0.050 A 
ATOM     11  O   UNL     1      11.906   3.690   0.588  0.00  0.00    -0.463 OA
ATOM     12  C   UNL     1      10.625   3.780   0.987  0.00  0.00    +0.200 A 
ATOM     13  C   UNL     1       9.807   3.721  -0.072  0.00  0.00    +0.009 A 
ENDBRANCH   3  13
ENDBRANCH   1   3
BRANCH   1  14
ATOM     14  O   UNL     1       6.411   2.197  -0.047  0.00  0.00    -0.458 OA
BRANCH  14  15
ATOM     15  C   UNL     1       5.941   0.823  -0.050  0.00  0.00    +0.289 C 
BRANCH  15  16
ATOM     16  C   UNL     1       4.434   0.807  -0.035  0.00  0.00    +0.097 A 
ATOM     17  C   UNL     1       3.634   1.897  -0.022  0.00  0.00    +0.119 A 
ATOM     18  N   UNL     1       2.341   1.449  -0.013  0.00  0.00    -0.305 N 
ATOM     19  C   UNL     1       1.140   2.098   0.002  0.00  0.00    +0.112 A 
ATOM     20  C   UNL     1      -0.017   1.401   0.010  0.00  0.00    +0.058 A 
ATOM     21  C   UNL     1       0.002  -0.004   0.002  0.00  0.00    +0.025 A 
ATOM     22  C   UNL     1       1.193  -0.662  -0.013  0.00  0.00    +0.048 A 
ATOM     23  C   UNL     1       2.391   0.080  -0.020  0.00  0.00    +0.138 A 
ATOM     24  N   UNL     1       3.666  -0.285  -0.034  0.00  0.00    -0.229 NA
ATOM     25 CL   UNL     1      -1.534   2.245   0.021  0.00  0.00    -0.082 Cl
ENDBRANCH  15  16
ENDBRANCH  14  15
ENDBRANCH   1  14
TORSDOF 5
