REMARK  Name = ZINC64024101
REMARK  7 active torsions:
REMARK  status: ('A' for Active; 'I' for Inactive)
REMARK    1  A    between atoms: C_4  and  C_7
REMARK    2  A    between atoms: C_7  and  C_8
REMARK    3  A    between atoms: C_8  and  N_9
REMARK    4  A    between atoms: C_15  and  C_17
REMARK    5  A    between atoms: C_17  and  C_18
REMARK    6  A    between atoms: N_20  and  C_21
REMARK    7  A    between atoms: C_21  and  C_22
REMARK                            x       y       z     vdW  Elec       q    Type
REMARK                         _______ _______ _______ _____ _____    ______ ____
ROOT
ATOM      1  N   UNL     1       5.150  -1.535   1.470  0.00  0.00    +0.389 N 
ATOM      2  C   UNL     1       4.857  -2.871   0.929  0.00  0.00    -0.059 C 
ATOM      3  C   UNL     1       6.150  -3.476   0.380  0.00  0.00    +0.085 C 
ATOM      4  N   UNL     1       7.206  -3.388   1.385  0.00  0.00    -0.318 N 
ATOM      5  C   UNL     1       7.133  -2.566   2.438  0.00  0.00    +0.200 C 
ATOM      6  O   UNL     1       8.062  -2.534   3.217  0.00  0.00    -0.278 OA
ATOM      7  C   UNL     1       5.946  -1.682   2.695  0.00  0.00    +0.028 C 
ATOM      8  H   UNL     1       7.992  -3.948   1.285  0.00  0.00    +0.149 HD
ATOM      9  H   UNL     1       5.671  -1.001   0.791  0.00  0.00    -0.081 HD
ENDROOT
BRANCH   1  10
ATOM     10  C   UNL     1       3.892  -0.843   1.780  0.00  0.00    -0.073 C 
BRANCH  10  11
ATOM     11  C   UNL     1       3.134  -0.557   0.483  0.00  0.00    +0.016 C 
BRANCH  11  15
ATOM     12  C   UNL     1      -0.524   1.456   1.383  0.00  0.00    +0.000 A 
ATOM     13  C   UNL     1       0.625   2.186   1.144  0.00  0.00    +0.000 A 
ATOM     14  C   UNL     1       1.809   1.534   0.853  0.00  0.00    +0.003 A 
ATOM     15  C   UNL     1       1.843   0.153   0.801  0.00  0.00    -0.049 A 
ATOM     16  C   UNL     1       0.694  -0.576   1.040  0.00  0.00    +0.003 A 
ATOM     17  C   UNL     1      -0.490   0.075   1.330  0.00  0.00    +0.000 A 
ENDBRANCH  11  15
ENDBRANCH  10  11
ENDBRANCH   1  10
BRANCH   7  18
ATOM     18  C   UNL     1       6.429  -0.305   3.154  0.00  0.00    +0.089 C 
BRANCH  18  19
ATOM     19  C   UNL     1       7.374   0.264   2.127  0.00  0.00    +0.212 C 
ATOM     20  O   UNL     1       7.614  -0.358   1.114  0.00  0.00    -0.276 OA
ATOM     21  N   UNL     1       7.953   1.463   2.335  0.00  0.00    -0.313 N 
ATOM     22  H   UNL     1       7.761   1.960   3.146  0.00  0.00    +0.149 HD
BRANCH  21  23
ATOM     23  C   UNL     1       8.871   2.016   1.337  0.00  0.00    +0.132 C 
BRANCH  23  24
ATOM     24  C   UNL     1       9.384   3.377   1.813  0.00  0.00    +0.120 C 
ATOM     25  C   UNL     1      10.469   3.879   0.887  0.00  0.00    +0.009 C 
ATOM     26  C   UNL     1      11.580   4.007   1.647  0.00  0.00    -0.003 A 
ATOM     27  C   UNL     1      12.948   4.444   1.341  0.00  0.00    +0.029 A 
ATOM     28  C   UNL     1      13.867   4.467   2.335  0.00  0.00    +0.042 A 
ATOM     29  C   UNL     1      13.545   4.084   3.645  0.00  0.00    +0.022 A 
ATOM     30  C   UNL     1      12.311   3.671   4.002  0.00  0.00    +0.027 A 
ATOM     31  C   UNL     1      11.267   3.607   3.037  0.00  0.00    +0.043 A 
ATOM     32  N   UNL     1      10.009   3.247   3.135  0.00  0.00    -0.376 N 
ATOM     33 CL   UNL     1      15.485   4.984   1.978  0.00  0.00    -0.084 Cl
ATOM     34  H   UNL     1       9.566   2.946   3.943  0.00  0.00    +0.160 HD
ENDBRANCH  23  24
ENDBRANCH  21  23
ENDBRANCH  18  19
ENDBRANCH   7  18
TORSDOF 7
