REMARK  Name = ZINC20439382
REMARK  8 active torsions:
REMARK  status: ('A' for Active; 'I' for Inactive)
REMARK    1  A    between atoms: C_1  and  C_2
REMARK    2  A    between atoms: C_2  and  C_4
REMARK    3  A    between atoms: C_2  and  O_33
REMARK    4  A    between atoms: C_4  and  N_5
REMARK    5  A    between atoms: C_24  and  C_26
REMARK    6  A    between atoms: C_24  and  C_27
REMARK    7  A    between atoms: C_29  and  S_31
REMARK    8  A    between atoms: S_31  and  C_32
REMARK                            x       y       z     vdW  Elec       q    Type
REMARK                         _______ _______ _______ _____ _____    ______ ____
ROOT
ATOM      1  N   UNL     1      -1.823  -4.527  -0.165  0.00  0.00    -0.326 N 
ATOM      2  C   UNL     1      -0.521  -4.055  -0.107  0.00  0.00    +0.138 A 
ATOM      3  C   UNL     1      -0.260  -2.692  -0.087  0.00  0.00    +0.080 A 
ATOM      4  C   UNL     1       1.052  -2.208  -0.028  0.00  0.00    +0.094 A 
ATOM      5  C   UNL     1       1.198  -0.741  -0.012  0.00  0.00    +0.038 A 
ATOM      6  C   UNL     1       2.401   0.006   0.043  0.00  0.00    -0.024 A 
ATOM      7  C   UNL     1       2.346   1.365   0.048  0.00  0.00    +0.022 A 
ATOM      8  C   UNL     1       1.107   2.013   0.002  0.00  0.00    +0.128 A 
ATOM      9  N   UNL     1      -0.015   1.313  -0.049  0.00  0.00    -0.224 NA
ATOM     10  C   UNL     1       0.003  -0.004  -0.058  0.00  0.00    +0.113 A 
ATOM     11  S   UNL     1      -1.272  -1.238  -0.121  0.00  0.00    -0.064 S 
ATOM     12  N   UNL     1       1.054   3.401   0.011  0.00  0.00    -0.310 N 
ATOM     13  C   UNL     1       0.332   3.893   1.194  0.00  0.00    +0.134 C 
ATOM     14  C   UNL     1       0.349   5.423   1.195  0.00  0.00    +0.178 C 
ATOM     15  O   UNL     1      -0.221   5.902  -0.026  0.00  0.00    -0.377 OA
ATOM     16  C   UNL     1       0.458   5.443  -1.198  0.00  0.00    +0.178 C 
ATOM     17  C   UNL     1       0.442   3.913  -1.223  0.00  0.00    +0.134 C 
ATOM     18  C   UNL     1       3.598   2.203   0.099  0.00  0.00    +0.199 C 
ATOM     19  O   UNL     1       4.709   1.407   0.510  0.00  0.00    -0.369 OA
ATOM     20  C   UNL     1       4.857   0.206  -0.258  0.00  0.00    +0.068 C 
ATOM     21  C   UNL     1       3.707  -0.739   0.098  0.00  0.00    +0.070 C 
ATOM     22  C   UNL     1       6.193  -0.459   0.078  0.00  0.00    +0.041 C 
ATOM     23  C   UNL     1       4.807   0.540  -1.750  0.00  0.00    +0.041 C 
ATOM     24  N   UNL     1       2.030  -3.143   0.007  0.00  0.00    -0.221 NA
ATOM     25  C   UNL     1       1.749  -4.428  -0.012  0.00  0.00    +0.190 A 
ATOM     26  N   UNL     1       0.509  -4.899  -0.068  0.00  0.00    -0.206 NA
ATOM     27  H   UNL     1      -2.664  -3.819  -0.197  0.00  0.00    +0.148 HD
ENDROOT
BRANCH  25  28
ATOM     28  S   UNL     1       3.082  -5.580   0.038  0.00  0.00    -0.089 S 
ATOM     29  C   UNL     1       2.156  -7.135  -0.012  0.00  0.00    +0.093 C 
ENDBRANCH  25  28
BRANCH   1  30
ATOM     30  C   UNL     1      -2.079  -5.969  -0.185  0.00  0.00    +0.134 C 
BRANCH  30  32
ATOM     31  C   UNL     1      -3.855  -7.725  -0.271  0.00  0.00    +0.039 C 
ATOM     32  C   UNL     1      -3.587  -6.219  -0.250  0.00  0.00    +0.128 C 
BRANCH  32  33
ATOM     33  O   UNL     1      -4.216  -5.639   0.894  0.00  0.00    -0.391 OA
ATOM     34  H   UNL     1      -4.134  -4.558   1.079  0.00  0.00    +0.210 HD
ENDBRANCH  32  33
ENDBRANCH  30  32
ENDBRANCH   1  30
TORSDOF 4
