REMARK  Name = ZINC60210892
REMARK  10 active torsions:
REMARK  status: ('A' for Active; 'I' for Inactive)
REMARK    1  A    between atoms: C_1  and  C_2
REMARK    2  A    between atoms: C_7  and  C_8
REMARK    3  A    between atoms: C_8  and  C_9
REMARK    4  A    between atoms: C_8  and  C_10
REMARK    5  A    between atoms: C_11  and  C_14
REMARK    6  A    between atoms: C_14  and  C_15
REMARK    7  A    between atoms: N_17  and  C_18
REMARK    8  A    between atoms: C_18  and  C_19
REMARK    9  A    between atoms: C_19  and  C_20
REMARK   10  A    between atoms: C_24  and  O_26
REMARK                            x       y       z     vdW  Elec       q    Type
REMARK                         _______ _______ _______ _____ _____    ______ ____
ROOT
ATOM      1  C   UNL     1       0.827  -5.299   0.474  0.00  0.00    +0.134 C 
ENDROOT
BRANCH   1   9
ATOM      2  C   UNL     1      -0.485   1.457   0.078  0.00  0.00    +0.044 C 
ATOM      3  C   UNL     1      -0.222  -0.026   0.035  0.00  0.00    -0.044 A 
ATOM      4  C   UNL     1      -0.327  -0.702  -1.162  0.00  0.00    +0.050 A 
ATOM      5  C   UNL     1      -0.086  -2.069  -1.210  0.00  0.00    +0.135 A 
ATOM      6  C   UNL     1       0.264  -2.748  -0.030  0.00  0.00    +0.024 A 
ATOM      7  C   UNL     1       0.366  -2.052   1.174  0.00  0.00    +0.016 A 
ATOM      8  C   UNL     1       0.128  -0.695   1.198  0.00  0.00    -0.041 A 
ATOM      9  C   UNL     1       0.445  -4.150  -0.423  0.00  0.00    +0.007 A 
ATOM     10  C   UNL     1       0.203  -4.203  -1.740  0.00  0.00    +0.200 A 
ATOM     11  O   UNL     1      -0.109  -2.980  -2.203  0.00  0.00    -0.463 OA
BRANCH   8  12
ATOM     12  C   UNL     1       0.243   0.064   2.495  0.00  0.00    +0.013 C 
ATOM     13  C   UNL     1      -0.844  -0.411   3.462  0.00  0.00    +0.012 C 
ATOM     14  C   UNL     1       1.620  -0.188   3.112  0.00  0.00    +0.012 C 
ENDBRANCH   8  12
ENDBRANCH   1   9
BRANCH   1  15
ATOM     15  C   UNL     1      -0.409  -5.856   1.132  0.00  0.00    +0.217 C 
ATOM     16  O   UNL     1      -1.494  -5.367   0.896  0.00  0.00    -0.275 OA
ATOM     17  N   UNL     1      -0.310  -6.896   1.983  0.00  0.00    -0.315 N 
ATOM     18  H   UNL     1       0.558  -7.287   2.172  0.00  0.00    +0.149 HD
BRANCH  17  19
ATOM     19  C   UNL     1      -1.512  -7.437   2.623  0.00  0.00    +0.109 C 
BRANCH  19  20
ATOM     20  C   UNL     1      -1.124  -8.603   3.534  0.00  0.00    +0.054 C 
BRANCH  20  21
ATOM     21  C   UNL     1      -2.360  -9.160   4.191  0.00  0.00    -0.042 A 
ATOM     22  C   UNL     1      -2.787  -8.650   5.404  0.00  0.00    +0.004 A 
ATOM     23  C   UNL     1      -3.920  -9.158   6.010  0.00  0.00    +0.004 A 
ATOM     24  C   UNL     1      -4.630 -10.177   5.406  0.00  0.00    +0.045 A 
ATOM     25  C   UNL     1      -4.205 -10.690   4.189  0.00  0.00    +0.117 A 
ATOM     26  C   UNL     1      -3.070 -10.175   3.580  0.00  0.00    +0.049 A 
BRANCH  25  27
ATOM     27  O   UNL     1      -4.902 -11.693   3.592  0.00  0.00    -0.507 OA
ATOM     28  H   UNL     1      -5.598 -11.387   2.995  0.00  0.00    +0.292 HD
ENDBRANCH  25  27
ENDBRANCH  20  21
ENDBRANCH  19  20
ENDBRANCH  17  19
ENDBRANCH   1  15
TORSDOF 7
