REMARK  Name = ZINC06311529
REMARK  14 active torsions:
REMARK  status: ('A' for Active; 'I' for Inactive)
REMARK    1  A    between atoms: C_1  and  C_2
REMARK    2  A    between atoms: C_2  and  N_3
REMARK    3  A    between atoms: N_3  and  C_4
REMARK    4  A    between atoms: N_3  and  C_6
REMARK    5  A    between atoms: C_4  and  C_5
REMARK    6  A    between atoms: C_9  and  C_12
REMARK    7  A    between atoms: C_12  and  N_13
REMARK    8  A    between atoms: N_13  and  C_14
REMARK    9  A    between atoms: N_13  and  C_21
REMARK   10  A    between atoms: C_14  and  C_15
REMARK   11  A    between atoms: C_21  and  N_23
REMARK   12  A    between atoms: N_23  and  C_24
REMARK   13  A    between atoms: C_26  and  C_31
REMARK   14  A    between atoms: C_28  and  C_30
REMARK                            x       y       z     vdW  Elec       q    Type
REMARK                         _______ _______ _______ _____ _____    ______ ____
ROOT
ATOM      1  N   UNL     1      -0.141  -6.853   1.734  0.00  0.00    -0.304 N 
ENDROOT
BRANCH   1   2
ATOM      2  C   UNL     1       1.049  -7.178   1.190  0.00  0.00    +0.138 C 
ATOM      3  S   UNL     1       1.184  -7.402  -0.502  0.00  0.00    -0.018 S 
BRANCH   2   4
ATOM      4  N   UNL     1       2.132  -7.326   1.978  0.00  0.00    -0.297 N 
ATOM      5  H   UNL     1       2.044  -7.261   2.942  0.00  0.00    +0.154 HD
BRANCH   4   6
ATOM      6  C   UNL     1       3.385  -7.575   1.406  0.00  0.00    +0.033 A 
ATOM      7  C   UNL     1       4.501  -6.876   1.845  0.00  0.00    +0.026 A 
ATOM      8  C   UNL     1       5.736  -7.125   1.279  0.00  0.00    -0.048 A 
ATOM      9  C   UNL     1       5.861  -8.067   0.275  0.00  0.00    +0.006 A 
ATOM     10  C   UNL     1       4.751  -8.765  -0.165  0.00  0.00    -0.048 A 
ATOM     11  C   UNL     1       3.514  -8.525   0.402  0.00  0.00    +0.026 A 
ATOM     12  C   UNL     1       4.892  -9.791  -1.259  0.00  0.00    +0.044 C 
ATOM     13  C   UNL     1       6.949  -6.367   1.754  0.00  0.00    +0.044 C 
ENDBRANCH   4   6
ENDBRANCH   2   4
ENDBRANCH   1   2
BRANCH   1  14
ATOM     14  C   UNL     1      -1.318  -6.692   0.878  0.00  0.00    +0.142 C 
BRANCH  14  18
ATOM     15  C   UNL     1      -1.603  -2.627  -0.404  0.00  0.00    +0.013 A 
ATOM     16  C   UNL     1      -0.892  -3.541  -1.158  0.00  0.00    +0.022 A 
ATOM     17  C   UNL     1      -0.799  -4.857  -0.743  0.00  0.00    +0.007 A 
ATOM     18  C   UNL     1      -1.418  -5.258   0.426  0.00  0.00    -0.030 A 
ATOM     19  C   UNL     1      -2.129  -4.343   1.181  0.00  0.00    +0.007 A 
ATOM     20  C   UNL     1      -2.217  -3.027   0.768  0.00  0.00    +0.022 A 
BRANCH  15  21
ATOM     21  N   UNL     1      -1.696  -1.297  -0.823  0.00  0.00    -0.394 NA
ATOM     22  H   UNL     1      -2.244  -0.772  -0.158  0.00  0.00    +0.126 HD
BRANCH  21  24
ATOM     23  C   UNL     1       0.262  -0.622   0.483  0.00  0.00    +0.022 C 
ATOM     24  C   UNL     1      -0.350  -0.717  -0.916  0.00  0.00    +0.081 C 
ENDBRANCH  21  24
BRANCH  21  25
ATOM     25  C   UNL     1      -2.344  -1.243  -2.141  0.00  0.00    +0.081 C 
ATOM     26  C   UNL     1      -3.785  -1.742  -2.021  0.00  0.00    +0.022 C 
ENDBRANCH  21  25
ENDBRANCH  15  21
ENDBRANCH  14  18
ENDBRANCH   1  14
BRANCH   1  27
ATOM     27  C   UNL     1      -0.256  -6.662   3.182  0.00  0.00    +0.142 C 
BRANCH  27  28
ATOM     28  C   UNL     1      -0.600  -7.975   3.837  0.00  0.00    -0.030 A 
ATOM     29  C   UNL     1      -1.923  -8.337   4.007  0.00  0.00    +0.005 A 
ATOM     30  C   UNL     1      -2.238  -9.542   4.607  0.00  0.00    +0.000 A 
ATOM     31  C   UNL     1      -1.230 -10.384   5.037  0.00  0.00    +0.000 A 
ATOM     32  C   UNL     1       0.093 -10.023   4.866  0.00  0.00    +0.000 A 
ATOM     33  C   UNL     1       0.409  -8.820   4.262  0.00  0.00    +0.005 A 
ENDBRANCH  27  28
ENDBRANCH   1  27
TORSDOF 10
