REMARK  Name = ZINC59035722
REMARK  16 active torsions:
REMARK  status: ('A' for Active; 'I' for Inactive)
REMARK    1  A    between atoms: C_1  and  C_2
REMARK    2  A    between atoms: C_2  and  C_3
REMARK    3  A    between atoms: C_6  and  C_9
REMARK    4  A    between atoms: C_9  and  N_10
REMARK    5  A    between atoms: N_10  and  C_11
REMARK    6  A    between atoms: N_10  and  C_18
REMARK    7  A    between atoms: C_11  and  C_12
REMARK    8  A    between atoms: C_18  and  N_20
REMARK    9  A    between atoms: N_20  and  C_21
REMARK   10  A    between atoms: C_21  and  C_22
REMARK   11  A    between atoms: C_21  and  C_23
REMARK   12  A    between atoms: C_21  and  C_24
REMARK   13  A    between atoms: C_24  and  C_25
REMARK   14  A    between atoms: C_25  and  C_26
REMARK   15  A    between atoms: C_25  and  C_27
REMARK   16  A    between atoms: C_25  and  C_28
REMARK                            x       y       z     vdW  Elec       q    Type
REMARK                         _______ _______ _______ _____ _____    ______ ____
ROOT
ATOM      1  N   UNL     1      -6.069  -2.069   1.088  0.00  0.00    -0.304 N 
ENDROOT
BRANCH   1   2
ATOM      2  C   UNL     1      -6.344  -1.449   2.253  0.00  0.00    +0.134 C 
ATOM      3  S   UNL     1      -6.012  -2.232   3.738  0.00  0.00    -0.019 S 
BRANCH   2   4
ATOM      4  N   UNL     1      -6.881  -0.213   2.248  0.00  0.00    -0.321 N 
ATOM      5  H   UNL     1      -7.012   0.256   1.409  0.00  0.00    +0.148 HD
BRANCH   4   6
ATOM      6  C   UNL     1      -7.269   0.422   3.510  0.00  0.00    +0.029 C 
ATOM      7  C   UNL     1      -6.029   0.614   4.386  0.00  0.00    +0.031 C 
ATOM      8  C   UNL     1      -7.905   1.783   3.221  0.00  0.00    +0.031 C 
BRANCH   6   9
ATOM      9  C   UNL     1      -8.276  -0.468   4.241  0.00  0.00    +0.031 C 
BRANCH   9  10
ATOM     10  C   UNL     1      -9.340  -0.951   3.253  0.00  0.00    -0.036 C 
ATOM     11  C   UNL     1      -8.691  -1.863   2.210  0.00  0.00    +0.010 C 
ATOM     12  C   UNL     1     -10.421  -1.728   4.008  0.00  0.00    +0.010 C 
ATOM     13  C   UNL     1      -9.973   0.255   2.555  0.00  0.00    +0.010 C 
ENDBRANCH   9  10
ENDBRANCH   6   9
ENDBRANCH   4   6
ENDBRANCH   2   4
ENDBRANCH   1   2
BRANCH   1  14
ATOM     14  C   UNL     1      -5.585  -3.452   1.090  0.00  0.00    +0.142 C 
BRANCH  14  18
ATOM     15  C   UNL     1      -1.318  -3.469   1.283  0.00  0.00    -0.048 A 
ATOM     16  C   UNL     1      -2.062  -3.482   2.447  0.00  0.00    +0.004 A 
ATOM     17  C   UNL     1      -3.443  -3.476   2.385  0.00  0.00    +0.005 A 
ATOM     18  C   UNL     1      -4.080  -3.457   1.158  0.00  0.00    -0.030 A 
ATOM     19  C   UNL     1      -3.335  -3.443  -0.006  0.00  0.00    +0.005 A 
ATOM     20  C   UNL     1      -1.954  -3.444   0.056  0.00  0.00    +0.004 A 
BRANCH  15  22
ATOM     21  C   UNL     1       0.702  -2.035   1.400  0.00  0.00    +0.009 C 
ATOM     22  C   UNL     1       0.188  -3.475   1.351  0.00  0.00    +0.032 C 
ENDBRANCH  15  22
ENDBRANCH  14  18
ENDBRANCH   1  14
BRANCH   1  23
ATOM     23  C   UNL     1      -6.254  -1.360  -0.181  0.00  0.00    +0.142 C 
BRANCH  23  24
ATOM     24  C   UNL     1      -7.597  -1.716  -0.764  0.00  0.00    -0.030 A 
ATOM     25  C   UNL     1      -7.750  -2.888  -1.480  0.00  0.00    +0.005 A 
ATOM     26  C   UNL     1      -8.982  -3.215  -2.016  0.00  0.00    +0.000 A 
ATOM     27  C   UNL     1     -10.060  -2.370  -1.835  0.00  0.00    +0.000 A 
ATOM     28  C   UNL     1      -9.907  -1.198  -1.118  0.00  0.00    +0.000 A 
ATOM     29  C   UNL     1      -8.677  -0.873  -0.579  0.00  0.00    +0.005 A 
ENDBRANCH  23  24
ENDBRANCH   1  23
TORSDOF 10
