REMARK  Name = ZINC67590224
REMARK  12 active torsions:
REMARK  status: ('A' for Active; 'I' for Inactive)
REMARK    1  A    between atoms: C_1  and  C_2
REMARK    2  A    between atoms: C_6  and  C_27
REMARK    3  A    between atoms: C_7  and  O_8
REMARK    4  A    between atoms: O_8  and  C_9
REMARK    5  A    between atoms: C_9  and  C_10
REMARK    6  A    between atoms: C_10  and  C_12
REMARK    7  A    between atoms: C_10  and  O_26
REMARK    8  A    between atoms: C_12  and  N_13
REMARK    9  A    between atoms: N_16  and  C_17
REMARK   10  A    between atoms: C_17  and  C_19
REMARK   11  A    between atoms: C_17  and  C_20
REMARK   12  A    between atoms: C_23  and  C_25
REMARK                            x       y       z     vdW  Elec       q    Type
REMARK                         _______ _______ _______ _____ _____    ______ ____
ROOT
ATOM      1  C   UNL     1      -2.397   1.238   4.953  0.00  0.00    +0.140 C 
ENDROOT
BRANCH   1   2
ATOM      2  N   UNL     1      -2.203   1.958   6.213  0.00  0.00    -0.297 N 
ATOM      3  C   UNL     1      -3.264   2.261   6.987  0.00  0.00    +0.300 C 
ATOM      4  O   UNL     1      -4.383   1.936   6.639  0.00  0.00    -0.253 OA
ATOM      5  N   UNL     1      -3.085   2.923   8.147  0.00  0.00    -0.290 N 
ATOM      6  H   UNL     1      -1.310   2.217   6.491  0.00  0.00    +0.150 HD
ATOM      7  H   UNL     1      -2.192   3.182   8.425  0.00  0.00    +0.151 HD
BRANCH   5   8
ATOM      8  C   UNL     1      -4.238   3.252   8.989  0.00  0.00    +0.137 C 
ATOM      9  C   UNL     1      -4.569   2.061   9.890  0.00  0.00    +0.036 C 
BRANCH   8  10
ATOM     10  C   UNL     1      -3.912   4.452   9.841  0.00  0.00    +0.125 A 
ATOM     11  C   UNL     1      -4.751   5.463  10.130  0.00  0.00    +0.047 A 
ATOM     12  C   UNL     1      -4.038   6.365  10.952  0.00  0.00    +0.045 A 
ATOM     13  C   UNL     1      -2.805   5.851  11.116  0.00  0.00    +0.102 A 
ATOM     14  O   UNL     1      -2.737   4.690  10.445  0.00  0.00    -0.463 OA
ATOM     15  C   UNL     1      -1.692   6.472  11.920  0.00  0.00    +0.086 C 
ENDBRANCH   8  10
ENDBRANCH   5   8
ENDBRANCH   1   2
BRANCH   1  16
ATOM     16  C   UNL     1      -1.043   1.022   4.274  0.00  0.00    +0.169 C 
BRANCH  16  17
ATOM     17  O   UNL     1      -0.435   2.289   4.011  0.00  0.00    -0.387 OA
ATOM     18  H   UNL     1      -0.956   2.862   3.432  0.00  0.00    +0.210 HD
ENDBRANCH  16  17
BRANCH  16  19
ATOM     19  C   UNL     1      -1.246   0.270   2.957  0.00  0.00    +0.261 C 
BRANCH  19  20
ATOM     20  O   UNL     1       0.025  -0.033   2.381  0.00  0.00    -0.489 OA
BRANCH  20  27
ATOM     21  C   UNL     1      -0.018   1.503   0.010  0.00  0.00    +0.047 C 
ATOM     22  C   UNL     1       0.002  -0.004   0.002  0.00  0.00    -0.009 A 
ATOM     23  C   UNL     1       0.006  -0.689  -1.198  0.00  0.00    +0.007 A 
ATOM     24  C   UNL     1       0.024  -2.071  -1.206  0.00  0.00    +0.001 A 
ATOM     25  C   UNL     1       0.040  -2.772  -0.014  0.00  0.00    +0.007 A 
ATOM     26  C   UNL     1       0.036  -2.092   1.188  0.00  0.00    -0.009 A 
ATOM     27  C   UNL     1       0.023  -0.705   1.199  0.00  0.00    +0.126 A 
ATOM     28  C   UNL     1       0.052  -2.856   2.487  0.00  0.00    +0.047 C 
ENDBRANCH  20  27
ENDBRANCH  19  20
ENDBRANCH  16  19
ENDBRANCH   1  16
TORSDOF 8
