REMARK  Name = ZINC27169062
REMARK  9 active torsions:
REMARK  status: ('A' for Active; 'I' for Inactive)
REMARK    1  A    between atoms: C_1  and  C_2
REMARK    2  A    between atoms: C_2  and  C_3
REMARK    3  A    between atoms: C_2  and  O_4
REMARK    4  A    between atoms: O_4  and  C_5
REMARK    5  A    between atoms: C_5  and  C_6
REMARK    6  A    between atoms: C_6  and  C_7
REMARK    7  A    between atoms: C_7  and  N_8
REMARK    8  A    between atoms: C_9  and  C_19
REMARK    9  A    between atoms: N_21  and  C_28
REMARK                            x       y       z     vdW  Elec       q    Type
REMARK                         _______ _______ _______ _____ _____    ______ ____
ROOT
ATOM      1  N   UNL     1      -2.365  -0.218  -0.541  0.00  0.00    -0.286 N 
ATOM      2  C   UNL     1      -1.197  -0.917   0.008  0.00  0.00    +0.140 C 
ATOM      3  C   UNL     1      -1.555  -1.293   1.424  0.00  0.00    -0.010 A 
ATOM      4  C   UNL     1      -0.880  -1.950   2.425  0.00  0.00    +0.006 A 
ATOM      5  C   UNL     1      -1.488  -2.151   3.653  0.00  0.00    +0.000 A 
ATOM      6  C   UNL     1      -2.773  -1.690   3.878  0.00  0.00    +0.001 A 
ATOM      7  C   UNL     1      -3.459  -1.028   2.881  0.00  0.00    +0.013 A 
ATOM      8  C   UNL     1      -2.854  -0.823   1.639  0.00  0.00    +0.042 A 
ATOM      9  C   UNL     1      -3.320  -0.166   0.403  0.00  0.00    +0.248 C 
ATOM     10  O   UNL     1      -4.411   0.350   0.259  0.00  0.00    -0.270 OA
ENDROOT
BRANCH   2  11
ATOM     11  C   UNL     1       0.002  -0.004   0.002  0.00  0.00    +0.003 A 
ATOM     12  C   UNL     1      -0.016   1.338   0.009  0.00  0.00    +0.092 A 
ATOM     13  N   UNL     1       1.264   1.822  -0.000  0.00  0.00    -0.349 N 
ATOM     14  C   UNL     1       2.159   0.777  -0.014  0.00  0.00    +0.049 A 
ATOM     15  C   UNL     1       1.409  -0.413  -0.014  0.00  0.00    +0.005 A 
ATOM     16  C   UNL     1       2.060  -1.648  -0.027  0.00  0.00    +0.010 A 
ATOM     17  C   UNL     1       3.426  -1.694  -0.041  0.00  0.00    +0.001 A 
ATOM     18  C   UNL     1       4.171  -0.523  -0.041  0.00  0.00    +0.002 A 
ATOM     19  C   UNL     1       3.549   0.706  -0.029  0.00  0.00    +0.026 A 
ATOM     20  C   UNL     1       1.627   3.241   0.004  0.00  0.00    +0.149 C 
ENDBRANCH   2  11
BRANCH   1  21
ATOM     21  C   UNL     1      -2.473   0.330  -1.895  0.00  0.00    +0.111 C 
BRANCH  21  22
ATOM     22  C   UNL     1      -3.042  -0.736  -2.834  0.00  0.00    +0.047 C 
BRANCH  22  23
ATOM     23  C   UNL     1      -3.154  -0.163  -4.248  0.00  0.00    +0.161 C 
BRANCH  23  24
ATOM     24  O   UNL     1      -3.686  -1.158  -5.124  0.00  0.00    -0.377 OA
BRANCH  24  26
ATOM     25  C   UNL     1      -2.548  -1.025  -7.252  0.00  0.00    +0.037 C 
ATOM     26  C   UNL     1      -3.832  -0.723  -6.478  0.00  0.00    +0.112 C 
ATOM     27  C   UNL     1      -5.005  -1.461  -7.127  0.00  0.00    +0.037 C 
ENDBRANCH  24  26
ENDBRANCH  23  24
ENDBRANCH  22  23
ENDBRANCH  21  22
ENDBRANCH   1  21
TORSDOF 6
