REMARK  Name = ZINC08381609
REMARK  6 active torsions:
REMARK  status: ('A' for Active; 'I' for Inactive)
REMARK    1  A    between atoms: C_4  and  C_7
REMARK    2  A    between atoms: C_10  and  S_13
REMARK    3  A    between atoms: S_13  and  C_14
REMARK    4  A    between atoms: C_14  and  C_15
REMARK    5  A    between atoms: N_17  and  C_18
REMARK    6  A    between atoms: C_19  and  C_26
REMARK                            x       y       z     vdW  Elec       q    Type
REMARK                         _______ _______ _______ _____ _____    ______ ____
ROOT
ATOM      1  C   UNL     1      -6.141  -4.669   0.038  0.00  0.00    +0.228 C 
ATOM      2  O   UNL     1      -5.643  -5.775   0.028  0.00  0.00    -0.275 OA
ATOM      3  N   UNL     1      -7.482  -4.534   0.052  0.00  0.00    -0.279 N 
ATOM      4  H   UNL     1      -7.934  -3.531   0.061  0.00  0.00    +0.155 HD
ENDROOT
BRANCH   3   5
ATOM      5  C   UNL     1      -8.292  -5.660   0.054  0.00  0.00    +0.084 A 
ATOM      6  C   UNL     1      -9.675  -5.725   0.073  0.00  0.00    +0.068 A 
ATOM      7  C   UNL     1     -10.290  -7.051   0.067  0.00  0.00    -0.023 A 
ATOM      8  C   UNL     1      -9.426  -8.082   0.053  0.00  0.00    -0.004 A 
ATOM      9  S   UNL     1      -7.820  -7.325   0.042  0.00  0.00    -0.077 S 
ATOM     10  C   UNL     1     -10.133  -9.411   0.051  0.00  0.00    +0.043 C 
ATOM     11  C   UNL     1     -11.581  -9.080  -0.372  0.00  0.00    +0.010 C 
ATOM     12  C   UNL     1     -11.713  -7.612   0.080  0.00  0.00    +0.037 C 
BRANCH   6  13
ATOM     13  C   UNL     1     -10.492  -4.508   0.094  0.00  0.00    +0.244 C 
ATOM     14  O   UNL     1     -10.846  -3.994  -0.951  0.00  0.00    -0.270 OA
ATOM     15  N   UNL     1     -10.851  -3.957   1.271  0.00  0.00    -0.325 N 
ATOM     16  H   UNL     1     -11.464  -3.044   1.286  0.00  0.00    +0.145 HD
ATOM     17  H   UNL     1     -10.531  -4.421   2.215  0.00  0.00    +0.145 HD
ENDBRANCH   6  13
ENDBRANCH   3   5
BRANCH   1  18
ATOM     18  C   UNL     1      -5.261  -3.446   0.035  0.00  0.00    +0.173 C 
BRANCH  18  19
ATOM     19  S   UNL     1      -3.523  -3.953   0.016  0.00  0.00    -0.077 S 
BRANCH  19  23
ATOM     20  C   UNL     1      -1.266  -0.764   0.011  0.00  0.00    +0.182 A 
ATOM     21  N   UNL     1      -1.399  -2.133  -0.001  0.00  0.00    -0.201 NA
ATOM     22  H   UNL     1      -4.421  -0.966   0.046  0.00  0.00    +0.191 HD
ATOM     23  C   UNL     1      -2.743  -2.373   0.016  0.00  0.00    +0.185 A 
ATOM     24  N   UNL     1      -3.347  -1.206   0.033  0.00  0.00    -0.253 N 
ATOM     25  N   UNL     1      -2.478  -0.259   0.032  0.00  0.00    -0.152 NA
BRANCH  20  29
ATOM     26  C   UNL     1       2.377   1.419  -0.018  0.00  0.00    +0.000 A 
ATOM     27  C   UNL     1       1.170   2.095  -0.003  0.00  0.00    +0.001 A 
ATOM     28  C   UNL     1      -0.017   1.391   0.006  0.00  0.00    +0.011 A 
ATOM     29  C   UNL     1       0.002  -0.004   0.000  0.00  0.00    +0.021 A 
ATOM     30  C   UNL     1       1.224  -0.679  -0.015  0.00  0.00    +0.011 A 
ATOM     31  C   UNL     1       2.403   0.036  -0.024  0.00  0.00    +0.001 A 
ENDBRANCH  20  29
ENDBRANCH  19  23
ENDBRANCH  18  19
ENDBRANCH   1  18
TORSDOF 6
