REMARK  Name = ZINC21642520
REMARK  10 active torsions:
REMARK  status: ('A' for Active; 'I' for Inactive)
REMARK    1  A    between atoms: C_1  and  O_2
REMARK    2  A    between atoms: O_2  and  C_3
REMARK    3  A    between atoms: C_5  and  C_17
REMARK    4  A    between atoms: C_8  and  O_9
REMARK    5  A    between atoms: O_9  and  C_10
REMARK    6  A    between atoms: C_10  and  C_11
REMARK    7  A    between atoms: C_18  and  C_27
REMARK    8  A    between atoms: C_19  and  N_26
REMARK    9  A    between atoms: C_21  and  N_25
REMARK   10  A    between atoms: C_22  and  C_23
REMARK                            x       y       z     vdW  Elec       q    Type
REMARK                         _______ _______ _______ _____ _____    ______ ____
ROOT
ATOM      1  C   UNL     1      -0.148   1.182   2.380  0.00  0.00    +0.162 A 
ATOM      2  C   UNL     1       0.990   0.393   2.422  0.00  0.00    +0.054 A 
ATOM      3  C   UNL     1       1.534   0.028   3.639  0.00  0.00    -0.030 A 
ATOM      4  C   UNL     1       0.938   0.439   4.817  0.00  0.00    +0.008 A 
ATOM      5  C   UNL     1      -0.201   1.221   4.783  0.00  0.00    +0.050 A 
ATOM      6  C   UNL     1      -0.748   1.595   3.566  0.00  0.00    +0.162 A 
ENDROOT
BRANCH   3   7
ATOM      7  C   UNL     1       2.775  -0.826   3.682  0.00  0.00    +0.105 C 
ATOM      8  C   UNL     1       2.447  -2.111   4.361  0.00  0.00    +0.069 C 
ATOM      9  C   UNL     1       2.664  -2.391   5.654  0.00  0.00    +0.079 C 
ATOM     10  S   UNL     1       3.400  -1.255   6.771  0.00  0.00    -0.058 S 
ATOM     11  C   UNL     1       4.197  -0.160   5.654  0.00  0.00    +0.079 C 
ATOM     12  C   UNL     1       3.858  -0.058   4.358  0.00  0.00    +0.069 C 
BRANCH  11  13
ATOM     13  N   UNL     1       5.216   0.630   6.129  0.00  0.00    -0.352 N 
ATOM     14  H   UNL     1       5.734   1.326   5.452  0.00  0.00    +0.143 HD
ATOM     15  H   UNL     1       5.515   0.568   7.186  0.00  0.00    +0.143 HD
ENDBRANCH  11  13
BRANCH   9  16
ATOM     16  N   UNL     1       2.292  -3.627   6.129  0.00  0.00    -0.352 N 
ATOM     17  H   UNL     1       2.458  -3.883   7.186  0.00  0.00    +0.143 HD
ATOM     18  H   UNL     1       1.827  -4.359   5.453  0.00  0.00    +0.143 HD
ENDBRANCH   9  16
BRANCH  12  19
ATOM     19  C   UNL     1       4.601   0.869   3.558  0.00  0.00    +0.098 C 
ATOM     20  N   UNL     1       5.191   1.604   2.923  0.00  0.00    -0.191 NA
ENDBRANCH  12  19
BRANCH   8  21
ATOM     21  C   UNL     1       1.847  -3.138   3.563  0.00  0.00    +0.098 C 
ATOM     22  N   UNL     1       1.371  -3.953   2.931  0.00  0.00    -0.191 NA
ENDBRANCH   8  21
ENDBRANCH   3   7
BRANCH   1  24
ATOM     23  C   UNL     1      -0.013   1.086   0.008  0.00  0.00    +0.277 C 
ATOM     24  O   UNL     1      -0.682   1.547   1.184  0.00  0.00    -0.491 OA
ENDBRANCH   1  24
BRANCH   6  25
ATOM     25  O   UNL     1      -1.869   2.365   3.531  0.00  0.00    -0.484 OA
BRANCH  25  26
ATOM     26  C   UNL     1      -2.430   2.752   4.787  0.00  0.00    +0.264 C 
BRANCH  26  27
ATOM     27  C   UNL     1      -3.656   3.595   4.550  0.00  0.00    -0.010 A 
ATOM     28  C   UNL     1      -3.542   4.969   4.447  0.00  0.00    +0.007 A 
ATOM     29  C   UNL     1      -4.666   5.742   4.224  0.00  0.00    +0.000 A 
ATOM     30  C   UNL     1      -5.907   5.142   4.117  0.00  0.00    +0.000 A 
ATOM     31  C   UNL     1      -6.022   3.768   4.226  0.00  0.00    +0.000 A 
ATOM     32  C   UNL     1      -4.897   2.995   4.443  0.00  0.00    +0.007 A 
ENDBRANCH  26  27
ENDBRANCH  25  26
ENDBRANCH   6  25
TORSDOF 9
