REMARK  Name = ZINC02687258
REMARK  5 active torsions:
REMARK  status: ('A' for Active; 'I' for Inactive)
REMARK    1  A    between atoms: C_1  and  C_2
REMARK    2  A    between atoms: C_5  and  S_9
REMARK    3  A    between atoms: C_7  and  C_8
REMARK    4  A    between atoms: S_9  and  C_12
REMARK    5  A    between atoms: C_17  and  O_23
REMARK                            x       y       z     vdW  Elec       q    Type
REMARK                         _______ _______ _______ _____ _____    ______ ____
ROOT
ATOM      1  C   UNL     1       1.752  -5.029  -0.035  0.00  0.00    +0.178 A 
ATOM      2  C   UNL     1       2.269  -5.710   1.021  0.00  0.00    +0.046 A 
ATOM      3  C   UNL     1       3.678  -6.104   0.968  0.00  0.00    +0.020 A 
ATOM      4  C   UNL     1       4.271  -6.807   2.023  0.00  0.00    +0.015 A 
ATOM      5  C   UNL     1       5.586  -7.164   1.947  0.00  0.00    +0.046 A 
ATOM      6  C   UNL     1       6.343  -6.832   0.825  0.00  0.00    +0.120 A 
ATOM      7  C   UNL     1       5.773  -6.137  -0.229  0.00  0.00    +0.092 A 
ATOM      8  C   UNL     1       4.438  -5.767  -0.168  0.00  0.00    +0.143 A 
ATOM      9  O   UNL     1       3.863  -5.090  -1.185  0.00  0.00    -0.421 OA
ATOM     10  C   UNL     1       2.570  -4.729  -1.144  0.00  0.00    +0.363 A 
ATOM     11  O   UNL     1       2.093  -4.123  -2.086  0.00  0.00    -0.243 OA
ENDROOT
BRANCH   1  12
ATOM     12  S   UNL     1       0.063  -4.530  -0.023  0.00  0.00    +0.032 S 
ATOM     13  O   UNL     1      -0.476  -4.950   1.223  0.00  0.00    -0.164 OA
ATOM     14  O   UNL     1      -0.490  -4.937  -1.267  0.00  0.00    -0.164 OA
BRANCH  12  19
ATOM     15  C   UNL     1      -0.018   1.503   0.010  0.00  0.00    +0.044 C 
ATOM     16  C   UNL     1       0.002  -0.004   0.002  0.00  0.00    -0.047 A 
ATOM     17  C   UNL     1       0.006  -0.689  -1.199  0.00  0.00    +0.005 A 
ATOM     18  C   UNL     1       0.025  -2.071  -1.207  0.00  0.00    +0.027 A 
ATOM     19  C   UNL     1       0.040  -2.768  -0.013  0.00  0.00    +0.094 A 
ATOM     20  C   UNL     1       0.037  -2.084   1.188  0.00  0.00    +0.031 A 
ATOM     21  C   UNL     1       0.023  -0.702   1.195  0.00  0.00    -0.046 A 
ATOM     22  C   UNL     1       0.025   0.045   2.504  0.00  0.00    +0.044 C 
ENDBRANCH  12  19
ENDBRANCH   1  12
BRANCH   6  23
ATOM     23  O   UNL     1       7.650  -7.194   0.764  0.00  0.00    -0.507 OA
ATOM     24  H   UNL     1       7.800  -8.062   0.367  0.00  0.00    +0.292 HD
ENDBRANCH   6  23
TORSDOF 3
