REMARK  Name = ZINC08431506
REMARK  9 active torsions:
REMARK  status: ('A' for Active; 'I' for Inactive)
REMARK    1  A    between atoms: N_13  and  C_16
REMARK    2  A    between atoms: C_16  and  C_17
REMARK    3  A    between atoms: C_22  and  C_23
REMARK    4  A    between atoms: C_22  and  N_64
REMARK    5  A    between atoms: C_23  and  C_25
REMARK    6  A    between atoms: C_23  and  O_35
REMARK    7  A    between atoms: C_25  and  O_26
REMARK    8  A    between atoms: O_26  and  C_27
REMARK    9  A    between atoms: C_27  and  C_28
REMARK                            x       y       z     vdW  Elec       q    Type
REMARK                         _______ _______ _______ _____ _____    ______ ____
ROOT
ATOM      1  C   UNL     1      -2.579   2.353  -8.311  0.00  0.00    +0.003 C 
ATOM      2  C   UNL     1      -1.133   2.848  -8.221  0.00  0.00    -0.014 C 
ATOM      3  C   UNL     1      -0.367   1.991  -7.210  0.00  0.00    -0.078 C 
ATOM      4  C   UNL     1      -2.392   1.568  -5.948  0.00  0.00    -0.078 C 
ATOM      5  C   UNL     1      -3.218   2.413  -6.921  0.00  0.00    -0.014 C 
ATOM      6  N   UNL     1      -1.019   2.111  -5.888  0.00  0.00    +0.381 N 
ATOM      7  H   UNL     1      -1.064   3.103  -5.628  0.00  0.00    -0.082 HD
ENDROOT
BRANCH   1   8
ATOM      8  C   UNL     1      -3.365   3.244  -9.274  0.00  0.00    +0.120 C 
BRANCH   8  21
ATOM      9  C   UNL     1      -9.370   2.450  -8.112  0.00  0.00    +0.001 A 
ATOM     10  C   UNL     1      -9.641   1.547  -9.100  0.00  0.00    +0.008 A 
ATOM     11  C   UNL     1      -8.618   1.125  -9.967  0.00  0.00    -0.016 A 
ATOM     12  C   UNL     1      -8.846   0.199 -10.999  0.00  0.00    +0.008 A 
ATOM     13  C   UNL     1      -7.820  -0.180 -11.817  0.00  0.00    +0.001 A 
ATOM     14  C   UNL     1      -6.537   0.329 -11.659  0.00  0.00    +0.014 A 
ATOM     15  C   UNL     1      -6.270   1.246 -10.652  0.00  0.00    +0.046 A 
ATOM     16  C   UNL     1      -7.319   1.649  -9.796  0.00  0.00    +0.006 A 
ATOM     17  C   UNL     1      -7.058   2.583  -8.768  0.00  0.00    +0.046 A 
ATOM     18  C   UNL     1      -8.095   2.974  -7.934  0.00  0.00    +0.014 A 
ATOM     19  C   UNL     1      -5.692   3.107  -8.621  0.00  0.00    +0.254 C 
ATOM     20  O   UNL     1      -5.444   3.912  -7.744  0.00  0.00    -0.270 OA
ATOM     21  N   UNL     1      -4.714   2.700  -9.452  0.00  0.00    -0.234 N 
ATOM     22  C   UNL     1      -4.931   1.816 -10.445  0.00  0.00    +0.254 C 
ATOM     23  O   UNL     1      -4.013   1.486 -11.171  0.00  0.00    -0.270 OA
ENDBRANCH   8  21
ENDBRANCH   1   8
BRANCH   6  24
ATOM     24  C   UNL     1      -0.232   1.383  -4.871  0.00  0.00    -0.045 C 
BRANCH  24  25
ATOM     25  C   UNL     1       0.983   2.233  -4.492  0.00  0.00    +0.124 C 
BRANCH  25  26
ATOM     26  O   UNL     1       0.542   3.488  -3.969  0.00  0.00    -0.391 OA
ATOM     27  H   UNL     1      -0.011   3.412  -3.179  0.00  0.00    +0.210 HD
ENDBRANCH  25  26
BRANCH  25  28
ATOM     28  C   UNL     1       1.807   1.500  -3.432  0.00  0.00    +0.189 C 
BRANCH  28  29
ATOM     29  O   UNL     1       3.001   2.237  -3.163  0.00  0.00    -0.373 OA
BRANCH  29  30
ATOM     30  C   UNL     1       3.847   1.636  -2.181  0.00  0.00    +0.195 C 
BRANCH  30  31
ATOM     31  C   UNL     1       5.070   2.494  -1.978  0.00  0.00    -0.022 A 
ATOM     32  C   UNL     1       6.201   2.277  -2.743  0.00  0.00    +0.007 A 
ATOM     33  C   UNL     1       7.320   3.067  -2.561  0.00  0.00    +0.020 A 
ATOM     34  C   UNL     1       7.312   4.067  -1.605  0.00  0.00    +0.041 A 
ATOM     35  C   UNL     1       6.182   4.280  -0.836  0.00  0.00    +0.020 A 
ATOM     36  C   UNL     1       5.061   3.493  -1.023  0.00  0.00    +0.007 A 
ATOM     37 CL   UNL     1       8.720   5.056  -1.371  0.00  0.00    -0.084 Cl
ENDBRANCH  30  31
ENDBRANCH  29  30
ENDBRANCH  28  29
ENDBRANCH  25  28
ENDBRANCH  24  25
ENDBRANCH   6  24
TORSDOF 9
