REMARK  Name = ZINC45682843
REMARK  6 active torsions:
REMARK  status: ('A' for Active; 'I' for Inactive)
REMARK    1  A    between atoms: C_1  and  C_2
REMARK    2  A    between atoms: C_2  and  C_4
REMARK    3  A    between atoms: C_2  and  N_10
REMARK    4  A    between atoms: N_13  and  C_14
REMARK    5  A    between atoms: C_14  and  C_15
REMARK    6  A    between atoms: C_15  and  C_16
REMARK                            x       y       z     vdW  Elec       q    Type
REMARK                         _______ _______ _______ _____ _____    ______ ____
ROOT
ATOM      1  N   UNL     1       0.711  -0.489   1.189  0.00  0.00    -0.294 N 
ATOM      2  C   UNL     1       0.051  -0.633   2.355  0.00  0.00    +0.300 C 
ATOM      3  O   UNL     1      -1.132  -0.361   2.423  0.00  0.00    -0.253 OA
ATOM      4  N   UNL     1       0.703  -1.080   3.447  0.00  0.00    -0.299 N 
ATOM      5  H   UNL     1       1.654  -0.707   1.135  0.00  0.00    +0.151 HD
ATOM      6  H   UNL     1       1.647  -1.298   3.394  0.00  0.00    +0.150 HD
ENDROOT
BRANCH   1   8
ATOM      7  C   UNL     1      -0.019   1.526   0.010  0.00  0.00    +0.030 C 
ATOM      8  C   UNL     1       0.002  -0.004   0.002  0.00  0.00    +0.100 C 
BRANCH   8   9
ATOM      9  C   UNL     1       0.718  -0.497  -1.257  0.00  0.00    +0.138 C 
ATOM     10  C   UNL     1      -0.066  -0.071  -2.523  0.00  0.00    +0.035 C 
ATOM     11  C   UNL     1       1.068  -0.066  -3.584  0.00  0.00    +0.031 C 
ATOM     12  C   UNL     1       2.287   0.399  -2.759  0.00  0.00    +0.160 C 
ATOM     13  O   UNL     1       2.003   0.133  -1.379  0.00  0.00    -0.375 OA
ENDBRANCH   8   9
ENDBRANCH   1   8
BRANCH   4  14
ATOM     14  C   UNL     1      -0.014  -1.237   4.715  0.00  0.00    +0.111 C 
BRANCH  14  15
ATOM     15  C   UNL     1       0.950  -1.754   5.785  0.00  0.00    +0.061 C 
BRANCH  15  16
ATOM     16  C   UNL     1       0.212  -1.915   7.090  0.00  0.00    -0.008 A 
ATOM     17  C   UNL     1      -0.444  -2.999   7.571  0.00  0.00    +0.012 A 
ATOM     18  C   UNL     1      -1.055  -2.918   8.808  0.00  0.00    +0.023 A 
ATOM     19  C   UNL     1      -0.980  -1.756   9.503  0.00  0.00    +0.055 A 
ATOM     20  S   UNL     1      -0.017  -0.730   8.405  0.00  0.00    -0.086 S 
ATOM     21 BR   UNL     1      -1.703  -1.334  11.199  0.00  0.00    -0.043 Br
ENDBRANCH  15  16
ENDBRANCH  14  15
ENDBRANCH   4  14
TORSDOF 5
