REMARK  Name = ZINC07788152
REMARK  6 active torsions:
REMARK  status: ('A' for Active; 'I' for Inactive)
REMARK    1  A    between atoms: C_4  and  C_7
REMARK    2  A    between atoms: C_7  and  C_8
REMARK    3  A    between atoms: C_13  and  C_14
REMARK    4  A    between atoms: C_13  and  N_58
REMARK    5  A    between atoms: N_16  and  C_17
REMARK    6  A    between atoms: C_18  and  C_26
REMARK                            x       y       z     vdW  Elec       q    Type
REMARK                         _______ _______ _______ _____ _____    ______ ____
ROOT
ATOM      1  C   UNL     1       1.141   2.072   0.002  0.00  0.00    +0.201 C 
ATOM      2  O   UNL     1       2.200   1.480  -0.011  0.00  0.00    -0.278 OA
ATOM      3  N   UNL     1      -0.017   1.382   0.010  0.00  0.00    -0.281 N 
ATOM      4  H   UNL     1      -0.863   1.856   0.016  0.00  0.00    +0.155 HD
ENDROOT
BRANCH   3   5
ATOM      5  C   UNL     1       0.002  -0.004   0.002  0.00  0.00    +0.084 A 
ATOM      6  C   UNL     1      -1.073  -0.881   0.013  0.00  0.00    +0.068 A 
ATOM      7  C   UNL     1      -0.780  -2.304  -0.003  0.00  0.00    -0.023 A 
ATOM      8  C   UNL     1       0.533  -2.620  -0.016  0.00  0.00    -0.004 A 
ATOM      9  S   UNL     1       1.374  -1.062  -0.016  0.00  0.00    -0.077 S 
ATOM     10  C   UNL     1       1.132  -3.993  -0.028  0.00  0.00    +0.043 C 
ATOM     11  C   UNL     1       0.038  -5.000   0.356  0.00  0.00    +0.005 C 
ATOM     12  C   UNL     1      -1.218  -4.703  -0.467  0.00  0.00    +0.005 C 
ATOM     13  C   UNL     1      -1.848  -3.390   0.002  0.00  0.00    +0.037 C 
BRANCH   6  14
ATOM     14  C   UNL     1      -2.455  -0.390   0.036  0.00  0.00    +0.244 C 
ATOM     15  O   UNL     1      -3.044  -0.181  -1.008  0.00  0.00    -0.270 OA
ATOM     16  N   UNL     1      -3.072  -0.170   1.214  0.00  0.00    -0.325 N 
ATOM     17  H   UNL     1      -2.603  -0.337   2.046  0.00  0.00    +0.145 HD
ATOM     18  H   UNL     1      -3.986   0.155   1.229  0.00  0.00    +0.145 HD
ENDBRANCH   6  14
ENDBRANCH   3   5
BRANCH   1  19
ATOM     19  C   UNL     1       1.121   3.579   0.011  0.00  0.00    +0.019 C 
BRANCH  19  25
ATOM     20  C   UNL     1       4.750   5.661   0.893  0.00  0.00    -0.010 C 
ATOM     21  C   UNL     1       3.972   6.008  -0.380  0.00  0.00    -0.015 C 
ATOM     22  C   UNL     1       2.523   5.537  -0.230  0.00  0.00    -0.078 C 
ATOM     23  C   UNL     1       3.199   3.735   1.242  0.00  0.00    -0.078 C 
ATOM     24  C   UNL     1       4.668   4.152   1.137  0.00  0.00    -0.015 C 
ATOM     25  N   UNL     1       2.513   4.074  -0.023  0.00  0.00    +0.385 N 
ATOM     26  H   UNL     1       3.008   3.623  -0.801  0.00  0.00    -0.081 HD
BRANCH  20  27
ATOM     27  C   UNL     1       6.213   6.075   0.727  0.00  0.00    +0.038 C 
BRANCH  27  31
ATOM     28  C   UNL     1       8.302   5.430   4.396  0.00  0.00    +0.000 A 
ATOM     29  C   UNL     1       8.238   4.423   3.451  0.00  0.00    +0.000 A 
ATOM     30  C   UNL     1       7.562   4.632   2.263  0.00  0.00    +0.003 A 
ATOM     31  C   UNL     1       6.950   5.847   2.021  0.00  0.00    -0.047 A 
ATOM     32  C   UNL     1       7.018   6.856   2.964  0.00  0.00    +0.003 A 
ATOM     33  C   UNL     1       7.690   6.645   4.154  0.00  0.00    +0.000 A 
ENDBRANCH  27  31
ENDBRANCH  20  27
ENDBRANCH  19  25
ENDBRANCH   1  19
TORSDOF 6
