REMARK  Name = ZINC67427710
REMARK  7 active torsions:
REMARK  status: ('A' for Active; 'I' for Inactive)
REMARK    1  A    between atoms: C_1  and  N_2
REMARK    2  A    between atoms: N_2  and  C_3
REMARK    3  A    between atoms: N_2  and  C_15
REMARK    4  A    between atoms: C_3  and  C_4
REMARK    5  A    between atoms: C_9  and  N_10
REMARK    6  A    between atoms: C_15  and  C_16
REMARK    7  A    between atoms: C_19  and  C_21
REMARK                            x       y       z     vdW  Elec       q    Type
REMARK                         _______ _______ _______ _____ _____    ______ ____
ROOT
ATOM      1  C   UNL     1      -0.278   1.127   1.111  0.00  0.00    -0.095 C 
ATOM      2  N   UNL     1      -0.053  -0.245   0.639  0.00  0.00    +0.386 N 
ATOM      3  H   UNL     1       0.204  -0.228  -0.337  0.00  0.00    -0.081 HD
ENDROOT
BRANCH   2   4
ATOM      4  C   UNL     1       1.030  -0.860   1.419  0.00  0.00    -0.041 C 
BRANCH   4   5
ATOM      5  C   UNL     1       2.324  -0.145   1.132  0.00  0.00    -0.043 A 
ATOM      6  C   UNL     1       2.794   0.813   2.010  0.00  0.00    +0.003 A 
ATOM      7  C   UNL     1       3.982   1.470   1.747  0.00  0.00    +0.000 A 
ATOM      8  C   UNL     1       4.704   1.171   0.605  0.00  0.00    +0.002 A 
ATOM      9  C   UNL     1       4.240   0.215  -0.276  0.00  0.00    +0.023 A 
ATOM     10  C   UNL     1       3.049  -0.451  -0.012  0.00  0.00    +0.031 A 
BRANCH  10  11
ATOM     11  N   UNL     1       2.580  -1.423  -0.899  0.00  0.00    -0.330 N 
ATOM     12  C   UNL     1       1.818  -1.163  -2.130  0.00  0.00    +0.105 C 
ATOM     13  C   UNL     1       1.496  -2.532  -2.766  0.00  0.00    +0.020 C 
ATOM     14  C   UNL     1       1.605  -3.508  -1.565  0.00  0.00    +0.020 C 
ATOM     15  C   UNL     1       2.772  -2.878  -0.760  0.00  0.00    +0.105 C 
ENDBRANCH  10  11
ENDBRANCH   4   5
ENDBRANCH   2   4
BRANCH   2  16
ATOM     16  C   UNL     1      -1.284  -1.029   0.807  0.00  0.00    +0.019 C 
BRANCH  16  17
ATOM     17  C   UNL     1      -2.361  -0.472  -0.088  0.00  0.00    +0.180 A 
ATOM     18  N   UNL     1      -2.595  -0.848  -1.313  0.00  0.00    -0.223 NA
ATOM     19  C   UNL     1      -3.624  -0.137  -1.798  0.00  0.00    +0.161 A 
ATOM     20  C   UNL     1      -4.032   0.713  -0.816  0.00  0.00    +0.162 A 
ATOM     21  O   UNL     1      -3.235   0.487   0.252  0.00  0.00    -0.441 OA
BRANCH  20  22
ATOM     22  C   UNL     1      -5.134   1.686  -0.899  0.00  0.00    +0.056 A 
ATOM     23  C   UNL     1      -5.979   1.948  -1.948  0.00  0.00    +0.019 A 
ATOM     24  C   UNL     1      -6.947   2.915  -1.790  0.00  0.00    +0.008 A 
ATOM     25  C   UNL     1      -7.036   3.577  -0.608  0.00  0.00    +0.046 A 
ATOM     26  S   UNL     1      -5.723   2.827   0.341  0.00  0.00    -0.094 S 
ENDBRANCH  20  22
ENDBRANCH  16  17
ENDBRANCH   2  16
TORSDOF 6
