REMARK  Name = ZINC20617423
REMARK  11 active torsions:
REMARK  status: ('A' for Active; 'I' for Inactive)
REMARK    1  A    between atoms: C_1  and  C_2
REMARK    2  A    between atoms: C_2  and  C_3
REMARK    3  A    between atoms: C_6  and  N_9
REMARK    4  A    between atoms: C_11  and  C_23
REMARK    5  A    between atoms: C_14  and  C_21
REMARK    6  A    between atoms: C_17  and  C_20
REMARK    7  A    between atoms: C_21  and  O_22
REMARK    8  A    between atoms: N_25  and  C_26
REMARK    9  A    between atoms: C_28  and  C_35
REMARK   10  A    between atoms: C_31  and  O_32
REMARK   11  A    between atoms: O_32  and  C_33
REMARK                            x       y       z     vdW  Elec       q    Type
REMARK                         _______ _______ _______ _____ _____    ______ ____
ROOT
ATOM      1  N   UNL     1       3.380  -0.210   1.266  0.00  0.00    -0.325 N 
ATOM      2  C   UNL     1       2.372   0.221   0.541  0.00  0.00    +0.212 A 
ATOM      3  C   UNL     1       1.207  -0.646   0.272  0.00  0.00    +0.098 A 
ATOM      4  C   UNL     1       0.002  -0.025   0.024  0.00  0.00    +0.030 A 
ATOM      5  C   UNL     1      -0.015   1.439   0.046  0.00  0.00    +0.027 A 
ATOM      6  C   UNL     1      -1.214   2.162   0.073  0.00  0.00    +0.007 A 
ATOM      7  C   UNL     1      -1.152   3.540   0.091  0.00  0.00    +0.117 A 
ATOM      8  N   UNL     1       0.008   4.172   0.094  0.00  0.00    -0.256 NA
ATOM      9  C   UNL     1       1.162   3.537   0.073  0.00  0.00    +0.081 A 
ATOM     10  C   UNL     1       1.200   2.150   0.047  0.00  0.00    +0.159 A 
ATOM     11  O   UNL     1       2.373   1.475   0.020  0.00  0.00    -0.437 OA
ATOM     12  C   UNL     1       2.449   4.322   0.078  0.00  0.00    +0.069 C 
ATOM     13  H   UNL     1       3.328  -1.196   1.750  0.00  0.00    +0.169 HD
ENDROOT
BRANCH   1  17
ATOM     14  C   UNL     1       6.750   2.145   1.730  0.00  0.00    -0.047 A 
ATOM     15  C   UNL     1       5.748   2.181   2.684  0.00  0.00    +0.005 A 
ATOM     16  C   UNL     1       4.622   1.399   2.536  0.00  0.00    +0.026 A 
ATOM     17  C   UNL     1       4.494   0.569   1.419  0.00  0.00    +0.042 A 
ATOM     18  C   UNL     1       5.512   0.534   0.463  0.00  0.00    +0.026 A 
ATOM     19  C   UNL     1       6.630   1.325   0.622  0.00  0.00    +0.005 A 
BRANCH  14  21
ATOM     20  C   UNL     1       9.041   2.224   2.677  0.00  0.00    +0.009 C 
ATOM     21  C   UNL     1       7.978   3.002   1.899  0.00  0.00    +0.032 C 
ENDBRANCH  14  21
ENDBRANCH   1  17
BRANCH   3  22
ATOM     22  C   UNL     1       1.327  -2.115   0.269  0.00  0.00    +0.253 C 
ATOM     23  O   UNL     1       0.351  -2.805   0.044  0.00  0.00    -0.270 OA
ATOM     24  N   UNL     1       2.520  -2.693   0.515  0.00  0.00    -0.278 N 
ATOM     25  H   UNL     1       3.420  -2.072   0.627  0.00  0.00    +0.155 HD
BRANCH  24  26
ATOM     26  C   UNL     1       2.612  -4.087   0.628  0.00  0.00    +0.076 A 
ATOM     27  C   UNL     1       1.501  -4.829   1.001  0.00  0.00    +0.031 A 
ATOM     28  C   UNL     1       1.594  -6.203   1.112  0.00  0.00    -0.030 A 
ATOM     29  C   UNL     1       2.793  -6.842   0.852  0.00  0.00    +0.047 A 
ATOM     30  C   UNL     1       3.906  -6.108   0.480  0.00  0.00    +0.067 A 
ATOM     31  C   UNL     1       3.818  -4.731   0.361  0.00  0.00    +0.143 A 
ATOM     32 CL   UNL     1       2.904  -8.569   0.993  0.00  0.00    -0.083 Cl
ATOM     33  C   UNL     1       0.386  -7.008   1.518  0.00  0.00    +0.045 C 
BRANCH  31  34
ATOM     34  O   UNL     1       4.909  -4.008  -0.010  0.00  0.00    -0.493 OA
ATOM     35  C   UNL     1       6.111  -4.735  -0.268  0.00  0.00    +0.277 C 
ENDBRANCH  31  34
ENDBRANCH  24  26
ENDBRANCH   3  22
BRANCH   6  36
ATOM     36  C   UNL     1      -2.543   1.451   0.077  0.00  0.00    +0.193 C 
BRANCH  36  37
ATOM     37  O   UNL     1      -3.599   2.413   0.106  0.00  0.00    -0.390 OA
ATOM     38  H   UNL     1      -4.647   2.080   0.113  0.00  0.00    +0.210 HD
ENDBRANCH  36  37
ENDBRANCH   6  36
TORSDOF 7
