REMARK  Name = ZINC06811914
REMARK  8 active torsions:
REMARK  status: ('A' for Active; 'I' for Inactive)
REMARK    1  A    between atoms: C_1  and  C_2
REMARK    2  A    between atoms: C_2  and  C_3
REMARK    3  A    between atoms: C_8  and  N_9
REMARK    4  A    between atoms: C_10  and  C_12
REMARK    5  A    between atoms: C_14  and  C_25
REMARK    6  A    between atoms: C_18  and  C_23
REMARK    7  A    between atoms: C_23  and  C_24
REMARK    8  A    between atoms: C_28  and  C_31
REMARK                            x       y       z     vdW  Elec       q    Type
REMARK                         _______ _______ _______ _____ _____    ______ ____
ROOT
ATOM      1  C   UNL     1      -0.735   1.598  -1.235  0.00  0.00    +0.166 C 
ATOM      2  C   UNL     1       0.004   1.093   0.011  0.00  0.00    +0.140 C 
ATOM      3  N   UNL     1      -0.663   1.567   1.224  0.00  0.00    -0.272 N 
ATOM      4  N   UNL     1      -1.955   1.162   1.331  0.00  0.00    -0.225 N 
ATOM      5  C   UNL     1      -2.709   1.070   2.466  0.00  0.00    +0.151 A 
ATOM      6  N   UNL     1      -3.894   0.655   2.112  0.00  0.00    -0.132 NA
ATOM      7  N   UNL     1      -3.939   0.475   0.837  0.00  0.00    -0.121 NA
ATOM      8  C   UNL     1      -2.779   0.765   0.317  0.00  0.00    +0.209 A 
ATOM      9  S   UNL     1      -2.291   0.675  -1.377  0.00  0.00    -0.069 S 
ATOM     10  H   UNL     1      -0.591   2.570   1.309  0.00  0.00    +0.167 HD
ENDROOT
BRANCH   2  11
ATOM     11  C   UNL     1       1.422   1.604  -0.010  0.00  0.00    -0.024 A 
ATOM     12  C   UNL     1       1.696   2.897   0.394  0.00  0.00    +0.006 A 
ATOM     13  C   UNL     1       2.997   3.365   0.380  0.00  0.00    +0.004 A 
ATOM     14  C   UNL     1       4.022   2.542  -0.048  0.00  0.00    -0.050 A 
ATOM     15  C   UNL     1       3.747   1.251  -0.458  0.00  0.00    +0.004 A 
ATOM     16  C   UNL     1       2.447   0.782  -0.438  0.00  0.00    +0.006 A 
ATOM     17  C   UNL     1       5.440   3.053  -0.069  0.00  0.00    +0.044 C 
ENDBRANCH   2  11
BRANCH   1  19
ATOM     18  N   UNL     1       0.085   2.241  -3.478  0.00  0.00    -0.284 N 
ATOM     19  C   UNL     1       0.107   1.357  -2.461  0.00  0.00    +0.233 C 
ATOM     20  O   UNL     1       0.806   0.368  -2.532  0.00  0.00    -0.274 OA
ATOM     21  H   UNL     1      -0.532   2.989  -3.457  0.00  0.00    +0.155 HD
BRANCH  18  27
ATOM     22  C   UNL     1       0.622   2.613  -5.803  0.00  0.00    -0.026 A 
ATOM     23  C   UNL     1       1.482   2.456  -6.873  0.00  0.00    +0.005 A 
ATOM     24  C   UNL     1       2.666   1.760  -6.713  0.00  0.00    +0.000 A 
ATOM     25  C   UNL     1       2.995   1.222  -5.482  0.00  0.00    +0.002 A 
ATOM     26  C   UNL     1       2.142   1.380  -4.408  0.00  0.00    +0.023 A 
ATOM     27  C   UNL     1       0.952   2.079  -4.565  0.00  0.00    +0.037 A 
BRANCH  22  29
ATOM     28  C   UNL     1      -0.470   4.827  -5.569  0.00  0.00    +0.009 C 
ATOM     29  C   UNL     1      -0.671   3.367  -5.980  0.00  0.00    +0.033 C 
ENDBRANCH  22  29
ENDBRANCH  18  27
ENDBRANCH   1  19
BRANCH   5  30
ATOM     30  C   UNL     1      -2.256   1.388   3.867  0.00  0.00    +0.074 C 
ATOM     31  C   UNL     1      -2.529   2.863   4.169  0.00  0.00    +0.012 C 
ENDBRANCH   5  30
TORSDOF 5
