REMARK  Name = ZINC08720914
REMARK  16 active torsions:
REMARK  status: ('A' for Active; 'I' for Inactive)
REMARK    1  A    between atoms: C_1  and  C_2
REMARK    2  A    between atoms: C_2  and  C_3
REMARK    3  A    between atoms: C_5  and  C_20
REMARK    4  A    between atoms: C_7  and  C_18
REMARK    5  A    between atoms: C_8  and  N_9
REMARK    6  A    between atoms: C_10  and  C_12
REMARK    7  A    between atoms: C_16  and  C_17
REMARK    8  A    between atoms: C_18  and  C_19
REMARK    9  A    between atoms: C_20  and  C_21
REMARK   10  A    between atoms: C_23  and  C_38
REMARK   11  A    between atoms: C_24  and  N_29
REMARK   12  A    between atoms: C_25  and  C_27
REMARK   13  A    between atoms: C_27  and  C_28
REMARK   14  A    between atoms: C_30  and  C_32
REMARK   15  A    between atoms: C_36  and  C_37
REMARK   16  A    between atoms: C_38  and  C_39
REMARK                            x       y       z     vdW  Elec       q    Type
REMARK                         _______ _______ _______ _____ _____    ______ ____
ROOT
ATOM      1  C   UNL     1       6.920   0.119   5.104  0.00  0.00    +0.070 C 
ENDROOT
BRANCH   1   4
ATOM      2  C   UNL     1       8.263   1.078   1.710  0.00  0.00    -0.026 A 
ATOM      3  C   UNL     1       7.928   0.334   2.824  0.00  0.00    +0.009 A 
ATOM      4  C   UNL     1       7.290   0.935   3.893  0.00  0.00    -0.042 A 
ATOM      5  C   UNL     1       6.990   2.284   3.853  0.00  0.00    +0.009 A 
ATOM      6  C   UNL     1       7.327   3.036   2.744  0.00  0.00    -0.026 A 
ATOM      7  C   UNL     1       7.969   2.434   1.669  0.00  0.00    +0.040 A 
BRANCH   7   8
ATOM      8  N   UNL     1       8.312   3.192   0.544  0.00  0.00    -0.281 N 
ATOM      9  C   UNL     1       7.372   3.921  -0.090  0.00  0.00    +0.252 C 
ATOM     10  O   UNL     1       6.216   3.883   0.287  0.00  0.00    -0.270 OA
ATOM     11  H   UNL     1       9.226   3.193   0.221  0.00  0.00    +0.155 HD
BRANCH   9  12
ATOM     12  C   UNL     1       7.745   4.763  -1.240  0.00  0.00    +0.078 A 
ATOM     13  C   UNL     1       9.084   4.927  -1.825  0.00  0.00    +0.054 A 
ATOM     14  C   UNL     1       8.937   5.785  -2.846  0.00  0.00    +0.196 A 
ATOM     15  O   UNL     1       7.648   6.147  -2.936  0.00  0.00    -0.467 OA
ATOM     16  C   UNL     1       6.919   5.554  -1.985  0.00  0.00    +0.114 A 
ATOM     17  C   UNL     1       5.437   5.726  -1.774  0.00  0.00    +0.087 C 
ENDBRANCH   9  12
ENDBRANCH   7   8
BRANCH   2  19
ATOM     18  C   UNL     1      10.455   0.703   0.613  0.00  0.00    +0.009 C 
ATOM     19  C   UNL     1       8.953   0.420   0.543  0.00  0.00    +0.033 C 
ENDBRANCH   2  19
BRANCH   6  20
ATOM     20  C   UNL     1       7.001   4.506   2.701  0.00  0.00    +0.033 C 
ATOM     21  C   UNL     1       5.722   4.768   3.499  0.00  0.00    +0.009 C 
ENDBRANCH   6  20
ENDBRANCH   1   4
BRANCH   1  22
ATOM     22  C   UNL     1       5.536  -0.451   4.923  0.00  0.00    -0.042 A 
ATOM     23  C   UNL     1       4.434   0.261   5.359  0.00  0.00    +0.009 A 
ATOM     24  C   UNL     1       3.165  -0.256   5.190  0.00  0.00    -0.026 A 
ATOM     25  C   UNL     1       2.997  -1.497   4.591  0.00  0.00    +0.040 A 
ATOM     26  C   UNL     1       4.106  -2.212   4.158  0.00  0.00    -0.026 A 
ATOM     27  C   UNL     1       5.372  -1.687   4.325  0.00  0.00    +0.009 A 
BRANCH  25  28
ATOM     28  N   UNL     1       1.713  -2.026   4.423  0.00  0.00    -0.281 N 
ATOM     29  C   UNL     1       0.902  -2.179   5.488  0.00  0.00    +0.252 C 
ATOM     30  O   UNL     1       1.251  -1.776   6.581  0.00  0.00    -0.270 OA
ATOM     31  H   UNL     1       1.405  -2.282   3.539  0.00  0.00    +0.155 HD
BRANCH  29  32
ATOM     32  C   UNL     1      -0.407  -2.837   5.330  0.00  0.00    +0.078 A 
ATOM     33  C   UNL     1      -0.987  -3.375   4.090  0.00  0.00    +0.054 A 
ATOM     34  C   UNL     1      -2.184  -3.877   4.431  0.00  0.00    +0.196 A 
ATOM     35  O   UNL     1      -2.383  -3.686   5.744  0.00  0.00    -0.467 OA
ATOM     36  C   UNL     1      -1.337  -3.068   6.301  0.00  0.00    +0.114 A 
ATOM     37  C   UNL     1      -1.207  -2.691   7.754  0.00  0.00    +0.087 C 
ENDBRANCH  29  32
ENDBRANCH  25  28
BRANCH  26  38
ATOM     38  C   UNL     1       3.928  -3.559   3.507  0.00  0.00    +0.033 C 
ATOM     39  C   UNL     1       3.650  -3.371   2.014  0.00  0.00    +0.009 C 
ENDBRANCH  26  38
BRANCH  24  40
ATOM     40  C   UNL     1       1.964   0.524   5.661  0.00  0.00    +0.033 C 
ATOM     41  C   UNL     1       2.381   1.472   6.787  0.00  0.00    +0.009 C 
ENDBRANCH  24  40
ENDBRANCH   1  22
TORSDOF 10
