REMARK  Name = ZINC01381914
REMARK  8 active torsions:
REMARK  status: ('A' for Active; 'I' for Inactive)
REMARK    1  A    between atoms: C_1  and  C_2
REMARK    2  A    between atoms: C_6  and  C_15
REMARK    3  A    between atoms: C_13  and  C_14
REMARK    4  A    between atoms: C_15  and  C_17
REMARK    5  A    between atoms: C_15  and  N_28
REMARK    6  A    between atoms: N_21  and  C_22
REMARK    7  A    between atoms: C_22  and  C_23
REMARK    8  A    between atoms: N_31  and  C_34
REMARK                            x       y       z     vdW  Elec       q    Type
REMARK                         _______ _______ _______ _____ _____    ______ ____
ROOT
ATOM      1  C   UNL     1      -4.986   3.843   0.045  0.00  0.00    +0.162 C 
ENDROOT
BRANCH   1   7
ATOM      2  C   UNL     1       2.426   4.505   0.538  0.00  0.00    +0.044 C 
ATOM      3  C   UNL     1       1.185   3.653   0.451  0.00  0.00    -0.047 A 
ATOM      4  C   UNL     1      -0.042   4.250   0.382  0.00  0.00    +0.013 A 
ATOM      5  C   UNL     1      -1.193   3.460   0.300  0.00  0.00    -0.001 A 
ATOM      6  C   UNL     1      -2.523   4.067   0.225  0.00  0.00    +0.021 A 
ATOM      7  C   UNL     1      -3.603   3.251   0.130  0.00  0.00    +0.042 A 
ATOM      8  C   UNL     1      -3.436   1.850   0.123  0.00  0.00    +0.254 A 
ATOM      9  O   UNL     1      -4.420   1.135   0.047  0.00  0.00    -0.268 OA
ATOM     10  N   UNL     1      -2.219   1.284   0.196  0.00  0.00    -0.322 N 
ATOM     11  H   UNL     1      -2.120   0.188   0.188  0.00  0.00    +0.169 HD
ATOM     12  C   UNL     1      -1.081   2.057   0.283  0.00  0.00    +0.049 A 
ATOM     13  C   UNL     1       0.179   1.472   0.360  0.00  0.00    +0.030 A 
ATOM     14  C   UNL     1       1.300   2.270   0.440  0.00  0.00    -0.046 A 
ATOM     15  C   UNL     1       2.664   1.634   0.517  0.00  0.00    +0.044 C 
ENDBRANCH   1   7
BRANCH   1  16
ATOM     16  N   UNL     1      -5.827   3.276   1.108  0.00  0.00    -0.292 NA
ATOM     17  C   UNL     1      -7.204   3.782   1.017  0.00  0.00    +0.067 C 
ATOM     18  C   UNL     1      -8.064   3.109   2.088  0.00  0.00    -0.063 C 
ATOM     19  N   UNL     1      -7.492   3.382   3.415  0.00  0.00    +0.383 N 
ATOM     20  C   UNL     1      -6.116   2.876   3.506  0.00  0.00    -0.063 C 
ATOM     21  C   UNL     1      -5.255   3.549   2.434  0.00  0.00    +0.067 C 
ATOM     22  H   UNL     1      -7.463   4.472   3.554  0.00  0.00    -0.081 HD
BRANCH  19  23
ATOM     23  C   UNL     1      -8.334   2.815   4.477  0.00  0.00    -0.068 C 
ATOM     24  C   UNL     1      -8.361   1.290   4.346  0.00  0.00    -0.015 C 
ATOM     25  C   UNL     1      -9.237   0.700   5.453  0.00  0.00    -0.002 C 
ATOM     26  C   UNL     1     -10.660   1.249   5.325  0.00  0.00    -0.000 C 
ATOM     27  C   UNL     1     -10.632   2.773   5.456  0.00  0.00    -0.002 C 
ATOM     28  C   UNL     1      -9.756   3.364   4.349  0.00  0.00    -0.015 C 
ENDBRANCH  19  23
ENDBRANCH   1  16
BRANCH   1  29
ATOM     29  C   UNL     1      -5.589   3.522  -1.298  0.00  0.00    +0.173 A 
ATOM     30  N   UNL     1      -6.060   2.362  -1.687  0.00  0.00    -0.111 NA
ATOM     31  N   UNL     1      -6.488   2.492  -2.895  0.00  0.00    -0.023 NA
ATOM     32  N   UNL     1      -6.295   3.702  -3.290  0.00  0.00    -0.043 NA
ATOM     33  N   UNL     1      -5.742   4.368  -2.333  0.00  0.00    -0.220 N 
BRANCH  33  34
ATOM     34  C   UNL     1      -5.355   5.780  -2.367  0.00  0.00    +0.221 C 
BRANCH  34  35
ATOM     35  C   UNL     1      -3.938   5.901  -2.867  0.00  0.00    +0.126 A 
ATOM     36  C   UNL     1      -3.566   6.034  -4.152  0.00  0.00    +0.046 A 
ATOM     37  C   UNL     1      -2.155   6.114  -4.164  0.00  0.00    +0.041 A 
ATOM     38  C   UNL     1      -1.748   6.016  -2.885  0.00  0.00    +0.195 A 
ATOM     39  O   UNL     1      -2.833   5.887  -2.104  0.00  0.00    -0.466 OA
ENDBRANCH  34  35
ENDBRANCH  33  34
ENDBRANCH   1  29
TORSDOF 6
