REMARK  Name = ZINC12418534
REMARK  10 active torsions:
REMARK  status: ('A' for Active; 'I' for Inactive)
REMARK    1  A    between atoms: C_1  and  C_2
REMARK    2  A    between atoms: C_2  and  C_3
REMARK    3  A    between atoms: C_3  and  C_4
REMARK    4  A    between atoms: C_3  and  C_5
REMARK    5  A    between atoms: C_3  and  N_7
REMARK    6  A    between atoms: C_8  and  C_10
REMARK    7  A    between atoms: C_14  and  C_23
REMARK    8  A    between atoms: C_16  and  C_19
REMARK    9  A    between atoms: C_28  and  O_29
REMARK   10  A    between atoms: O_29  and  C_30
REMARK                            x       y       z     vdW  Elec       q    Type
REMARK                         _______ _______ _______ _____ _____    ______ ____
ROOT
ATOM      1  C   UNL     1       1.312   1.824  -0.001  0.00  0.00    +0.168 A 
ATOM      2  C   UNL     1      -0.017   1.384   0.010  0.00  0.00    +0.117 A 
ATOM      3  C   UNL     1       0.002  -0.004   0.002  0.00  0.00    +0.176 A 
ATOM      4  N   UNL     1      -0.977  -0.918   0.007  0.00  0.00    -0.226 NA
ATOM      5  C   UNL     1      -0.697  -2.208  -0.002  0.00  0.00    +0.079 A 
ATOM      6  C   UNL     1       0.650  -2.640  -0.018  0.00  0.00    +0.061 A 
ATOM      7  C   UNL     1       1.641  -1.722  -0.022  0.00  0.00    +0.149 A 
ATOM      8  N   UNL     1       1.320  -0.391  -0.013  0.00  0.00    -0.208 N 
ATOM      9  N   UNL     1       2.108   0.766  -0.014  0.00  0.00    -0.158 NA
ATOM     10 CL   UNL     1      -1.431   2.390   0.022  0.00  0.00    -0.077 Cl
ENDROOT
BRANCH   5  11
ATOM     11  C   UNL     1      -1.793  -3.203   0.003  0.00  0.00    +0.042 A 
ATOM     12  C   UNL     1      -1.502  -4.567  -0.007  0.00  0.00    +0.013 A 
ATOM     13  C   UNL     1      -2.527  -5.489  -0.003  0.00  0.00    +0.001 A 
ATOM     14  C   UNL     1      -3.845  -5.067   0.013  0.00  0.00    +0.004 A 
ATOM     15  C   UNL     1      -4.146  -3.719   0.023  0.00  0.00    +0.046 A 
ATOM     16  C   UNL     1      -3.127  -2.780   0.024  0.00  0.00    +0.129 A 
BRANCH  16  17
ATOM     17  O   UNL     1      -3.421  -1.454   0.039  0.00  0.00    -0.494 OA
ATOM     18  C   UNL     1      -4.805  -1.097   0.060  0.00  0.00    +0.277 C 
ENDBRANCH  16  17
ENDBRANCH   5  11
BRANCH   1  20
ATOM     19  N   UNL     1       3.067   3.530  -0.009  0.00  0.00    -0.294 N 
ATOM     20  C   UNL     1       1.752   3.235   0.002  0.00  0.00    +0.267 C 
ATOM     21  O   UNL     1       0.929   4.129   0.013  0.00  0.00    -0.268 OA
ATOM     22  H   UNL     1       3.725   2.817  -0.018  0.00  0.00    +0.151 HD
BRANCH  19  23
ATOM     23  C   UNL     1       3.504   4.928  -0.007  0.00  0.00    +0.093 C 
ATOM     24  C   UNL     1       2.957   5.636  -1.248  0.00  0.00    +0.046 C 
BRANCH  23  26
ATOM     25  C   UNL     1       3.528   4.917   2.492  0.00  0.00    +0.007 C 
ATOM     26  C   UNL     1       2.980   5.624   1.251  0.00  0.00    +0.035 C 
ENDBRANCH  23  26
BRANCH  23  27
ATOM     27  C   UNL     1       4.975   4.983  -0.020  0.00  0.00    -0.080 C 
ATOM     28  C   UNL     1       6.149   5.026  -0.031  0.00  0.00    +0.006 C 
ENDBRANCH  23  27
ENDBRANCH  19  23
ENDBRANCH   1  20
BRANCH   7  29
ATOM     29  C   UNL     1       3.083  -2.158  -0.038  0.00  0.00    +0.434 C 
ATOM     30  F   UNL     1       3.542  -2.299   1.276  0.00  0.00    -0.164 F 
ATOM     31  F   UNL     1       3.193  -3.383  -0.705  0.00  0.00    -0.164 F 
ATOM     32  F   UNL     1       3.854  -1.196  -0.700  0.00  0.00    -0.164 F 
ENDBRANCH   7  29
TORSDOF 7
