REMARK  Name = ZINC28629487
REMARK  5 active torsions:
REMARK  status: ('A' for Active; 'I' for Inactive)
REMARK    1  A    between atoms: C_4  and  C_7
REMARK    2  A    between atoms: C_9  and  C_24
REMARK    3  A    between atoms: C_11  and  C_16
REMARK    4  A    between atoms: C_11  and  O_23
REMARK    5  A    between atoms: C_24  and  C_26
REMARK                            x       y       z     vdW  Elec       q    Type
REMARK                         _______ _______ _______ _____ _____    ______ ____
ROOT
ATOM      1  C   UNL     1       0.066   0.110  -0.062  0.00  0.00    +0.120 C 
ATOM      2  C   UNL     1      -0.380  -0.511  -1.390  0.00  0.00    +0.144 C 
ATOM      3  C   UNL     1      -0.498  -2.027  -1.204  0.00  0.00    +0.172 C 
ATOM      4  N   UNL     1      -1.404  -2.306  -0.089  0.00  0.00    -0.267 N 
ATOM      5  C   UNL     1      -1.539  -1.446   0.932  0.00  0.00    +0.302 C 
ATOM      6  O   UNL     1      -2.297  -1.730   1.839  0.00  0.00    -0.253 OA
ATOM      7  N   UNL     1      -0.869  -0.284   0.993  0.00  0.00    -0.292 N 
ATOM      8  H   UNL     1      -1.991  -3.236  -0.076  0.00  0.00    +0.153 HD
ATOM      9  H   UNL     1      -1.035   0.376   1.857  0.00  0.00    +0.151 HD
ENDROOT
BRANCH   3  10
ATOM     10  C   UNL     1      -1.045  -2.648  -2.464  0.00  0.00    +0.003 A 
ATOM     11  C   UNL     1      -2.409  -2.800  -2.623  0.00  0.00    +0.009 A 
ATOM     12  C   UNL     1      -2.912  -3.365  -3.781  0.00  0.00    +0.016 A 
ATOM     13  C   UNL     1      -2.048  -3.787  -4.775  0.00  0.00    +0.018 A 
ATOM     14  C   UNL     1      -0.682  -3.639  -4.613  0.00  0.00    +0.016 A 
ATOM     15  C   UNL     1      -0.181  -3.070  -3.457  0.00  0.00    +0.009 A 
ATOM     16 BR   UNL     1      -2.734  -4.566  -6.356  0.00  0.00    -0.050 Br
ENDBRANCH   3  10
BRANCH   1  20
ATOM     17  C   UNL     1       0.105   4.367  -0.417  0.00  0.00    +0.000 A 
ATOM     18  C   UNL     1       1.263   3.644  -0.635  0.00  0.00    +0.000 A 
ATOM     19  C   UNL     1       1.250   2.267  -0.520  0.00  0.00    +0.005 A 
ATOM     20  C   UNL     1       0.080   1.612  -0.187  0.00  0.00    -0.026 A 
ATOM     21  C   UNL     1      -1.080   2.334   0.026  0.00  0.00    +0.005 A 
ATOM     22  C   UNL     1      -1.066   3.712  -0.085  0.00  0.00    +0.000 A 
ENDBRANCH   1  20
BRANCH   3  23
ATOM     23  O   UNL     1       0.791  -2.575  -0.922  0.00  0.00    -0.367 OA
ATOM     24  H   UNL     1       0.905  -3.657  -0.758  0.00  0.00    +0.212 HD
ENDBRANCH   3  23
BRANCH   2  25
ATOM     25  C   UNL     1      -1.719   0.056  -1.788  0.00  0.00    +0.245 C 
ATOM     26  O   UNL     1      -2.678  -0.100  -1.072  0.00  0.00    -0.287 OA
BRANCH  25  27
ATOM     27  C   UNL     1      -1.860   0.817  -3.082  0.00  0.00    +0.451 C 
ATOM     28  F   UNL     1      -3.154   1.340  -3.176  0.00  0.00    -0.163 F 
ATOM     29  F   UNL     1      -0.930   1.862  -3.112  0.00  0.00    -0.163 F 
ATOM     30  F   UNL     1      -1.627  -0.046  -4.158  0.00  0.00    -0.163 F 
ENDBRANCH  25  27
ENDBRANCH   2  25
TORSDOF 5
