REMARK  Name = ZINC08713783
REMARK  7 active torsions:
REMARK  status: ('A' for Active; 'I' for Inactive)
REMARK    1  A    between atoms: C_1  and  C_2
REMARK    2  A    between atoms: C_9  and  C_14
REMARK    3  A    between atoms: C_14  and  O_16
REMARK    4  A    between atoms: O_16  and  C_17
REMARK    5  A    between atoms: C_17  and  C_18
REMARK    6  A    between atoms: N_20  and  C_21
REMARK    7  A    between atoms: C_22  and  C_30
REMARK                            x       y       z     vdW  Elec       q    Type
REMARK                         _______ _______ _______ _____ _____    ______ ____
ROOT
ATOM      1  C   UNL     1       3.554   2.061  -0.021  0.00  0.00    +0.255 C 
ATOM      2  O   UNL     1       3.379   3.261  -0.013  0.00  0.00    -0.272 OA
ATOM      3  N   UNL     1       4.806   1.563  -0.035  0.00  0.00    -0.277 N 
ATOM      4  H   UNL     1       4.947   0.603  -0.042  0.00  0.00    +0.155 HD
ENDROOT
BRANCH   3   5
ATOM      5  C   UNL     1       5.895   2.422  -0.041  0.00  0.00    +0.084 A 
ATOM      6  C   UNL     1       7.245   2.103  -0.050  0.00  0.00    +0.068 A 
ATOM      7  C   UNL     1       8.195   3.203  -0.058  0.00  0.00    -0.023 A 
ATOM      8  C   UNL     1       7.646   4.437  -0.046  0.00  0.00    -0.004 A 
ATOM      9  S   UNL     1       5.898   4.155  -0.031  0.00  0.00    -0.077 S 
ATOM     10  C   UNL     1       8.370   5.748  -0.044  0.00  0.00    +0.043 C 
ATOM     11  C   UNL     1       9.839   5.489   0.320  0.00  0.00    +0.005 C 
ATOM     12  C   UNL     1      10.359   4.324  -0.529  0.00  0.00    +0.005 C 
ATOM     13  C   UNL     1       9.707   3.017  -0.073  0.00  0.00    +0.037 C 
BRANCH   6  14
ATOM     14  C   UNL     1       7.697   0.709  -0.056  0.00  0.00    +0.244 C 
ATOM     15  O   UNL     1       7.879   0.132  -1.112  0.00  0.00    -0.270 OA
ATOM     16  N   UNL     1       7.912   0.065   1.109  0.00  0.00    -0.325 N 
ATOM     17  H   UNL     1       7.767   0.525   1.951  0.00  0.00    +0.145 HD
ATOM     18  H   UNL     1       8.211  -0.857   1.106  0.00  0.00    +0.145 HD
ENDBRANCH   6  14
ENDBRANCH   3   5
BRANCH   1  19
ATOM     19  C   UNL     1       2.372   1.127  -0.015  0.00  0.00    +0.328 C 
BRANCH  19  20
ATOM     20  O   UNL     1       1.143   1.901   0.001  0.00  0.00    -0.452 OA
BRANCH  20  21
ATOM     21  C   UNL     1      -0.014   1.211   0.009  0.00  0.00    +0.340 C 
ATOM     22  O   UNL     1       0.002  -0.004   0.002  0.00  0.00    -0.245 OA
BRANCH  21  30
ATOM     23  C   UNL     1      -6.054   3.054  -2.347  0.00  0.00    +0.029 C 
ATOM     24  C   UNL     1      -6.349   2.988  -0.847  0.00  0.00    +0.134 C 
ATOM     25  C   UNL     1      -6.094   1.594  -0.344  0.00  0.00    +0.230 C 
ATOM     26  O   UNL     1      -7.031   0.825  -0.284  0.00  0.00    -0.274 OA
ATOM     27  N   UNL     1      -4.897   1.156   0.040  0.00  0.00    -0.284 N 
ATOM     28  C   UNL     1      -3.711   1.886   0.031  0.00  0.00    +0.048 A 
ATOM     29  C   UNL     1      -2.500   1.214   0.015  0.00  0.00    +0.039 A 
ATOM     30  C   UNL     1      -1.300   1.930   0.019  0.00  0.00    +0.061 A 
ATOM     31  C   UNL     1      -1.318   3.329   0.026  0.00  0.00    +0.016 A 
ATOM     32  C   UNL     1      -2.521   3.998   0.034  0.00  0.00    +0.017 A 
ATOM     33  C   UNL     1      -3.714   3.286   0.036  0.00  0.00    +0.030 A 
ATOM     34  S   UNL     1      -5.258   4.140   0.041  0.00  0.00    -0.111 S 
ATOM     35  H   UNL     1      -4.846   0.240   0.355  0.00  0.00    +0.155 HD
ENDBRANCH  21  30
ENDBRANCH  20  21
ENDBRANCH  19  20
ENDBRANCH   1  19
TORSDOF 6
