REMARK  Name = ZINC19625580
REMARK  5 active torsions:
REMARK  status: ('A' for Active; 'I' for Inactive)
REMARK    1  A    between atoms: C_1  and  O_2
REMARK    2  A    between atoms: O_2  and  C_3
REMARK    3  A    between atoms: C_8  and  C_9
REMARK    4  A    between atoms: C_15  and  O_20
REMARK    5  A    between atoms: O_20  and  C_21
REMARK                            x       y       z     vdW  Elec       q    Type
REMARK                         _______ _______ _______ _____ _____    ______ ____
ROOT
ATOM      1  C   UNL     1      -0.013   1.086   0.008  0.00  0.00    +0.118 C 
ATOM      2  C   UNL     1       1.402   1.602  -0.003  0.00  0.00    -0.019 A 
ATOM      3  C   UNL     1       2.103   1.581  -1.200  0.00  0.00    +0.006 A 
ATOM      4  C   UNL     1       3.404   2.041  -1.258  0.00  0.00    +0.004 A 
ATOM      5  C   UNL     1       4.016   2.525  -0.118  0.00  0.00    +0.046 A 
ATOM      6  C   UNL     1       3.319   2.549   1.079  0.00  0.00    +0.124 A 
ATOM      7  C   UNL     1       2.007   2.087   1.136  0.00  0.00    +0.000 A 
ATOM      8  C   UNL     1       1.283   2.140   2.456  0.00  0.00    +0.054 C 
ATOM      9  C   UNL     1       0.053   1.233   2.413  0.00  0.00    +0.086 C 
ATOM     10  N   UNL     1      -0.721   1.554   1.204  0.00  0.00    -0.305 NA
ATOM     11  H   UNL     1      -0.861   2.643   1.144  0.00  0.00    +0.123 HD
ENDROOT
BRANCH   1  17
ATOM     12  C   UNL     1      -0.617   0.889  -2.418  0.00  0.00    +0.125 A 
ATOM     13  C   UNL     1      -1.281   1.346  -3.547  0.00  0.00    +0.046 A 
ATOM     14  C   UNL     1      -2.054   2.488  -3.477  0.00  0.00    +0.004 A 
ATOM     15  C   UNL     1      -2.167   3.176  -2.283  0.00  0.00    +0.001 A 
ATOM     16  C   UNL     1      -1.511   2.719  -1.154  0.00  0.00    +0.009 A 
ATOM     17  C   UNL     1      -0.732   1.580  -1.221  0.00  0.00    +0.016 A 
BRANCH  12  19
ATOM     18  C   UNL     1       0.218  -0.895  -3.749  0.00  0.00    +0.277 C 
ATOM     19  O   UNL     1       0.145  -0.235  -2.484  0.00  0.00    -0.495 OA
ENDBRANCH  12  19
ENDBRANCH   1  17
BRANCH   6  20
ATOM     20  O   UNL     1       3.919   3.024   2.202  0.00  0.00    -0.495 OA
ATOM     21  C   UNL     1       5.266   3.482   2.074  0.00  0.00    +0.277 C 
ENDBRANCH   6  20
TORSDOF 3
