REMARK  Name = ZINC01121479
REMARK  4 active torsions:
REMARK  status: ('A' for Active; 'I' for Inactive)
REMARK    1  A    between atoms: C_1  and  C_2
REMARK    2  A    between atoms: C_5  and  C_8
REMARK    3  A    between atoms: C_8  and  C_25
REMARK    4  A    between atoms: C_28  and  C_31
REMARK                            x       y       z     vdW  Elec       q    Type
REMARK                         _______ _______ _______ _____ _____    ______ ____
ROOT
ATOM      1  C   UNL     1      -0.200   2.479   3.370  0.00  0.00    -0.010 C 
ATOM      2  C   UNL     1      -0.933   2.767   2.288  0.00  0.00    -0.046 C 
ATOM      3  C   UNL     1      -1.923   1.939   1.432  0.00  0.00    +0.051 C 
ATOM      4  C   UNL     1      -3.109   2.909   1.383  0.00  0.00    -0.022 C 
ATOM      5  C   UNL     1      -2.630   4.138   1.386  0.00  0.00    -0.022 C 
ATOM      6  C   UNL     1      -1.101   4.050   1.438  0.00  0.00    +0.051 C 
ATOM      7  C   UNL     1      -0.696   3.516   0.028  0.00  0.00    +0.099 C 
ATOM      8  C   UNL     1      -1.260   2.064   0.019  0.00  0.00    +0.099 C 
ATOM      9  C   UNL     1      -0.014   1.208   0.009  0.00  0.00    +0.224 C 
ATOM     10  O   UNL     1       0.002  -0.004   0.002  0.00  0.00    -0.275 OA
ATOM     11  N   UNL     1       1.067   1.995   0.003  0.00  0.00    -0.256 N 
ATOM     12  C   UNL     1       0.801   3.306   0.012  0.00  0.00    +0.224 C 
ATOM     13  O   UNL     1       1.632   4.189   0.009  0.00  0.00    -0.275 OA
ATOM     14  H   UNL     1       2.072   1.548  -0.009  0.00  0.00    +0.157 HD
ENDROOT
BRANCH   1  19
ATOM     15  C   UNL     1      -0.431  -2.789   5.684  0.00  0.00    +0.044 C 
ATOM     16  C   UNL     1      -0.370  -1.411   5.079  0.00  0.00    -0.050 A 
ATOM     17  C   UNL     1       0.809  -0.956   4.517  0.00  0.00    +0.004 A 
ATOM     18  C   UNL     1       0.871   0.306   3.961  0.00  0.00    +0.009 A 
ATOM     19  C   UNL     1      -0.259   1.122   3.966  0.00  0.00    -0.017 A 
ATOM     20  C   UNL     1      -1.443   0.661   4.539  0.00  0.00    +0.009 A 
ATOM     21  C   UNL     1      -1.495  -0.605   5.086  0.00  0.00    +0.004 A 
ENDBRANCH   1  19
BRANCH   1  22
ATOM     22  C   UNL     1       0.673   3.516   3.972  0.00  0.00    -0.017 A 
ATOM     23  C   UNL     1       1.762   4.014   3.259  0.00  0.00    +0.009 A 
ATOM     24  C   UNL     1       2.566   4.984   3.821  0.00  0.00    +0.004 A 
ATOM     25  C   UNL     1       2.301   5.452   5.096  0.00  0.00    -0.050 A 
ATOM     26  C   UNL     1       1.226   4.957   5.811  0.00  0.00    +0.004 A 
ATOM     27  C   UNL     1       0.410   3.991   5.255  0.00  0.00    +0.009 A 
ATOM     28  C   UNL     1       3.188   6.506   5.707  0.00  0.00    +0.044 C 
ENDBRANCH   1  22
TORSDOF 2
