REMARK  Name = ZINC16371454
REMARK  10 active torsions:
REMARK  status: ('A' for Active; 'I' for Inactive)
REMARK    1  A    between atoms: C_1  and  C_2
REMARK    2  A    between atoms: C_2  and  C_4
REMARK    3  A    between atoms: C_2  and  S_19
REMARK    4  A    between atoms: N_6  and  C_7
REMARK    5  A    between atoms: C_8  and  C_17
REMARK    6  A    between atoms: S_19  and  C_20
REMARK    7  A    between atoms: C_23  and  C_26
REMARK    8  A    between atoms: N_24  and  N_25
REMARK    9  A    between atoms: C_26  and  O_27
REMARK   10  A    between atoms: O_27  and  C_28
REMARK                            x       y       z     vdW  Elec       q    Type
REMARK                         _______ _______ _______ _____ _____    ______ ____
ROOT
ATOM      1  C   UNL     1       2.798   0.445   1.398  0.00  0.00    +0.029 C 
ATOM      2  C   UNL     1       2.462   0.920  -0.017  0.00  0.00    +0.137 C 
ENDROOT
BRANCH   2   3
ATOM      3  C   UNL     1       1.147   1.655   0.000  0.00  0.00    +0.231 C 
ATOM      4  O   UNL     1       1.130   2.868   0.007  0.00  0.00    -0.274 OA
ATOM      5  N   UNL     1      -0.011   0.966   0.007  0.00  0.00    -0.278 N 
ATOM      6  H   UNL     1       0.002  -0.004   0.002  0.00  0.00    +0.155 HD
BRANCH   5   7
ATOM      7  C   UNL     1      -1.222   1.643   0.017  0.00  0.00    +0.090 A 
ATOM      8  C   UNL     1      -2.503   1.117   0.020  0.00  0.00    +0.084 A 
ATOM      9  C   UNL     1      -3.621   2.051   0.034  0.00  0.00    -0.018 A 
ATOM     10  C   UNL     1      -3.272   3.356   0.032  0.00  0.00    -0.004 A 
ATOM     11  S   UNL     1      -1.500   3.353   0.035  0.00  0.00    -0.077 S 
ATOM     12  C   UNL     1      -4.179   4.546   0.029  0.00  0.00    +0.043 C 
ATOM     13  C   UNL     1      -5.245   4.372   1.119  0.00  0.00    +0.005 C 
ATOM     14  C   UNL     1      -6.440   3.642   0.515  0.00  0.00    +0.001 C 
ATOM     15  C   UNL     1      -5.969   2.657  -0.553  0.00  0.00    +0.005 C 
ATOM     16  C   UNL     1      -5.072   1.589   0.063  0.00  0.00    +0.037 C 
BRANCH   8  17
ATOM     17  C   UNL     1      -2.722  -0.298   0.011  0.00  0.00    +0.102 C 
ATOM     18  N   UNL     1      -2.895  -1.421   0.003  0.00  0.00    -0.191 NA
ENDBRANCH   8  17
ENDBRANCH   5   7
ENDBRANCH   2   3
BRANCH   2  19
ATOM     19  S   UNL     1       3.766   2.028  -0.607  0.00  0.00    -0.072 S 
BRANCH  19  20
ATOM     20  C   UNL     1       5.119   0.902  -0.669  0.00  0.00    +0.209 A 
ATOM     21  N   UNL     1       5.091  -0.371  -0.349  0.00  0.00    -0.121 NA
ATOM     22  N   UNL     1       6.255  -0.889  -0.516  0.00  0.00    -0.128 NA
ATOM     23  C   UNL     1       7.091   0.016  -0.942  0.00  0.00    +0.189 A 
ATOM     24  N   UNL     1       6.397   1.189  -1.055  0.00  0.00    -0.225 N 
BRANCH  24  25
ATOM     25  N   UNL     1       6.882   2.397  -1.468  0.00  0.00    -0.295 N 
ATOM     26  H   UNL     1       7.231   2.933  -0.687  0.00  0.00    +0.163 HD
ATOM     27  H   UNL     1       7.595   2.280  -2.172  0.00  0.00    +0.163 HD
ENDBRANCH  24  25
BRANCH  23  28
ATOM     28  C   UNL     1       8.551  -0.192  -1.252  0.00  0.00    +0.306 C 
BRANCH  28  29
ATOM     29  O   UNL     1       9.327   0.051  -0.077  0.00  0.00    -0.484 OA
BRANCH  29  30
ATOM     30  C   UNL     1      10.674  -0.095  -0.187  0.00  0.00    +0.121 A 
ATOM     31  C   UNL     1      11.236  -0.468  -1.399  0.00  0.00    +0.048 A 
ATOM     32  C   UNL     1      12.606  -0.610  -1.510  0.00  0.00    +0.042 A 
ATOM     33  C   UNL     1      13.417  -0.389  -0.410  0.00  0.00    +0.124 A 
ATOM     34  C   UNL     1      12.857  -0.022   0.802  0.00  0.00    +0.042 A 
ATOM     35  C   UNL     1      11.488   0.126   0.915  0.00  0.00    +0.048 A 
ATOM     36  F   UNL     1      14.756  -0.533  -0.518  0.00  0.00    -0.205 F 
ENDBRANCH  29  30
ENDBRANCH  28  29
ENDBRANCH  23  28
ENDBRANCH  19  20
ENDBRANCH   2  19
TORSDOF 9
