REMARK  Name = ZINC08709395
REMARK  11 active torsions:
REMARK  status: ('A' for Active; 'I' for Inactive)
REMARK    1  A    between atoms: C_1  and  C_2
REMARK    2  A    between atoms: C_2  and  C_3
REMARK    3  A    between atoms: C_3  and  N_4
REMARK    4  A    between atoms: C_10  and  S_11
REMARK    5  A    between atoms: S_11  and  C_12
REMARK    6  A    between atoms: C_12  and  C_13
REMARK    7  A    between atoms: N_15  and  C_16
REMARK    8  A    between atoms: C_19  and  S_22
REMARK    9  A    between atoms: S_22  and  N_25
REMARK   10  A    between atoms: C_27  and  C_34
REMARK   11  A    between atoms: C_30  and  C_33
REMARK                            x       y       z     vdW  Elec       q    Type
REMARK                         _______ _______ _______ _____ _____    ______ ____
ROOT
ATOM      1  C   UNL     1      -6.387   2.283   0.078  0.00  0.00    +0.034 A 
ATOM      2  C   UNL     1      -5.693   2.492   1.262  0.00  0.00    +0.025 A 
ATOM      3  C   UNL     1      -4.519   3.220   1.254  0.00  0.00    +0.030 A 
ATOM      4  C   UNL     1      -4.035   3.741   0.068  0.00  0.00    +0.106 A 
ATOM      5  C   UNL     1      -4.727   3.539  -1.113  0.00  0.00    +0.030 A 
ATOM      6  C   UNL     1      -5.898   2.807  -1.112  0.00  0.00    +0.025 A 
ENDROOT
BRANCH   1   9
ATOM      7  C   UNL     1      -8.398   1.600   1.149  0.00  0.00    +0.227 C 
ATOM      8  O   UNL     1      -8.157   2.360   2.062  0.00  0.00    -0.275 OA
ATOM      9  N   UNL     1      -7.576   1.545   0.083  0.00  0.00    -0.285 N 
ATOM     10  H   UNL     1      -7.808   0.995  -0.682  0.00  0.00    +0.155 HD
BRANCH   7  11
ATOM     11  C   UNL     1      -9.618   0.716   1.206  0.00  0.00    +0.173 C 
BRANCH  11  12
ATOM     12  S   UNL     1     -10.511   1.019   2.750  0.00  0.00    -0.077 S 
BRANCH  12  19
ATOM     13  N   UNL     1     -12.866  -0.314   3.463  0.00  0.00    -0.271 N 
ATOM     14  C   UNL     1     -13.697  -1.250   2.963  0.00  0.00    +0.345 A 
ATOM     15  O   UNL     1     -14.708  -1.673   3.497  0.00  0.00    -0.245 OA
ATOM     16  N   UNL     1     -13.206  -1.636   1.768  0.00  0.00    -0.226 N 
ATOM     17  H   UNL     1     -13.591  -2.301   1.177  0.00  0.00    +0.194 HD
ATOM     18  N   UNL     1     -12.036  -0.899   1.538  0.00  0.00    -0.145 NA
ATOM     19  C   UNL     1     -11.848  -0.112   2.558  0.00  0.00    +0.192 A 
BRANCH  13  20
ATOM     20  C   UNL     1     -13.019   0.373   4.748  0.00  0.00    +0.129 C 
BRANCH  20  22
ATOM     21  C   UNL     1     -14.012   2.359   5.893  0.00  0.00    +0.005 C 
ATOM     22  C   UNL     1     -13.851   1.642   4.551  0.00  0.00    +0.018 C 
ENDBRANCH  20  22
ENDBRANCH  13  20
ENDBRANCH  12  19
ENDBRANCH  11  12
ENDBRANCH   7  11
ENDBRANCH   1   9
BRANCH   4  23
ATOM     23  S   UNL     1      -2.538   4.669   0.062  0.00  0.00    +0.061 S 
ATOM     24  O   UNL     1      -2.373   5.183   1.376  0.00  0.00    -0.153 OA
ATOM     25  O   UNL     1      -2.585   5.509  -1.084  0.00  0.00    -0.153 OA
BRANCH  23  26
ATOM     26  N   UNL     1      -1.299   3.599  -0.187  0.00  0.00    -0.176 NA
ATOM     27  C   UNL     1      -0.847   3.280  -1.548  0.00  0.00    +0.112 C 
ATOM     28  C   UNL     1      -0.871   1.760  -1.733  0.00  0.00    +0.002 C 
ATOM     29  C   UNL     1      -0.045   1.102  -0.626  0.00  0.00    +0.009 C 
ATOM     30  C   UNL     1      -0.658   1.433   0.736  0.00  0.00    +0.002 C 
ATOM     31  C   UNL     1      -0.631   2.950   0.949  0.00  0.00    +0.112 C 
ATOM     32  C   UNL     1       0.149   0.748   1.841  0.00  0.00    +0.009 C 
ATOM     33  C   UNL     1      -2.316   1.260  -1.658  0.00  0.00    +0.009 C 
ENDBRANCH  23  26
ENDBRANCH   4  23
TORSDOF 8
