REMARK  Name = ZINC36146727
REMARK  12 active torsions:
REMARK  status: ('A' for Active; 'I' for Inactive)
REMARK    1  A    between atoms: C_5  and  C_7
REMARK    2  A    between atoms: C_10  and  C_13
REMARK    3  A    between atoms: C_13  and  N_14
REMARK    4  A    between atoms: N_14  and  C_15
REMARK    5  A    between atoms: N_14  and  C_23
REMARK    6  A    between atoms: C_15  and  C_16
REMARK    7  A    between atoms: C_23  and  C_24
REMARK    8  A    between atoms: C_24  and  C_26
REMARK    9  A    between atoms: C_24  and  O_34
REMARK   10  A    between atoms: C_26  and  O_27
REMARK   11  A    between atoms: O_27  and  C_28
REMARK   12  A    between atoms: C_28  and  C_29
REMARK                            x       y       z     vdW  Elec       q    Type
REMARK                         _______ _______ _______ _____ _____    ______ ____
ROOT
ATOM      1  N   UNL     1       0.705  -6.919   0.052  0.00  0.00    +0.387 N 
ATOM      2  H   UNL     1       0.702  -6.798  -0.950  0.00  0.00    -0.081 HD
ENDROOT
BRANCH   1   3
ATOM      3  C   UNL     1       0.201  -5.698   0.694  0.00  0.00    -0.030 C 
BRANCH   3   7
ATOM      4  C   UNL     1       1.760  -2.389   0.991  0.00  0.00    +0.092 C 
ATOM      5  N   UNL     1       2.756  -3.197   0.838  0.00  0.00    -0.089 NA
ATOM      6  O   UNL     1       2.349  -4.527   0.578  0.00  0.00    -0.392 OA
ATOM      7  C   UNL     1       0.970  -4.487   0.160  0.00  0.00    +0.194 C 
ATOM      8  C   UNL     1       0.476  -3.181   0.831  0.00  0.00    +0.104 C 
BRANCH   4  13
ATOM      9  C   UNL     1       0.792   1.167   1.698  0.00  0.00    +0.001 A 
ATOM     10  C   UNL     1       2.034   1.766   1.820  0.00  0.00    +0.001 A 
ATOM     11  C   UNL     1       3.187   1.017   1.673  0.00  0.00    +0.020 A 
ATOM     12  C   UNL     1       3.106  -0.335   1.403  0.00  0.00    +0.050 A 
ATOM     13  C   UNL     1       1.855  -0.945   1.280  0.00  0.00    +0.018 A 
ATOM     14  C   UNL     1       0.696  -0.182   1.429  0.00  0.00    +0.011 A 
ATOM     15 CL   UNL     1       4.555  -1.274   1.218  0.00  0.00    -0.083 Cl
ENDBRANCH   4  13
ENDBRANCH   3   7
ENDBRANCH   1   3
BRANCH   1  16
ATOM     16  C   UNL     1       2.075  -7.184   0.509  0.00  0.00    -0.043 C 
BRANCH  16  17
ATOM     17  C   UNL     1       2.068  -7.443   1.994  0.00  0.00    -0.061 A 
ATOM     18  C   UNL     1       2.145  -6.384   2.880  0.00  0.00    +0.002 A 
ATOM     19  C   UNL     1       2.139  -6.620   4.242  0.00  0.00    +0.003 A 
ATOM     20  C   UNL     1       2.056  -7.915   4.719  0.00  0.00    +0.038 A 
ATOM     21  C   UNL     1       1.979  -8.975   3.833  0.00  0.00    +0.124 A 
ATOM     22  C   UNL     1       1.979  -8.737   2.469  0.00  0.00    +0.040 A 
ATOM     23  F   UNL     1       1.898 -10.241   4.298  0.00  0.00    -0.205 F 
ENDBRANCH  16  17
ENDBRANCH   1  16
BRANCH   1  24
ATOM     24  C   UNL     1      -0.158  -8.053   0.410  0.00  0.00    -0.044 C 
BRANCH  24  25
ATOM     25  C   UNL     1       0.273  -9.291  -0.378  0.00  0.00    +0.124 C 
BRANCH  25  26
ATOM     26  O   UNL     1       0.149  -9.031  -1.778  0.00  0.00    -0.391 OA
ATOM     27  H   UNL     1      -0.749  -8.812  -2.060  0.00  0.00    +0.210 HD
ENDBRANCH  25  26
BRANCH  25  28
ATOM     28  C   UNL     1      -0.621 -10.474   0.002  0.00  0.00    +0.189 C 
BRANCH  28  29
ATOM     29  O   UNL     1      -0.147 -11.656  -0.645  0.00  0.00    -0.370 OA
BRANCH  29  30
ATOM     30  C   UNL     1      -0.916 -12.825  -0.356  0.00  0.00    +0.234 C 
BRANCH  30  31
ATOM     31  C   UNL     1      -0.329 -14.006  -1.086  0.00  0.00    +0.130 A 
ATOM     32  C   UNL     1       0.616 -14.836  -0.609  0.00  0.00    +0.047 A 
ATOM     33  C   UNL     1       0.867 -15.793  -1.619  0.00  0.00    +0.041 A 
ATOM     34  C   UNL     1       0.061 -15.491  -2.652  0.00  0.00    +0.195 A 
ATOM     35  O   UNL     1      -0.666 -14.411  -2.322  0.00  0.00    -0.465 OA
ENDBRANCH  30  31
ENDBRANCH  29  30
ENDBRANCH  28  29
ENDBRANCH  25  28
ENDBRANCH  24  25
ENDBRANCH   1  24
TORSDOF 12
