REMARK  Name = ZINC59310248
REMARK  5 active torsions:
REMARK  status: ('A' for Active; 'I' for Inactive)
REMARK    1  A    between atoms: C_9  and  C_17
REMARK    2  A    between atoms: N_18  and  N_19
REMARK    3  A    between atoms: C_22  and  S_25
REMARK    4  A    between atoms: S_25  and  C_26
REMARK    5  A    between atoms: C_26  and  C_27
REMARK                            x       y       z     vdW  Elec       q    Type
REMARK                         _______ _______ _______ _____ _____    ______ ____
ROOT
ATOM      1  C   UNL     1       4.896  -4.301  -0.068  0.00  0.00    +0.139 C 
ATOM      2  N   UNL     1       3.804  -4.963   0.035  0.00  0.00    -0.188 NA
ENDROOT
BRANCH   1  11
ATOM      3  C   UNL     1      -0.016   1.312  -0.038  0.00  0.00    +0.001 A 
ATOM      4  C   UNL     1       1.244   2.079  -0.034  0.00  0.00    +0.008 A 
ATOM      5  C   UNL     1       2.388   1.440  -0.037  0.00  0.00    -0.017 A 
ATOM      6  C   UNL     1       3.684   2.140  -0.032  0.00  0.00    +0.009 A 
ATOM      7  C   UNL     1       4.804   1.449  -0.035  0.00  0.00    +0.009 A 
ATOM      8  C   UNL     1       4.823  -0.021  -0.043  0.00  0.00    -0.017 A 
ATOM      9  C   UNL     1       6.110  -0.745  -0.046  0.00  0.00    +0.009 A 
ATOM     10  C   UNL     1       6.128  -2.061  -0.054  0.00  0.00    +0.010 A 
ATOM     11  C   UNL     1       4.868  -2.829  -0.059  0.00  0.00    +0.002 A 
ATOM     12  C   UNL     1       3.724  -2.189  -0.056  0.00  0.00    -0.008 A 
ATOM     13  C   UNL     1       3.709  -0.714  -0.048  0.00  0.00    -0.002 A 
ATOM     14  C   UNL     1       2.402  -0.035  -0.045  0.00  0.00    -0.002 A 
ATOM     15  C   UNL     1       1.289  -0.728  -0.049  0.00  0.00    -0.017 A 
ATOM     16  C   UNL     1       0.002  -0.004  -0.046  0.00  0.00    +0.008 A 
ATOM     17  C   UNL     1       1.308  -2.198  -0.057  0.00  0.00    +0.009 A 
ATOM     18  C   UNL     1       2.427  -2.889  -0.060  0.00  0.00    +0.010 A 
ENDBRANCH   1  11
BRANCH   2  19
ATOM     19  N   UNL     1       3.830  -6.363   0.027  0.00  0.00    -0.205 N 
ATOM     20  C   UNL     1       2.651  -7.078   0.138  0.00  0.00    +0.232 A 
ATOM     21  N   UNL     1       1.444  -6.566   0.252  0.00  0.00    -0.186 NA
ATOM     22  C   UNL     1       0.543  -7.551   0.337  0.00  0.00    +0.210 A 
ATOM     23  N   UNL     1       1.167  -8.704   0.279  0.00  0.00    -0.144 NA
ATOM     24  N   UNL     1       2.536  -8.423   0.144  0.00  0.00    -0.245 N 
ATOM     25  H   UNL     1       4.675  -6.832  -0.057  0.00  0.00    +0.177 HD
ATOM     26  H   UNL     1       3.256  -9.068   0.071  0.00  0.00    +0.192 HD
BRANCH  22  27
ATOM     27  S   UNL     1      -1.198  -7.335   0.502  0.00  0.00    -0.080 S 
BRANCH  27  28
ATOM     28  C   UNL     1      -1.846  -9.029   0.564  0.00  0.00    +0.112 C 
BRANCH  28  29
ATOM     29  C   UNL     1      -3.345  -8.988   0.705  0.00  0.00    -0.036 A 
ATOM     30  C   UNL     1      -3.920  -8.963   1.963  0.00  0.00    +0.004 A 
ATOM     31  C   UNL     1      -5.296  -8.926   2.093  0.00  0.00    +0.001 A 
ATOM     32  C   UNL     1      -6.097  -8.913   0.967  0.00  0.00    +0.015 A 
ATOM     33  C   UNL     1      -5.523  -8.937  -0.291  0.00  0.00    +0.018 A 
ATOM     34  C   UNL     1      -4.146  -8.969  -0.421  0.00  0.00    +0.019 A 
ATOM     35 BR   UNL     1      -6.619  -8.920  -1.832  0.00  0.00    -0.050 Br
ENDBRANCH  28  29
ENDBRANCH  27  28
ENDBRANCH  22  27
ENDBRANCH   2  19
TORSDOF 5
