REMARK  Name = ZINC53928476
REMARK  10 active torsions:
REMARK  status: ('A' for Active; 'I' for Inactive)
REMARK    1  A    between atoms: C_1  and  C_2
REMARK    2  A    between atoms: C_4  and  C_7
REMARK    3  A    between atoms: C_7  and  N_8
REMARK    4  A    between atoms: N_8  and  C_9
REMARK    5  A    between atoms: N_8  and  C_10
REMARK    6  A    between atoms: C_10  and  C_11
REMARK    7  A    between atoms: C_14  and  C_20
REMARK    8  A    between atoms: C_20  and  C_21
REMARK    9  A    between atoms: C_20  and  C_22
REMARK   10  A    between atoms: C_20  and  C_23
REMARK                            x       y       z     vdW  Elec       q    Type
REMARK                         _______ _______ _______ _____ _____    ______ ____
ROOT
ATOM      1  C   UNL     1      -3.504  -4.338   1.387  0.00  0.00    -0.068 C 
ENDROOT
BRANCH   1   2
ATOM      2  C   UNL     1      -3.884  -4.662   2.833  0.00  0.00    +0.039 C 
ATOM      3  C   UNL     1      -5.063  -5.641   2.849  0.00  0.00    +0.013 C 
ATOM      4  C   UNL     1      -4.625  -6.974   2.240  0.00  0.00    -0.005 C 
ATOM      5  C   UNL     1      -3.531  -7.603   3.104  0.00  0.00    +0.011 C 
ATOM      6  C   UNL     1      -2.294  -6.699   3.099  0.00  0.00    +0.075 C 
ATOM      7  C   UNL     1      -2.710  -5.307   3.535  0.00  0.00    +0.135 C 
ATOM      8  O   UNL     1      -2.123  -4.729   4.419  0.00  0.00    -0.297 OA
BRANCH   4   9
ATOM      9  C   UNL     1      -5.825  -7.921   2.172  0.00  0.00    -0.035 C 
ATOM     10  C   UNL     1      -6.918  -7.297   1.302  0.00  0.00    +0.011 C 
ATOM     11  C   UNL     1      -5.388  -9.255   1.564  0.00  0.00    +0.011 C 
ATOM     12  C   UNL     1      -6.369  -8.157   3.583  0.00  0.00    +0.011 C 
ENDBRANCH   4   9
ENDBRANCH   1   2
BRANCH   1  13
ATOM     13  N   UNL     1      -2.448  -3.317   1.375  0.00  0.00    +0.382 N 
ATOM     14  C   UNL     1      -2.974  -2.062   1.929  0.00  0.00    -0.096 C 
ATOM     15  H   UNL     1      -1.670  -3.631   1.935  0.00  0.00    -0.082 HD
BRANCH  13  16
ATOM     16  C   UNL     1      -1.999  -3.093  -0.006  0.00  0.00    -0.022 C 
BRANCH  16  20
ATOM     17  C   UNL     1      -0.018   1.503   0.010  0.00  0.00    +0.073 C 
ATOM     18  C   UNL     1       0.002  -0.004   0.002  0.00  0.00    +0.075 A 
ATOM     19  N   UNL     1      -1.013  -0.832   0.002  0.00  0.00    -0.251 NA
ATOM     20  C   UNL     1      -0.834  -2.137  -0.006  0.00  0.00    +0.032 A 
ATOM     21  C   UNL     1       0.449  -2.582  -0.014  0.00  0.00    +0.068 A 
ATOM     22  S   UNL     1       1.335  -1.032  -0.017  0.00  0.00    -0.081 S 
ENDBRANCH  16  20
ENDBRANCH  13  16
ENDBRANCH   1  13
TORSDOF 5
