REMARK  Name = ZINC33530123
REMARK  11 active torsions:
REMARK  status: ('A' for Active; 'I' for Inactive)
REMARK    1  A    between atoms: C_1  and  C_2
REMARK    2  A    between atoms: N_8  and  C_9
REMARK    3  A    between atoms: C_9  and  C_10
REMARK    4  A    between atoms: C_10  and  C_11
REMARK    5  A    between atoms: C_11  and  N_12
REMARK    6  A    between atoms: C_13  and  C_15
REMARK    7  A    between atoms: C_15  and  C_16
REMARK    8  A    between atoms: C_16  and  C_17
REMARK    9  A    between atoms: C_17  and  S_18
REMARK   10  A    between atoms: S_18  and  C_19
REMARK   11  A    between atoms: N_29  and  C_30
REMARK                            x       y       z     vdW  Elec       q    Type
REMARK                         _______ _______ _______ _____ _____    ______ ____
ROOT
ATOM      1  S   UNL     1       6.186  11.557  -4.655  0.00  0.00    -0.087 S 
ENDROOT
BRANCH   1   2
ATOM      2  C   UNL     1       5.427  13.009  -4.007  0.00  0.00    +0.177 A 
ATOM      3  N   UNL     1       4.119  13.091  -4.022  0.00  0.00    -0.223 NA
ATOM      4  C   UNL     1       3.472  14.175  -3.535  0.00  0.00    +0.079 A 
ATOM      5  C   UNL     1       2.076  14.262  -3.546  0.00  0.00    +0.028 A 
ATOM      6  C   UNL     1       1.465  15.378  -3.049  0.00  0.00    +0.002 A 
ATOM      7  C   UNL     1       2.209  16.431  -2.532  0.00  0.00    +0.001 A 
ATOM      8  C   UNL     1       3.575  16.375  -2.508  0.00  0.00    +0.015 A 
ATOM      9  C   UNL     1       4.226  15.248  -3.008  0.00  0.00    +0.065 A 
ATOM     10  C   UNL     1       5.690  15.134  -3.008  0.00  0.00    +0.267 A 
ATOM     11  O   UNL     1       6.393  16.025  -2.568  0.00  0.00    -0.267 OA
ATOM     12  N   UNL     1       6.230  14.001  -3.516  0.00  0.00    -0.255 N 
BRANCH  12  13
ATOM     13  C   UNL     1       7.621  13.844  -3.538  0.00  0.00    +0.055 A 
ATOM     14  C   UNL     1       8.269  13.231  -2.473  0.00  0.00    +0.026 A 
ATOM     15  C   UNL     1       9.641  13.071  -2.499  0.00  0.00    +0.005 A 
ATOM     16  C   UNL     1      10.372  13.530  -3.579  0.00  0.00    +0.038 A 
ATOM     17  C   UNL     1       9.731  14.148  -4.640  0.00  0.00    +0.125 A 
ATOM     18  C   UNL     1       8.356  14.305  -4.621  0.00  0.00    +0.064 A 
ATOM     19  F   UNL     1      10.447  14.596  -5.693  0.00  0.00    -0.205 F 
ENDBRANCH  12  13
ENDBRANCH   1   2
BRANCH   1  20
ATOM     20  C   UNL     1       4.714  10.624  -5.143  0.00  0.00    +0.078 C 
BRANCH  20  21
ATOM     21  C   UNL     1       5.137   9.285  -5.751  0.00  0.00    +0.020 C 
BRANCH  21  22
ATOM     22  C   UNL     1       3.893   8.496  -6.163  0.00  0.00    +0.096 C 
BRANCH  22  24
ATOM     23  N   UNL     1       3.375   6.311  -7.200  0.00  0.00    -0.315 N 
ATOM     24  C   UNL     1       4.309   7.178  -6.762  0.00  0.00    +0.213 C 
ATOM     25  O   UNL     1       5.486   6.896  -6.850  0.00  0.00    -0.276 OA
ATOM     26  H   UNL     1       2.308   6.566  -7.120  0.00  0.00    +0.149 HD
BRANCH  23  27
ATOM     27  C   UNL     1       3.780   5.029  -7.782  0.00  0.00    +0.102 C 
BRANCH  27  28
ATOM     28  C   UNL     1       2.536   4.240  -8.194  0.00  0.00    +0.000 C 
BRANCH  28  29
ATOM     29  C   UNL     1       2.959   2.901  -8.802  0.00  0.00    -0.077 C 
BRANCH  29  36
ATOM     30  C   UNL     1       2.987   1.410 -11.188  0.00  0.00    -0.013 C 
ATOM     31  C   UNL     1       2.128   0.970 -10.002  0.00  0.00    -0.072 C 
ATOM     32  C   UNL     1       0.858   0.289 -10.517  0.00  0.00    -0.016 C 
ATOM     33  C   UNL     1      -0.009  -0.132  -9.326  0.00  0.00    -0.003 C 
ATOM     34  C   UNL     1      -0.333   1.101  -8.479  0.00  0.00    -0.019 C 
ATOM     35  C   UNL     1       0.972   1.758  -8.023  0.00  0.00    -0.078 C 
ATOM     36  N   UNL     1       1.764   2.144  -9.198  0.00  0.00    +0.381 N 
ATOM     37  H   UNL     1       1.139   2.798  -9.824  0.00  0.00    -0.081 HD
ENDBRANCH  29  36
ENDBRANCH  28  29
ENDBRANCH  27  28
ENDBRANCH  23  27
ENDBRANCH  22  24
ENDBRANCH  21  22
ENDBRANCH  20  21
ENDBRANCH   1  20
TORSDOF 10
