REMARK  Name = ZINC17015914
REMARK  5 active torsions:
REMARK  status: ('A' for Active; 'I' for Inactive)
REMARK    1  A    between atoms: C_4  and  O_26
REMARK    2  A    between atoms: C_5  and  C_7
REMARK    3  A    between atoms: N_8  and  N_9
REMARK    4  A    between atoms: C_10  and  C_12
REMARK    5  A    between atoms: C_14  and  C_18
REMARK                            x       y       z     vdW  Elec       q    Type
REMARK                         _______ _______ _______ _____ _____    ______ ____
ROOT
ATOM      1  N   UNL     1       2.412  -4.186  -0.045  0.00  0.00    -0.202 N 
ATOM      2  C   UNL     1       3.592  -4.838  -0.060  0.00  0.00    +0.281 C 
ATOM      3  O   UNL     1       4.634  -4.210  -0.067  0.00  0.00    -0.267 OA
ATOM      4  H   UNL     1       1.581  -4.686  -0.040  0.00  0.00    +0.178 HD
ENDROOT
BRANCH   2   5
ATOM      5  C   UNL     1       3.619  -6.309  -0.069  0.00  0.00    +0.122 A 
ATOM      6  C   UNL     1       4.742  -7.115  -0.079  0.00  0.00    +0.062 A 
ATOM      7  C   UNL     1       4.251  -8.434  -0.084  0.00  0.00    +0.093 A 
ATOM      8  N   UNL     1       2.936  -8.369  -0.078  0.00  0.00    -0.173 NA
ATOM      9  N   UNL     1       2.540  -7.147  -0.063  0.00  0.00    -0.272 N 
ATOM     10  H   UNL     1       1.613  -6.862  -0.051  0.00  0.00    +0.189 HD
BRANCH   7  11
ATOM     11  C   UNL     1       5.068  -9.673  -0.096  0.00  0.00    +0.005 A 
ATOM     12  C   UNL     1       6.458  -9.594  -0.097  0.00  0.00    +0.030 A 
ATOM     13  C   UNL     1       7.214 -10.750  -0.107  0.00  0.00    +0.043 A 
ATOM     14  C   UNL     1       6.592 -11.986  -0.117  0.00  0.00    +0.040 A 
ATOM     15  C   UNL     1       5.210 -12.070  -0.117  0.00  0.00    +0.043 A 
ATOM     16  C   UNL     1       4.446 -10.920  -0.100  0.00  0.00    +0.030 A 
ATOM     17 CL   UNL     1       4.437 -13.625  -0.130  0.00  0.00    -0.083 Cl
ATOM     18 CL   UNL     1       8.947 -10.653  -0.109  0.00  0.00    -0.083 Cl
ENDBRANCH   7  11
ENDBRANCH   2   5
BRANCH   1  20
ATOM     19  C   UNL     1       1.250  -2.157  -0.022  0.00  0.00    +0.142 C 
ATOM     20  N   UNL     1       2.386  -2.785  -0.037  0.00  0.00    -0.187 NA
BRANCH  19  25
ATOM     21  C   UNL     1      -0.017   1.375   0.010  0.00  0.00    +0.001 A 
ATOM     22  C   UNL     1       1.169   2.089   0.002  0.00  0.00    +0.004 A 
ATOM     23  C   UNL     1       2.383   1.428  -0.013  0.00  0.00    +0.046 A 
ATOM     24  C   UNL     1       2.420   0.044  -0.021  0.00  0.00    +0.125 A 
ATOM     25  C   UNL     1       1.222  -0.684  -0.013  0.00  0.00    +0.036 A 
ATOM     26  C   UNL     1       0.002  -0.004   0.002  0.00  0.00    +0.013 A 
BRANCH  24  27
ATOM     27  O   UNL     1       3.613  -0.606  -0.036  0.00  0.00    -0.506 OA
ATOM     28  H   UNL     1       3.967  -0.799   0.843  0.00  0.00    +0.292 HD
ENDBRANCH  24  27
ENDBRANCH  19  25
ENDBRANCH   1  20
TORSDOF 5
