REMARK  Name = ZINC01419046
REMARK  11 active torsions:
REMARK  status: ('A' for Active; 'I' for Inactive)
REMARK    1  A    between atoms: C_1  and  N_2
REMARK    2  A    between atoms: N_2  and  C_3
REMARK    3  A    between atoms: N_2  and  C_4
REMARK    4  A    between atoms: C_7  and  N_10
REMARK    5  A    between atoms: C_11  and  C_13
REMARK    6  A    between atoms: C_13  and  C_15
REMARK    7  A    between atoms: C_13  and  N_22
REMARK    8  A    between atoms: N_22  and  C_23
REMARK    9  A    between atoms: C_23  and  C_24
REMARK   10  A    between atoms: C_30  and  C_32
REMARK   11  A    between atoms: C_32  and  N_33
REMARK                            x       y       z     vdW  Elec       q    Type
REMARK                         _______ _______ _______ _____ _____    ______ ____
ROOT
ATOM      1  C   UNL     1      -4.754   2.657  -1.692  0.00  0.00    +0.193 C 
ENDROOT
BRANCH   1   2
ATOM      2  C   UNL     1      -5.400   1.353  -1.298  0.00  0.00    -0.018 A 
ATOM      3  C   UNL     1      -6.705   1.339  -0.842  0.00  0.00    +0.007 A 
ATOM      4  C   UNL     1      -7.299   0.143  -0.485  0.00  0.00    +0.020 A 
ATOM      5  C   UNL     1      -6.584  -1.038  -0.574  0.00  0.00    +0.041 A 
ATOM      6  C   UNL     1      -5.276  -1.022  -1.025  0.00  0.00    +0.020 A 
ATOM      7  C   UNL     1      -4.685   0.173  -1.387  0.00  0.00    +0.007 A 
ATOM      8 CL   UNL     1      -7.327  -2.540  -0.119  0.00  0.00    -0.084 Cl
ENDBRANCH   1   2
BRANCH   1  10
ATOM      9  N   UNL     1      -5.412   2.247  -4.041  0.00  0.00    -0.284 N 
ATOM     10  C   UNL     1      -5.313   3.114  -3.014  0.00  0.00    +0.242 C 
ATOM     11  O   UNL     1      -5.675   4.263  -3.155  0.00  0.00    -0.273 OA
ATOM     12  H   UNL     1      -5.110   1.331  -3.933  0.00  0.00    +0.155 HD
BRANCH   9  16
ATOM     13  C   UNL     1      -7.013   3.498  -7.683  0.00  0.00    +0.029 A 
ATOM     14  C   UNL     1      -5.836   2.762  -7.659  0.00  0.00    +0.025 A 
ATOM     15  C   UNL     1      -5.306   2.347  -6.453  0.00  0.00    +0.025 A 
ATOM     16  C   UNL     1      -5.950   2.667  -5.265  0.00  0.00    +0.034 A 
ATOM     17  C   UNL     1      -7.130   3.398  -5.290  0.00  0.00    +0.025 A 
ATOM     18  C   UNL     1      -7.657   3.817  -6.495  0.00  0.00    +0.025 A 
BRANCH  13  20
ATOM     19  C   UNL     1      -6.945   3.473 -10.162  0.00  0.00    +0.129 C 
ATOM     20  N   UNL     1      -7.550   3.918  -8.905  0.00  0.00    -0.336 N 
ATOM     21  C   UNL     1      -8.717   4.804  -8.926  0.00  0.00    +0.129 C 
ENDBRANCH  13  20
ENDBRANCH   9  16
ENDBRANCH   1  10
BRANCH   1  22
ATOM     22  N   UNL     1      -5.031   3.668  -0.669  0.00  0.00    -0.280 N 
ATOM     23  C   UNL     1      -4.587   3.490   0.592  0.00  0.00    +0.238 C 
ATOM     24  O   UNL     1      -3.773   2.624   0.831  0.00  0.00    -0.274 OA
BRANCH  22  25
ATOM     25  C   UNL     1      -5.790   4.872  -1.015  0.00  0.00    +0.145 C 
BRANCH  25  26
ATOM     26  C   UNL     1      -4.851   5.919  -1.557  0.00  0.00    -0.012 A 
ATOM     27  C   UNL     1      -3.633   6.157  -0.938  0.00  0.00    +0.008 A 
ATOM     28  C   UNL     1      -2.799   7.127  -1.474  0.00  0.00    +0.020 A 
ATOM     29  C   UNL     1      -3.211   7.825  -2.593  0.00  0.00    +0.111 A 
ATOM     30  N   UNL     1      -4.378   7.576  -3.152  0.00  0.00    -0.263 NA
ATOM     31  C   UNL     1      -5.195   6.658  -2.673  0.00  0.00    +0.115 A 
ENDBRANCH  25  26
ENDBRANCH  22  25
BRANCH  23  32
ATOM     32  C   UNL     1      -5.103   4.368   1.703  0.00  0.00    +0.241 C 
BRANCH  32  33
ATOM     33  N   UNL     1      -4.628   3.856   2.990  0.00  0.00    -0.235 N 
ATOM     34  C   UNL     1      -5.260   2.938   3.794  0.00  0.00    +0.090 A 
ATOM     35  C   UNL     1      -6.451   2.226   3.697  0.00  0.00    +0.029 A 
ATOM     36  C   UNL     1      -6.812   1.366   4.696  0.00  0.00    +0.002 A 
ATOM     37  C   UNL     1      -5.995   1.188   5.805  0.00  0.00    +0.002 A 
ATOM     38  C   UNL     1      -4.819   1.870   5.922  0.00  0.00    +0.032 A 
ATOM     39  C   UNL     1      -4.428   2.762   4.914  0.00  0.00    +0.113 A 
ATOM     40  N   UNL     1      -3.352   3.557   4.753  0.00  0.00    -0.129 NA
ATOM     41  N   UNL     1      -3.438   4.205   3.645  0.00  0.00    -0.064 NA
ENDBRANCH  32  33
ENDBRANCH  23  32
ENDBRANCH   1  22
TORSDOF 9
