REMARK  Name = ZINC39670922
REMARK  6 active torsions:
REMARK  status: ('A' for Active; 'I' for Inactive)
REMARK    1  A    between atoms: C_3  and  C_6
REMARK    2  A    between atoms: C_6  and  C_7
REMARK    3  A    between atoms: C_7  and  N_8
REMARK    4  A    between atoms: C_9  and  C_11
REMARK    5  A    between atoms: C_22  and  C_24
REMARK    6  A    between atoms: C_27  and  C_31
REMARK                            x       y       z     vdW  Elec       q    Type
REMARK                         _______ _______ _______ _____ _____    ______ ____
ROOT
ATOM      1  C   UNL     1       8.187   0.960   2.519  0.00  0.00    +0.100 C 
ATOM      2  C   UNL     1       8.472  -0.445   1.942  0.00  0.00    +0.121 C 
ATOM      3  N   UNL     1       9.576  -0.975   2.777  0.00  0.00    -0.296 N 
ATOM      4  C   UNL     1       9.249  -0.525   4.151  0.00  0.00    +0.115 C 
ATOM      5  C   UNL     1       8.698   0.904   3.968  0.00  0.00    -0.004 C 
ATOM      6  C   UNL     1       7.551   1.154   4.943  0.00  0.00    -0.010 C 
ATOM      7  C   UNL     1       8.094   1.151   6.375  0.00  0.00    -0.082 C 
ATOM      8  N   UNL     1       9.117   2.193   6.514  0.00  0.00    +0.379 N 
ATOM      9  C   UNL     1      10.259   1.894   5.641  0.00  0.00    -0.082 C 
ATOM     10  C   UNL     1       9.808   1.929   4.178  0.00  0.00    -0.010 C 
ATOM     11  C   UNL     1      10.638  -1.702   2.376  0.00  0.00    +0.249 C 
ATOM     12  O   UNL     1      11.415  -2.146   3.199  0.00  0.00    -0.270 OA
ATOM     13  H   UNL     1       8.724   3.086   6.257  0.00  0.00    -0.086 HD
ATOM     14  H   UNL     1       9.430   2.230   7.473  0.00  0.00    -0.086 HD
ENDROOT
BRANCH  11  15
ATOM     15  C   UNL     1      10.857  -1.959   0.939  0.00  0.00    +0.072 A 
ATOM     16  C   UNL     1       9.768  -2.143   0.085  0.00  0.00    +0.016 A 
ATOM     17  C   UNL     1       9.979  -2.382  -1.256  0.00  0.00    +0.013 A 
ATOM     18  C   UNL     1      11.268  -2.442  -1.759  0.00  0.00    +0.058 A 
ATOM     19  C   UNL     1      12.352  -2.262  -0.922  0.00  0.00    +0.051 A 
ATOM     20  C   UNL     1      12.156  -2.015   0.425  0.00  0.00    +0.136 A 
ATOM     21  F   UNL     1      13.217  -1.833   1.242  0.00  0.00    -0.205 F 
BRANCH  18  22
ATOM     22  C   UNL     1      11.489  -2.705  -3.226  0.00  0.00    +0.418 C 
ATOM     23  F   UNL     1      11.524  -1.489  -3.918  0.00  0.00    -0.166 F 
ATOM     24  F   UNL     1      12.703  -3.377  -3.402  0.00  0.00    -0.166 F 
ATOM     25  F   UNL     1      10.444  -3.492  -3.722  0.00  0.00    -0.166 F 
ENDBRANCH  18  22
ENDBRANCH  11  15
BRANCH   1  27
ATOM     26  N   UNL     1       6.270   2.517   2.381  0.00  0.00    -0.315 N 
ATOM     27  C   UNL     1       6.708   1.248   2.494  0.00  0.00    +0.218 C 
ATOM     28  O   UNL     1       5.912   0.337   2.576  0.00  0.00    -0.275 OA
ATOM     29  H   UNL     1       6.907   3.246   2.315  0.00  0.00    +0.149 HD
BRANCH  26  30
ATOM     30  C   UNL     1       4.832   2.797   2.357  0.00  0.00    +0.112 C 
BRANCH  30  31
ATOM     31  C   UNL     1       4.607   4.304   2.223  0.00  0.00    +0.093 C 
BRANCH  31  34
ATOM     32  C   UNL     1       1.044   5.053   2.793  0.00  0.00    +0.041 A 
ATOM     33  C   UNL     1       2.357   4.839   3.272  0.00  0.00    +0.044 A 
ATOM     34  C   UNL     1       3.128   4.591   2.198  0.00  0.00    +0.106 A 
ATOM     35  O   UNL     1       2.357   4.645   1.100  0.00  0.00    -0.468 OA
ATOM     36  C   UNL     1       1.092   4.924   1.455  0.00  0.00    +0.195 A 
ENDBRANCH  31  34
ENDBRANCH  30  31
ENDBRANCH  26  30
ENDBRANCH   1  27
TORSDOF 6
