REMARK  Name = ZINC04817569
REMARK  13 active torsions:
REMARK  status: ('A' for Active; 'I' for Inactive)
REMARK    1  A    between atoms: C_1  and  C_2
REMARK    2  A    between atoms: C_2  and  C_3
REMARK    3  A    between atoms: C_3  and  C_28
REMARK    4  A    between atoms: C_5  and  C_9
REMARK    5  A    between atoms: C_5  and  C_21
REMARK    6  A    between atoms: C_9  and  C_10
REMARK    7  A    between atoms: C_10  and  N_66
REMARK    8  A    between atoms: C_11  and  C_12
REMARK    9  A    between atoms: C_11  and  N_66
REMARK   10  A    between atoms: C_15  and  N_18
REMARK   11  A    between atoms: N_18  and  C_19
REMARK   12  A    between atoms: N_18  and  C_20
REMARK   13  A    between atoms: C_24  and  C_27
REMARK                            x       y       z     vdW  Elec       q    Type
REMARK                         _______ _______ _______ _____ _____    ______ ____
ROOT
ATOM      1  C   UNL     1      -3.144   1.872  -0.351  0.00  0.00    +0.067 C 
ATOM      2  C   UNL     1      -3.189   1.132   0.989  0.00  0.00    +0.046 C 
ATOM      3  C   UNL     1      -2.009   1.584   1.855  0.00  0.00    -0.001 C 
ATOM      4  C   UNL     1      -0.705   1.329   1.093  0.00  0.00    +0.039 C 
ATOM      5  C   UNL     1      -0.755   2.062  -0.251  0.00  0.00    +0.161 C 
ATOM      6  O   UNL     1      -1.893   1.617  -0.992  0.00  0.00    -0.374 OA
ATOM      7  C   UNL     1      -4.285   1.382  -1.244  0.00  0.00    +0.041 C 
ENDROOT
BRANCH   3   8
ATOM      8  C   UNL     1      -1.999   0.805   3.145  0.00  0.00    -0.041 A 
ATOM      9  C   UNL     1      -3.039  -0.057   3.439  0.00  0.00    +0.004 A 
ATOM     10  C   UNL     1      -3.028  -0.775   4.620  0.00  0.00    +0.003 A 
ATOM     11  C   UNL     1      -1.982  -0.625   5.511  0.00  0.00    -0.050 A 
ATOM     12  C   UNL     1      -0.945   0.241   5.219  0.00  0.00    +0.003 A 
ATOM     13  C   UNL     1      -0.954   0.956   4.036  0.00  0.00    +0.004 A 
ATOM     14  C   UNL     1      -1.972  -1.405   6.800  0.00  0.00    +0.044 C 
ENDBRANCH   3   8
BRANCH   1  16
ATOM     15  C   UNL     1      -4.026   4.012  -1.293  0.00  0.00    +0.007 C 
ATOM     16  C   UNL     1      -3.295   3.376  -0.109  0.00  0.00    +0.031 C 
ENDBRANCH   1  16
BRANCH   3  17
ATOM     17  C   UNL     1      -2.140   3.078   2.159  0.00  0.00    -0.007 C 
BRANCH  17  18
ATOM     18  C   UNL     1      -3.479   3.342   2.850  0.00  0.00    -0.081 C 
BRANCH  18  19
ATOM     19  N   UNL     1      -3.659   4.797   3.015  0.00  0.00    +0.382 N 
ATOM     20  H   UNL     1      -3.648   5.247   2.092  0.00  0.00    -0.085 HD
ATOM     21  H   UNL     1      -2.892   5.171   3.586  0.00  0.00    -0.085 HD
BRANCH  19  22
ATOM     22  C   UNL     1      -4.944   5.082   3.681  0.00  0.00    -0.047 C 
BRANCH  22  23
ATOM     23  C   UNL     1      -5.100   6.573   3.836  0.00  0.00    -0.064 A 
ATOM     24  C   UNL     1      -4.636   7.200   4.977  0.00  0.00    +0.003 A 
ATOM     25  C   UNL     1      -4.772   8.567   5.119  0.00  0.00    +0.023 A 
ATOM     26  C   UNL     1      -5.387   9.310   4.120  0.00  0.00    +0.029 A 
ATOM     27  C   UNL     1      -5.858   8.676   2.977  0.00  0.00    +0.023 A 
ATOM     28  C   UNL     1      -5.713   7.309   2.838  0.00  0.00    +0.003 A 
BRANCH  26  29
ATOM     29  N   UNL     1      -5.532  10.692   4.263  0.00  0.00    -0.336 N 
ATOM     30  C   UNL     1      -6.180  11.474   3.207  0.00  0.00    +0.129 C 
ATOM     31  C   UNL     1      -5.035  11.360   5.469  0.00  0.00    +0.129 C 
ENDBRANCH  26  29
ENDBRANCH  22  23
ENDBRANCH  19  22
ENDBRANCH  18  19
ENDBRANCH  17  18
ENDBRANCH   3  17
TORSDOF 8
