REMARK  Name = ZINC34787745
REMARK  7 active torsions:
REMARK  status: ('A' for Active; 'I' for Inactive)
REMARK    1  A    between atoms: C_1  and  C_2
REMARK    2  A    between atoms: C_5  and  C_29
REMARK    3  A    between atoms: C_6  and  C_8
REMARK    4  A    between atoms: C_8  and  S_9
REMARK    5  A    between atoms: S_9  and  C_10
REMARK    6  A    between atoms: C_20  and  C_25
REMARK    7  A    between atoms: C_22  and  C_24
REMARK                            x       y       z     vdW  Elec       q    Type
REMARK                         _______ _______ _______ _____ _____    ______ ____
ROOT
ATOM      1  C   UNL     1       1.622  -4.015   4.517  0.00  0.00    +0.111 A 
ATOM      2  C   UNL     1       2.783  -4.416   5.235  0.00  0.00    +0.043 A 
ATOM      3  C   UNL     1       4.196  -4.191   4.887  0.00  0.00    -0.025 A 
ATOM      4  C   UNL     1       5.115  -4.675   5.738  0.00  0.00    -0.004 A 
ATOM      5  S   UNL     1       4.180  -5.447   7.039  0.00  0.00    -0.073 S 
ATOM      6  C   UNL     1       2.548  -5.118   6.431  0.00  0.00    +0.115 A 
ATOM      7  N   UNL     1       1.325  -5.381   6.849  0.00  0.00    -0.203 NA
ATOM      8  C   UNL     1       0.279  -4.984   6.140  0.00  0.00    +0.254 A 
ATOM      9  N   UNL     1       0.428  -4.313   5.006  0.00  0.00    -0.204 NA
ATOM     10  N   UNL     1      -1.007  -5.271   6.599  0.00  0.00    -0.202 N 
ATOM     11  C   UNL     1      -2.171  -4.936   5.982  0.00  0.00    +0.045 A 
ATOM     12  C   UNL     1      -3.186  -5.397   6.748  0.00  0.00    +0.048 A 
ATOM     13  C   UNL     1      -2.631  -6.032   7.865  0.00  0.00    +0.061 A 
ATOM     14  N   UNL     1      -1.328  -5.963   7.774  0.00  0.00    -0.169 NA
ATOM     15  C   UNL     1      -3.403  -6.690   8.980  0.00  0.00    +0.067 C 
ATOM     16  C   UNL     1      -2.306  -4.187   4.682  0.00  0.00    +0.066 C 
ATOM     17  C   UNL     1       6.520  -4.392   5.279  0.00  0.00    +0.043 C 
ATOM     18  C   UNL     1       6.373  -4.028   3.785  0.00  0.00    +0.010 C 
ATOM     19  C   UNL     1       4.926  -3.501   3.732  0.00  0.00    +0.037 C 
ENDROOT
BRANCH   1  20
ATOM     20  S   UNL     1       1.770  -3.127   3.002  0.00  0.00    -0.100 S 
BRANCH  20  21
ATOM     21  C   UNL     1       0.054  -2.845   2.489  0.00  0.00    +0.111 C 
BRANCH  21  27
ATOM     22  C   UNL     1      -0.018   1.503   0.010  0.00  0.00    +0.044 C 
ATOM     23  C   UNL     1       0.002  -0.004   0.002  0.00  0.00    -0.050 A 
ATOM     24  C   UNL     1       0.006  -0.689  -1.199  0.00  0.00    +0.003 A 
ATOM     25  C   UNL     1       0.025  -2.071  -1.207  0.00  0.00    +0.004 A 
ATOM     26  C   UNL     1       0.040  -2.768  -0.013  0.00  0.00    -0.046 A 
ATOM     27  C   UNL     1       0.037  -2.084   1.188  0.00  0.00    -0.034 A 
ATOM     28  C   UNL     1       0.023  -0.702   1.195  0.00  0.00    +0.008 A 
ATOM     29  C   UNL     1       0.059  -4.275  -0.021  0.00  0.00    +0.044 C 
ENDBRANCH  21  27
ENDBRANCH  20  21
ENDBRANCH   1  20
TORSDOF 3
