REMARK  Name = ZINC00369008
REMARK  4 active torsions:
REMARK  status: ('A' for Active; 'I' for Inactive)
REMARK    1  A    between atoms: C_1  and  C_2
REMARK    2  A    between atoms: C_6  and  C_7
REMARK    3  A    between atoms: C_19  and  S_22
REMARK    4  A    between atoms: S_22  and  C_23
REMARK                            x       y       z     vdW  Elec       q    Type
REMARK                         _______ _______ _______ _____ _____    ______ ____
ROOT
ATOM      1  C   UNL     1       0.152  -0.417   0.150  0.00  0.00    +0.301 C 
ATOM      2  N   UNL     1       0.973  -1.345   0.920  0.00  0.00    -0.305 N 
ATOM      3  C   UNL     1       1.137  -1.122   2.291  0.00  0.00    +0.039 A 
ATOM      4  C   UNL     1       0.580  -1.969   3.231  0.00  0.00    +0.024 A 
ATOM      5  C   UNL     1       0.749  -1.709   4.579  0.00  0.00    +0.002 A 
ATOM      6  C   UNL     1       1.473  -0.604   4.993  0.00  0.00    +0.001 A 
ATOM      7  C   UNL     1       2.040   0.248   4.066  0.00  0.00    +0.012 A 
ATOM      8  C   UNL     1       1.884  -0.005   2.709  0.00  0.00    +0.028 A 
ATOM      9  C   UNL     1       2.501   0.862   1.684  0.00  0.00    +0.156 A 
ATOM     10  C   UNL     1       1.730   1.302   0.585  0.00  0.00    +0.248 A 
ATOM     11  N   UNL     1       2.303   2.068  -0.327  0.00  0.00    -0.184 NA
ATOM     12  C   UNL     1       3.581   2.406  -0.183  0.00  0.00    +0.212 A 
ATOM     13  N   UNL     1       4.287   1.988   0.860  0.00  0.00    -0.122 NA
ATOM     14  N   UNL     1       3.768   1.237   1.770  0.00  0.00    -0.141 NA
ATOM     15  O   UNL     1       0.429   0.938   0.486  0.00  0.00    -0.448 OA
ATOM     16  H   UNL     1       1.397  -2.104   0.489  0.00  0.00    +0.150 HD
ENDROOT
BRANCH   1  22
ATOM     17  C   UNL     1      -1.888  -1.602  -1.817  0.00  0.00    +0.045 C 
ATOM     18  C   UNL     1      -2.241  -1.222  -0.403  0.00  0.00    -0.035 A 
ATOM     19  C   UNL     1      -3.527  -1.402   0.072  0.00  0.00    +0.011 A 
ATOM     20  C   UNL     1      -3.814  -1.044   1.347  0.00  0.00    +0.046 A 
ATOM     21  S   UNL     1      -2.236  -0.437   1.923  0.00  0.00    -0.096 S 
ATOM     22  C   UNL     1      -1.302  -0.702   0.425  0.00  0.00    +0.051 A 
ENDBRANCH   1  22
BRANCH  12  23
ATOM     23  S   UNL     1       4.351   3.426  -1.396  0.00  0.00    -0.088 S 
ATOM     24  C   UNL     1       6.016   3.546  -0.697  0.00  0.00    +0.093 C 
ENDBRANCH  12  23
TORSDOF 2
