REMARK  Name = ZINC13113358
REMARK  7 active torsions:
REMARK  status: ('A' for Active; 'I' for Inactive)
REMARK    1  A    between atoms: C_1  and  C_2
REMARK    2  A    between atoms: C_15  and  C_17
REMARK    3  A    between atoms: C_17  and  S_18
REMARK    4  A    between atoms: S_18  and  C_19
REMARK    5  A    between atoms: C_22  and  C_31
REMARK    6  A    between atoms: N_23  and  C_24
REMARK    7  A    between atoms: C_24  and  C_25
REMARK                            x       y       z     vdW  Elec       q    Type
REMARK                         _______ _______ _______ _____ _____    ______ ____
ROOT
ATOM      1  S   UNL     1      -1.025   3.863   0.028  0.00  0.00    -0.077 S 
ENDROOT
BRANCH   1   2
ATOM      2  C   UNL     1      -2.683   4.458   0.039  0.00  0.00    +0.193 A 
ATOM      3  N   UNL     1      -3.774   3.726   0.041  0.00  0.00    -0.122 NA
ATOM      4  N   UNL     1      -4.814   4.480   0.050  0.00  0.00    -0.125 NA
ATOM      5  C   UNL     1      -4.451   5.745   0.054  0.00  0.00    +0.201 A 
ATOM      6  N   UNL     1      -3.074   5.768   0.053  0.00  0.00    -0.295 N 
BRANCH   5   7
ATOM      7  C   UNL     1      -5.346   6.912   0.064  0.00  0.00    +0.172 A 
ATOM      8  C   UNL     1      -6.678   6.897   0.356  0.00  0.00    +0.053 A 
ATOM      9  C   UNL     1      -7.131   8.225   0.246  0.00  0.00    +0.042 A 
ATOM     10  C   UNL     1      -6.070   8.979  -0.103  0.00  0.00    +0.196 A 
ATOM     11  O   UNL     1      -4.992   8.183  -0.207  0.00  0.00    -0.460 OA
ENDBRANCH   5   7
BRANCH   6  12
ATOM     12  C   UNL     1      -2.208   6.950   0.063  0.00  0.00    +0.161 C 
BRANCH  12  13
ATOM     13  C   UNL     1      -1.917   7.370  -1.355  0.00  0.00    -0.028 A 
ATOM     14  C   UNL     1      -0.814   6.860  -2.014  0.00  0.00    +0.005 A 
ATOM     15  C   UNL     1      -0.548   7.242  -3.316  0.00  0.00    +0.000 A 
ATOM     16  C   UNL     1      -1.381   8.142  -3.955  0.00  0.00    +0.000 A 
ATOM     17  C   UNL     1      -2.481   8.655  -3.295  0.00  0.00    +0.000 A 
ATOM     18  C   UNL     1      -2.749   8.270  -1.994  0.00  0.00    +0.005 A 
ENDBRANCH  12  13
ENDBRANCH   6  12
ENDBRANCH   1   2
BRANCH   1  19
ATOM     19  C   UNL     1      -1.331   2.079   0.020  0.00  0.00    +0.173 C 
BRANCH  19  33
ATOM     20  C   UNL     1       1.539  -1.246  -1.437  0.00  0.00    +0.029 C 
ATOM     21  C   UNL     1       1.272  -0.732  -0.020  0.00  0.00    +0.087 C 
ATOM     22  C   UNL     1       1.204  -1.916   0.951  0.00  0.00    +0.118 C 
ATOM     23  C   UNL     1       0.557  -1.493   2.244  0.00  0.00    +0.219 C 
ATOM     24  O   UNL     1       1.241  -1.314   3.229  0.00  0.00    -0.275 OA
ATOM     25  N   UNL     1      -0.780  -1.313   2.312  0.00  0.00    -0.284 N 
ATOM     26  C   UNL     1      -1.571  -1.423   1.163  0.00  0.00    +0.055 A 
ATOM     27  C   UNL     1      -2.734  -2.175   1.171  0.00  0.00    +0.025 A 
ATOM     28  C   UNL     1      -3.529  -2.224   0.040  0.00  0.00    +0.002 A 
ATOM     29  C   UNL     1      -3.166  -1.525  -1.097  0.00  0.00    +0.002 A 
ATOM     30  C   UNL     1      -2.001  -0.781  -1.116  0.00  0.00    +0.025 A 
ATOM     31  C   UNL     1      -1.195  -0.734   0.009  0.00  0.00    +0.058 A 
ATOM     32  N   UNL     1       0.002  -0.004   0.002  0.00  0.00    -0.266 N 
ATOM     33  C   UNL     1      -0.016   1.344   0.009  0.00  0.00    +0.230 C 
ATOM     34  O   UNL     1       1.026   1.964   0.003  0.00  0.00    -0.274 OA
ATOM     35  H   UNL     1      -1.195  -1.107   3.165  0.00  0.00    +0.155 HD
ENDBRANCH  19  33
ENDBRANCH   1  19
TORSDOF 6
