REMARK  Name = ZINC66191651
REMARK  4 active torsions:
REMARK  status: ('A' for Active; 'I' for Inactive)
REMARK    1  A    between atoms: C_4  and  C_6
REMARK    2  A    between atoms: C_6  and  N_7
REMARK    3  A    between atoms: C_10  and  N_13
REMARK    4  A    between atoms: C_19  and  N_22
REMARK                            x       y       z     vdW  Elec       q    Type
REMARK                         _______ _______ _______ _____ _____    ______ ____
ROOT
ATOM      1  N   UNL     1      -1.617  -6.136  -1.295  0.00  0.00    -0.297 N 
ATOM      2  C   UNL     1      -2.159  -7.002  -2.174  0.00  0.00    +0.302 C 
ATOM      3  O   UNL     1      -2.317  -6.672  -3.333  0.00  0.00    -0.253 OA
ATOM      4  N   UNL     1      -2.526  -8.233  -1.767  0.00  0.00    -0.287 N 
ATOM      5  C   UNL     1      -2.398  -8.758  -0.400  0.00  0.00    +0.108 C 
ATOM      6  C   UNL     1      -2.920 -10.210  -0.416  0.00  0.00    +0.005 C 
ATOM      7  C   UNL     1      -2.787 -10.611  -1.909  0.00  0.00    -0.049 C 
ATOM      8  C   UNL     1      -3.129  -9.275  -2.619  0.00  0.00    +0.094 C 
ATOM      9  H   UNL     1      -1.490  -6.399  -0.370  0.00  0.00    +0.151 HD
ENDROOT
BRANCH   1  13
ATOM     10  N   UNL     1       0.629  -2.576  -1.516  0.00  0.00    +0.380 N 
ATOM     11  C   UNL     1      -0.739  -2.462  -0.994  0.00  0.00    -0.077 C 
ATOM     12  C   UNL     1      -1.232  -3.839  -0.542  0.00  0.00    +0.004 C 
ATOM     13  C   UNL     1      -1.218  -4.797  -1.736  0.00  0.00    +0.071 C 
ATOM     14  C   UNL     1       0.198  -4.851  -2.318  0.00  0.00    +0.004 C 
ATOM     15  C   UNL     1       0.638  -3.437  -2.704  0.00  0.00    -0.077 C 
ATOM     16  H   UNL     1       1.225  -2.977  -0.807  0.00  0.00    -0.082 HD
BRANCH  10  17
ATOM     17  C   UNL     1       1.127  -1.242  -1.876  0.00  0.00    -0.075 C 
BRANCH  17  21
ATOM     18  C   UNL     1       3.093   1.230  -0.256  0.00  0.00    +0.000 C 
ATOM     19  C   UNL     1       3.041   0.239   0.934  0.00  0.00    +0.000 C 
ATOM     20  C   UNL     1       2.332  -0.994   0.321  0.00  0.00    +0.002 C 
ATOM     21  C   UNL     1       1.262  -0.390  -0.612  0.00  0.00    -0.028 C 
ATOM     22  C   UNL     1       1.745   1.024  -0.978  0.00  0.00    +0.002 C 
ENDBRANCH  17  21
ENDBRANCH  10  17
ENDBRANCH   1  13
BRANCH   7  23
ATOM     23  N   UNL     1      -3.757 -11.656  -2.262  0.00  0.00    +0.383 N 
ATOM     24  C   UNL     1      -3.556 -12.088  -3.669  0.00  0.00    -0.078 C 
ATOM     25  C   UNL     1      -4.204 -13.495  -3.704  0.00  0.00    -0.020 C 
ATOM     26  C   UNL     1      -3.830 -14.082  -2.324  0.00  0.00    -0.020 C 
ATOM     27  C   UNL     1      -3.532 -12.862  -1.434  0.00  0.00    -0.078 C 
ATOM     28  H   UNL     1      -4.698 -11.316  -2.132  0.00  0.00    -0.081 HD
ENDBRANCH   7  23
TORSDOF 4
