REMARK  Name = ZINC14743443
REMARK  9 active torsions:
REMARK  status: ('A' for Active; 'I' for Inactive)
REMARK    1  A    between atoms: C_1  and  C_2
REMARK    2  A    between atoms: C_2  and  C_3
REMARK    3  A    between atoms: C_2  and  C_4
REMARK    4  A    between atoms: C_4  and  N_5
REMARK    5  A    between atoms: C_8  and  C_10
REMARK    6  A    between atoms: C_19  and  N_67
REMARK    7  A    between atoms: C_23  and  C_24
REMARK    8  A    between atoms: C_23  and  N_67
REMARK    9  A    between atoms: C_24  and  O_30
REMARK                            x       y       z     vdW  Elec       q    Type
REMARK                         _______ _______ _______ _____ _____    ______ ____
ROOT
ATOM      1  N   UNL     1       2.336   1.169  -1.105  0.00  0.00    -0.267 N 
ATOM      2  C   UNL     1       2.165   1.572  -2.375  0.00  0.00    +0.043 A 
ATOM      3  C   UNL     1       2.813   0.684  -3.168  0.00  0.00    +0.004 A 
ATOM      4  C   UNL     1       3.376  -0.268  -2.302  0.00  0.00    +0.151 A 
ATOM      5  N   UNL     1       3.049   0.096  -1.074  0.00  0.00    -0.166 NA
ATOM      6  C   UNL     1       2.876   0.765  -4.668  0.00  0.00    +0.023 C 
ATOM      7  C   UNL     1       2.463   2.182  -5.091  0.00  0.00    -0.067 C 
ATOM      8  C   UNL     1       1.154   2.563  -4.394  0.00  0.00    -0.009 C 
ATOM      9  C   UNL     1       1.409   2.767  -2.895  0.00  0.00    +0.054 C 
ENDROOT
BRANCH   4  10
ATOM     10  C   UNL     1       4.182  -1.444  -2.688  0.00  0.00    +0.267 C 
ATOM     11  O   UNL     1       4.512  -1.602  -3.848  0.00  0.00    -0.268 OA
ATOM     12  N   UNL     1       4.552  -2.343  -1.754  0.00  0.00    -0.292 N 
ATOM     13  C   UNL     1       4.053  -2.251  -0.373  0.00  0.00    +0.136 C 
ATOM     14  C   UNL     1       3.495  -3.626   0.028  0.00  0.00    +0.179 C 
ATOM     15  O   UNL     1       4.487  -4.625  -0.223  0.00  0.00    -0.377 OA
ATOM     16  C   UNL     1       4.851  -4.757  -1.599  0.00  0.00    +0.179 C 
ATOM     17  C   UNL     1       5.473  -3.443  -2.084  0.00  0.00    +0.136 C 
ENDBRANCH   4  10
BRANCH   7  18
ATOM     18  N   UNL     1       2.269   2.214  -6.553  0.00  0.00    +0.383 N 
ATOM     19  H   UNL     1       1.317   1.901  -6.775  0.00  0.00    -0.085 HD
ATOM     20  H   UNL     1       2.948   1.586  -6.998  0.00  0.00    -0.085 HD
BRANCH  18  21
ATOM     21  C   UNL     1       2.463   3.583  -7.066  0.00  0.00    -0.047 C 
BRANCH  21  22
ATOM     22  C   UNL     1       2.256   3.585  -8.582  0.00  0.00    +0.051 C 
ATOM     23  C   UNL     1       3.183   2.551  -9.224  0.00  0.00    +0.033 C 
ATOM     24  C   UNL     1       2.975   2.552 -10.740  0.00  0.00    +0.003 C 
ATOM     25  C   UNL     1       3.296   3.941 -11.297  0.00  0.00    +0.000 C 
ATOM     26  C   UNL     1       2.370   4.975 -10.655  0.00  0.00    +0.003 C 
ATOM     27  C   UNL     1       2.577   4.973  -9.139  0.00  0.00    +0.033 C 
BRANCH  22  28
ATOM     28  O   UNL     1       0.897   3.255  -8.877  0.00  0.00    -0.390 OA
ATOM     29  H   UNL     1       0.624   2.386  -8.553  0.00  0.00    +0.210 HD
ENDBRANCH  22  28
ENDBRANCH  21  22
ENDBRANCH  18  21
ENDBRANCH   7  18
BRANCH   1  30
ATOM     30  C   UNL     1       1.798   1.854   0.073  0.00  0.00    +0.146 C 
BRANCH  30  32
ATOM     31  C   UNL     1      -0.553   1.639  -0.747  0.00  0.00    +0.009 C 
ATOM     32  C   UNL     1       0.408   1.299   0.394  0.00  0.00    +0.004 C 
ATOM     33  C   UNL     1      -0.102   1.923   1.694  0.00  0.00    +0.009 C 
ENDBRANCH  30  32
ENDBRANCH   1  30
TORSDOF 7
