REMARK  Name = ZINC11555902
REMARK  11 active torsions:
REMARK  status: ('A' for Active; 'I' for Inactive)
REMARK    1  A    between atoms: C_1  and  C_2
REMARK    2  A    between atoms: C_7  and  N_8
REMARK    3  A    between atoms: C_9  and  C_11
REMARK    4  A    between atoms: C_11  and  N_12
REMARK    5  A    between atoms: N_12  and  C_13
REMARK    6  A    between atoms: C_14  and  C_16
REMARK    7  A    between atoms: C_18  and  C_23
REMARK    8  A    between atoms: C_20  and  C_21
REMARK    9  A    between atoms: C_20  and  C_22
REMARK   10  A    between atoms: C_24  and  C_25
REMARK   11  A    between atoms: C_24  and  C_26
REMARK                            x       y       z     vdW  Elec       q    Type
REMARK                         _______ _______ _______ _____ _____    ______ ____
ROOT
ATOM      1  C   UNL     1      -0.021   5.650  -0.184  0.00  0.00    +0.203 C 
ENDROOT
BRANCH   1   3
ATOM      2  N   UNL     1       1.161   3.486   0.009  0.00  0.00    -0.284 N 
ATOM      3  C   UNL     1      -0.010   4.147  -0.078  0.00  0.00    +0.235 C 
ATOM      4  O   UNL     1      -1.055   3.531  -0.072  0.00  0.00    -0.274 OA
ATOM      5  H   UNL     1       1.993   3.980   0.085  0.00  0.00    +0.155 HD
BRANCH   2  12
ATOM      6  C   UNL     1       3.360   2.152   1.228  0.00  0.00    +0.046 C 
ATOM      7  C   UNL     1       2.232   1.396   0.574  0.00  0.00    -0.028 A 
ATOM      8  C   UNL     1       2.247   0.015   0.554  0.00  0.00    +0.020 A 
ATOM      9  C   UNL     1       1.212  -0.680  -0.046  0.00  0.00    +0.018 A 
ATOM     10  C   UNL     1       0.160   0.005  -0.628  0.00  0.00    +0.017 A 
ATOM     11  C   UNL     1       0.141   1.386  -0.611  0.00  0.00    +0.024 A 
ATOM     12  C   UNL     1       1.178   2.086  -0.009  0.00  0.00    +0.036 A 
ATOM     13 BR   UNL     1       1.235  -2.571  -0.070  0.00  0.00    -0.050 Br
ENDBRANCH   2  12
ENDBRANCH   1   3
BRANCH   1  14
ATOM     14  N   UNL     1      -1.405   6.124  -0.266  0.00  0.00    -0.295 N 
ATOM     15  C   UNL     1      -2.141   6.449   0.958  0.00  0.00    +0.132 C 
ATOM     16  C   UNL     1      -2.000   6.260  -1.467  0.00  0.00    +0.220 C 
ATOM     17  O   UNL     1      -1.391   5.990  -2.480  0.00  0.00    -0.275 OA
BRANCH  16  18
ATOM     18  C   UNL     1      -3.424   6.747  -1.551  0.00  0.00    +0.089 C 
ATOM     19  C   UNL     1      -4.486   5.749  -2.015  0.00  0.00    +0.030 C 
ATOM     20  C   UNL     1      -4.044   6.881  -2.944  0.00  0.00    -0.016 C 
ATOM     21  C   UNL     1      -5.026   8.032  -3.172  0.00  0.00    +0.012 C 
ATOM     22  C   UNL     1      -3.171   6.510  -4.144  0.00  0.00    +0.012 C 
BRANCH  19  23
ATOM     23  C   UNL     1      -4.029   4.353  -2.352  0.00  0.00    -0.023 C 
ATOM     24  C   UNL     1      -4.912   3.414  -2.590  0.00  0.00    -0.079 C 
ATOM     25  C   UNL     1      -6.384   3.730  -2.526  0.00  0.00    +0.038 C 
ATOM     26  C   UNL     1      -4.454   2.018  -2.927  0.00  0.00    +0.038 C 
ENDBRANCH  19  23
ENDBRANCH  16  18
ENDBRANCH   1  14
TORSDOF 5
