REMARK  Name = ZINC04878613
REMARK  3 active torsions:
REMARK  status: ('A' for Active; 'I' for Inactive)
REMARK    1  A    between atoms: C_7  and  C_11
REMARK    2  A    between atoms: N_12  and  N_13
REMARK    3  A    between atoms: N_16  and  C_17
REMARK                            x       y       z     vdW  Elec       q    Type
REMARK                         _______ _______ _______ _____ _____    ______ ____
ROOT
ATOM      1  N   UNL     1       1.965   6.551   0.017  0.00  0.00    -0.191 N 
ATOM      2  C   UNL     1       1.446   7.795   0.028  0.00  0.00    +0.320 C 
ATOM      3  O   UNL     1       2.184   8.762   0.026  0.00  0.00    -0.251 OA
ATOM      4  N   UNL     1       0.110   7.967   0.042  0.00  0.00    -0.293 N 
ATOM      5  H   UNL     1       2.927   6.427   0.007  0.00  0.00    +0.179 HD
ATOM      6  H   UNL     1      -0.479   7.196   0.043  0.00  0.00    +0.151 HD
ENDROOT
BRANCH   4   7
ATOM      7  C   UNL     1      -0.455   9.319   0.054  0.00  0.00    +0.037 C 
ATOM      8  C   UNL     1       0.026  10.061   1.302  0.00  0.00    +0.029 C 
ATOM      9  C   UNL     1      -0.563  11.473   1.315  0.00  0.00    -0.008 C 
ATOM     10  C   UNL     1      -2.091  11.387   1.329  0.00  0.00    +0.007 C 
ATOM     11  C   UNL     1      -2.572  10.645   0.081  0.00  0.00    -0.008 C 
ATOM     12  C   UNL     1      -1.982   9.233   0.068  0.00  0.00    +0.029 C 
ATOM     13  C   UNL     1      -2.115  11.400  -1.169  0.00  0.00    +0.007 C 
ATOM     14  C   UNL     1      -0.587  11.485  -1.183  0.00  0.00    -0.008 C 
ATOM     15  C   UNL     1      -0.106  12.227   0.066  0.00  0.00    +0.007 C 
ATOM     16  C   UNL     1       0.002  10.073  -1.196  0.00  0.00    +0.029 C 
ENDBRANCH   4   7
BRANCH   1  18
ATOM     17  C   UNL     1       1.616   4.239   0.008  0.00  0.00    +0.140 C 
ATOM     18  N   UNL     1       1.116   5.437   0.019  0.00  0.00    -0.186 NA
BRANCH  17  25
ATOM     19  C   UNL     1      -3.036   3.778   0.049  0.00  0.00    +0.001 A 
ATOM     20  C   UNL     1      -3.440   2.450   0.045  0.00  0.00    +0.002 A 
ATOM     21  C   UNL     1      -2.510   1.434   0.032  0.00  0.00    +0.026 A 
ATOM     22  C   UNL     1      -1.153   1.738   0.016  0.00  0.00    +0.047 A 
ATOM     23  C   UNL     1      -0.750   3.084   0.024  0.00  0.00    +0.008 A 
ATOM     24  C   UNL     1      -1.707   4.098   0.038  0.00  0.00    +0.010 A 
ATOM     25  C   UNL     1       0.723   3.068   0.011  0.00  0.00    +0.020 A 
ATOM     26  C   UNL     1       1.097   1.761   0.001  0.00  0.00    +0.093 A 
ATOM     27  N   UNL     1      -0.011   0.966   0.007  0.00  0.00    -0.360 N 
ATOM     28  H   UNL     1       0.002  -0.004   0.002  0.00  0.00    +0.165 HD
ENDBRANCH  17  25
ENDBRANCH   1  18
TORSDOF 3
