REMARK  Name = ZINC64819868
REMARK  11 active torsions:
REMARK  status: ('A' for Active; 'I' for Inactive)
REMARK    1  A    between atoms: C_1  and  C_2
REMARK    2  A    between atoms: C_5  and  C_21
REMARK    3  A    between atoms: C_8  and  C_10
REMARK    4  A    between atoms: C_10  and  S_11
REMARK    5  A    between atoms: S_11  and  C_12
REMARK    6  A    between atoms: C_23  and  O_31
REMARK    7  A    between atoms: C_24  and  O_29
REMARK    8  A    between atoms: C_26  and  O_27
REMARK    9  A    between atoms: O_27  and  C_28
REMARK   10  A    between atoms: O_29  and  C_30
REMARK   11  A    between atoms: O_31  and  C_32
REMARK                            x       y       z     vdW  Elec       q    Type
REMARK                         _______ _______ _______ _____ _____    ______ ____
ROOT
ATOM      1  C   UNL     1      -0.018   1.503   0.010  0.00  0.00    +0.111 C 
ATOM      2  C   UNL     1       0.002  -0.004   0.002  0.00  0.00    +0.235 C 
ATOM      3  O   UNL     1       1.061  -0.596  -0.011  0.00  0.00    -0.274 OA
ATOM      4  N   UNL     1      -1.157  -0.695   0.009  0.00  0.00    -0.146 N 
ATOM      5  C   UNL     1      -1.326  -2.159   0.009  0.00  0.00    +0.323 C 
ATOM      6  O   UNL     1      -2.750  -2.344   0.019  0.00  0.00    -0.450 OA
ATOM      7  C   UNL     1      -3.323  -1.122   0.025  0.00  0.00    +0.218 C 
ATOM      8  N   UNL     1      -2.459  -0.173   0.025  0.00  0.00    -0.140 NA
ENDROOT
BRANCH   5   9
ATOM      9  C   UNL     1      -0.703  -2.763   1.241  0.00  0.00    +0.058 A 
ATOM     10  C   UNL     1      -0.371  -1.955   2.313  0.00  0.00    +0.062 A 
ATOM     11  C   UNL     1       0.202  -2.508   3.447  0.00  0.00    +0.162 A 
ATOM     12  C   UNL     1       0.443  -3.878   3.506  0.00  0.00    +0.165 A 
ATOM     13  C   UNL     1       0.109  -4.685   2.431  0.00  0.00    +0.095 A 
ATOM     14  C   UNL     1      -0.469  -4.128   1.300  0.00  0.00    +0.132 A 
BRANCH  14  15
ATOM     15  O   UNL     1      -0.802  -4.921   0.247  0.00  0.00    -0.495 OA
ATOM     16  C   UNL     1      -0.533  -6.318   0.376  0.00  0.00    +0.277 C 
ENDBRANCH  14  15
BRANCH  12  17
ATOM     17  O   UNL     1       1.005  -4.422   4.618  0.00  0.00    -0.491 OA
ATOM     18  C   UNL     1       1.223  -5.835   4.609  0.00  0.00    +0.277 C 
ENDBRANCH  12  17
BRANCH  11  19
ATOM     19  O   UNL     1       0.529  -1.713   4.501  0.00  0.00    -0.491 OA
ATOM     20  C   UNL     1       0.254  -0.317   4.371  0.00  0.00    +0.277 C 
ENDBRANCH  11  19
ENDBRANCH   5   9
BRANCH   7  21
ATOM     21  C   UNL     1      -4.813  -0.897   0.036  0.00  0.00    +0.169 C 
BRANCH  21  22
ATOM     22  S   UNL     1      -5.155   0.884   0.040  0.00  0.00    -0.106 S 
BRANCH  22  23
ATOM     23  C   UNL     1      -6.966   0.983   0.054  0.00  0.00    +0.236 C 
ATOM     24  N   UNL     1      -7.502   0.258   1.213  0.00  0.00    -0.355 N 
ATOM     25  C   UNL     1      -8.262  -0.696   0.759  0.00  0.00    +0.061 A 
ATOM     26  C   UNL     1      -9.059  -1.738   1.421  0.00  0.00    +0.027 A 
ATOM     27  C   UNL     1      -9.764  -2.611   0.674  0.00  0.00    +0.002 A 
ATOM     28  C   UNL     1      -9.773  -2.572  -0.731  0.00  0.00    +0.002 A 
ATOM     29  C   UNL     1      -9.077  -1.659  -1.437  0.00  0.00    +0.027 A 
ATOM     30  C   UNL     1      -8.271  -0.655  -0.729  0.00  0.00    +0.061 A 
ATOM     31  N   UNL     1      -7.516   0.323  -1.137  0.00  0.00    -0.355 N 
ATOM     32  H   UNL     1      -7.322   0.455   2.146  0.00  0.00    +0.162 HD
ATOM     33  H   UNL     1      -7.347   0.571  -2.060  0.00  0.00    +0.162 HD
ENDBRANCH  22  23
ENDBRANCH  21  22
ENDBRANCH   7  21
TORSDOF 7
