REMARK  Name = ZINC21252781
REMARK  6 active torsions:
REMARK  status: ('A' for Active; 'I' for Inactive)
REMARK    1  A    between atoms: C_1  and  C_2
REMARK    2  A    between atoms: C_2  and  C_3
REMARK    3  A    between atoms: C_3  and  O_4
REMARK    4  A    between atoms: O_4  and  C_5
REMARK    5  A    between atoms: C_8  and  C_11
REMARK    6  A    between atoms: C_16  and  C_21
REMARK                            x       y       z     vdW  Elec       q    Type
REMARK                         _______ _______ _______ _____ _____    ______ ____
ROOT
ATOM      1  C   UNL     1       2.281   0.454   3.588  0.00  0.00    +0.136 C 
ATOM      2  C   UNL     1       1.559   0.856   2.324  0.00  0.00    +0.036 C 
ATOM      3  C   UNL     1       0.240   1.083   2.207  0.00  0.00    +0.017 C 
ATOM      4  C   UNL     1      -0.352   1.508   0.874  0.00  0.00    +0.059 C 
ATOM      5  C   UNL     1       0.435   0.873  -0.271  0.00  0.00    +0.032 C 
ATOM      6  C   UNL     1       1.888   1.351  -0.159  0.00  0.00    +0.088 C 
ATOM      7  C   UNL     1       2.407   0.988   1.199  0.00  0.00    +0.163 C 
ATOM      8  O   UNL     1       3.600   0.799   1.340  0.00  0.00    -0.292 OA
ATOM      9  N   UNL     1      -0.660   0.966   3.216  0.00  0.00    -0.316 N 
ATOM     10  C   UNL     1      -0.492   1.490   4.492  0.00  0.00    +0.052 A 
ATOM     11  C   UNL     1      -1.309   2.486   4.997  0.00  0.00    +0.025 A 
ATOM     12  C   UNL     1      -1.115   2.932   6.293  0.00  0.00    +0.002 A 
ATOM     13  C   UNL     1      -0.117   2.383   7.077  0.00  0.00    +0.002 A 
ATOM     14  C   UNL     1       0.712   1.398   6.569  0.00  0.00    +0.025 A 
ATOM     15  C   UNL     1       0.534   0.966   5.264  0.00  0.00    +0.049 A 
ATOM     16  N   UNL     1       1.411   0.057   4.674  0.00  0.00    -0.331 N 
ATOM     17  H   UNL     1      -1.604   0.425   3.051  0.00  0.00    +0.152 HD
ATOM     18  H   UNL     1       1.433  -0.978   5.047  0.00  0.00    +0.147 HD
ENDROOT
BRANCH   5  19
ATOM     19  C   UNL     1      -0.144   1.306  -1.593  0.00  0.00    -0.043 A 
ATOM     20  C   UNL     1      -0.204   2.649  -1.915  0.00  0.00    +0.007 A 
ATOM     21  C   UNL     1      -0.731   3.047  -3.129  0.00  0.00    +0.038 A 
ATOM     22  C   UNL     1      -1.209   2.101  -4.019  0.00  0.00    +0.123 A 
ATOM     23  C   UNL     1      -1.153   0.756  -3.694  0.00  0.00    +0.038 A 
ATOM     24  C   UNL     1      -0.621   0.360  -2.481  0.00  0.00    +0.007 A 
ATOM     25  F   UNL     1      -1.728   2.489  -5.204  0.00  0.00    -0.205 F 
ENDBRANCH   5  19
BRANCH   1  29
ATOM     26  C   UNL     1       4.662   3.752   4.897  0.00  0.00    +0.121 A 
ATOM     27  C   UNL     1       5.270   2.564   4.517  0.00  0.00    +0.046 A 
ATOM     28  C   UNL     1       4.497   1.499   4.095  0.00  0.00    +0.009 A 
ATOM     29  C   UNL     1       3.121   1.617   4.050  0.00  0.00    -0.023 A 
ATOM     30  C   UNL     1       2.513   2.802   4.423  0.00  0.00    +0.009 A 
ATOM     31  C   UNL     1       3.280   3.868   4.851  0.00  0.00    +0.046 A 
BRANCH  26  32
ATOM     32  O   UNL     1       5.420   4.801   5.314  0.00  0.00    -0.492 OA
BRANCH  32  33
ATOM     33  C   UNL     1       4.727   5.993   5.689  0.00  0.00    +0.229 C 
BRANCH  33  35
ATOM     34  C   UNL     1       4.996   8.331   6.529  0.00  0.00    +0.007 C 
ATOM     35  C   UNL     1       5.738   7.054   6.127  0.00  0.00    +0.038 C 
ENDBRANCH  33  35
ENDBRANCH  32  33
ENDBRANCH  26  32
ENDBRANCH   1  29
TORSDOF 5
