REMARK  Name = ZINC36507079
REMARK  15 active torsions:
REMARK  status: ('A' for Active; 'I' for Inactive)
REMARK    1  A    between atoms: C_1  and  C_2
REMARK    2  A    between atoms: C_2  and  C_3
REMARK    3  A    between atoms: N_5  and  C_6
REMARK    4  A    between atoms: N_5  and  C_12
REMARK    5  A    between atoms: C_6  and  C_7
REMARK    6  A    between atoms: C_12  and  C_14
REMARK    7  A    between atoms: C_12  and  C_24
REMARK    8  A    between atoms: C_17  and  O_22
REMARK    9  A    between atoms: C_18  and  O_20
REMARK   10  A    between atoms: O_20  and  C_21
REMARK   11  A    between atoms: O_22  and  C_23
REMARK   12  A    between atoms: N_26  and  C_27
REMARK   13  A    between atoms: C_27  and  S_28
REMARK   14  A    between atoms: S_28  and  C_31
REMARK   15  A    between atoms: C_34  and  C_37
REMARK                            x       y       z     vdW  Elec       q    Type
REMARK                         _______ _______ _______ _____ _____    ______ ____
ROOT
ATOM      1  C   UNL     1      -1.190  -3.089  -0.528  0.00  0.00    +0.193 C 
ENDROOT
BRANCH   1   2
ATOM      2  C   UNL     1      -0.522  -2.203  -1.548  0.00  0.00    -0.015 A 
ATOM      3  C   UNL     1      -0.503  -0.832  -1.364  0.00  0.00    +0.010 A 
ATOM      4  C   UNL     1       0.108  -0.015  -2.297  0.00  0.00    +0.050 A 
ATOM      5  C   UNL     1       0.703  -0.569  -3.419  0.00  0.00    +0.162 A 
ATOM      6  C   UNL     1       0.684  -1.948  -3.604  0.00  0.00    +0.162 A 
ATOM      7  C   UNL     1       0.074  -2.762  -2.662  0.00  0.00    +0.055 A 
BRANCH   6   8
ATOM      8  O   UNL     1       1.267  -2.497  -4.703  0.00  0.00    -0.491 OA
ATOM      9  C   UNL     1       1.208  -3.919  -4.827  0.00  0.00    +0.277 C 
ENDBRANCH   6   8
BRANCH   5  10
ATOM     10  O   UNL     1       1.304   0.233  -4.338  0.00  0.00    -0.491 OA
ATOM     11  C   UNL     1       1.285   1.639  -4.083  0.00  0.00    +0.277 C 
ENDBRANCH   5  10
ENDBRANCH   1   2
BRANCH   1  12
ATOM     12  C   UNL     1      -0.314  -3.196   0.694  0.00  0.00    +0.239 C 
ATOM     13  O   UNL     1      -0.305  -2.302   1.514  0.00  0.00    -0.273 OA
ATOM     14  N   UNL     1       0.459  -4.284   0.876  0.00  0.00    -0.294 N 
ATOM     15  H   UNL     1       0.530  -4.951   0.175  0.00  0.00    +0.150 HD
BRANCH  14  16
ATOM     16  C   UNL     1       1.193  -4.460   2.131  0.00  0.00    +0.278 C 
BRANCH  16  17
ATOM     17  S   UNL     1       0.289  -5.611   3.203  0.00  0.00    +0.013 S 
ATOM     18  O   UNL     1       1.039  -5.873   4.382  0.00  0.00    -0.168 OA
ATOM     19  O   UNL     1      -1.078  -5.235   3.283  0.00  0.00    -0.168 OA
BRANCH  17  20
ATOM     20  C   UNL     1       0.285  -7.139   2.326  0.00  0.00    +0.090 A 
ATOM     21  C   UNL     1      -0.740  -7.427   1.444  0.00  0.00    +0.027 A 
ATOM     22  C   UNL     1      -0.744  -8.625   0.755  0.00  0.00    +0.005 A 
ATOM     23  C   UNL     1       0.278  -9.536   0.948  0.00  0.00    -0.050 A 
ATOM     24  C   UNL     1       1.304  -9.248   1.829  0.00  0.00    +0.005 A 
ATOM     25  C   UNL     1       1.310  -8.048   2.514  0.00  0.00    +0.027 A 
ATOM     26  C   UNL     1       0.274 -10.843   0.198  0.00  0.00    +0.044 C 
ENDBRANCH  17  20
ENDBRANCH  16  17
ENDBRANCH  14  16
ENDBRANCH   1  12
BRANCH   1  29
ATOM     27  C   UNL     1      -3.623  -3.040  -0.642  0.00  0.00    +0.217 C 
ATOM     28  O   UNL     1      -4.688  -2.510  -0.404  0.00  0.00    -0.276 OA
ATOM     29  N   UNL     1      -2.483  -2.513  -0.152  0.00  0.00    -0.279 N 
BRANCH  27  31
ATOM     30  C   UNL     1      -5.000  -4.757  -1.784  0.00  0.00    +0.013 C 
ATOM     31  C   UNL     1      -3.575  -4.288  -1.485  0.00  0.00    +0.092 C 
ENDBRANCH  27  31
BRANCH  29  32
ATOM     32  C   UNL     1      -2.538  -1.364   0.755  0.00  0.00    +0.183 C 
BRANCH  32  33
ATOM     33  C   UNL     1      -2.999  -1.819   2.115  0.00  0.00    +0.122 A 
ATOM     34  C   UNL     1      -2.279  -1.764   3.250  0.00  0.00    +0.046 A 
ATOM     35  C   UNL     1      -3.092  -2.292   4.278  0.00  0.00    +0.041 A 
ATOM     36  C   UNL     1      -4.261  -2.639   3.711  0.00  0.00    +0.195 A 
ATOM     37  O   UNL     1      -4.202  -2.345   2.402  0.00  0.00    -0.466 OA
ENDBRANCH  32  33
ENDBRANCH  29  32
ENDBRANCH   1  29
TORSDOF 11
