REMARK  Name = ZINC11592396
REMARK  8 active torsions:
REMARK  status: ('A' for Active; 'I' for Inactive)
REMARK    1  A    between atoms: C_4  and  S_23
REMARK    2  A    between atoms: C_5  and  N_7
REMARK    3  A    between atoms: C_8  and  C_10
REMARK    4  A    between atoms: C_10  and  S_11
REMARK    5  A    between atoms: S_11  and  C_12
REMARK    6  A    between atoms: C_15  and  C_18
REMARK    7  A    between atoms: N_16  and  N_17
REMARK    8  A    between atoms: S_23  and  C_24
REMARK                            x       y       z     vdW  Elec       q    Type
REMARK                         _______ _______ _______ _____ _____    ______ ____
ROOT
ATOM      1  N   UNL     1      -7.041  -5.169   0.184  0.00  0.00    -0.284 N 
ATOM      2  C   UNL     1      -6.689  -3.919   0.542  0.00  0.00    +0.228 C 
ATOM      3  O   UNL     1      -7.538  -3.063   0.674  0.00  0.00    -0.275 OA
ATOM      4  H   UNL     1      -6.357  -5.833   0.005  0.00  0.00    +0.155 HD
ENDROOT
BRANCH   1   9
ATOM      5  C   UNL     1     -10.664  -4.882  -0.392  0.00  0.00    +0.002 A 
ATOM      6  C   UNL     1     -11.075  -6.182  -0.158  0.00  0.00    +0.001 A 
ATOM      7  C   UNL     1     -10.153  -7.151   0.191  0.00  0.00    +0.017 A 
ATOM      8  C   UNL     1      -8.809  -6.822   0.301  0.00  0.00    +0.034 A 
ATOM      9  C   UNL     1      -8.396  -5.509   0.069  0.00  0.00    +0.047 A 
ATOM     10  C   UNL     1      -9.328  -4.544  -0.280  0.00  0.00    +0.024 A 
BRANCH   8  11
ATOM     11  S   UNL     1      -7.630  -8.056   0.737  0.00  0.00    -0.088 S 
BRANCH  11  12
ATOM     12  C   UNL     1      -8.590  -9.524   0.900  0.00  0.00    +0.013 A 
ATOM     13  C   UNL     1      -9.048  -9.922   2.151  0.00  0.00    +0.016 A 
ATOM     14  C   UNL     1      -9.805 -11.070   2.274  0.00  0.00    +0.021 A 
ATOM     15  C   UNL     1     -10.099 -11.831   1.156  0.00  0.00    +0.041 A 
ATOM     16  C   UNL     1      -9.640 -11.441  -0.090  0.00  0.00    +0.021 A 
ATOM     17  C   UNL     1      -8.887 -10.290  -0.221  0.00  0.00    +0.016 A 
ATOM     18 CL   UNL     1     -11.045 -13.277   1.317  0.00  0.00    -0.084 Cl
ENDBRANCH  11  12
ENDBRANCH   8  11
ENDBRANCH   1   9
BRANCH   2  19
ATOM     19  C   UNL     1      -5.238  -3.583   0.778  0.00  0.00    +0.173 C 
BRANCH  19  20
ATOM     20  S   UNL     1      -5.090  -1.840   1.242  0.00  0.00    -0.075 S 
BRANCH  20  21
ATOM     21  C   UNL     1      -3.345  -1.726   1.452  0.00  0.00    +0.209 A 
ATOM     22  N   UNL     1      -2.476  -2.699   1.292  0.00  0.00    -0.120 NA
ATOM     23  N   UNL     1      -1.286  -2.273   1.524  0.00  0.00    -0.123 NA
ATOM     24  C   UNL     1      -1.321  -0.999   1.848  0.00  0.00    +0.217 A 
ATOM     25  N   UNL     1      -2.643  -0.611   1.816  0.00  0.00    -0.221 N 
BRANCH  24  26
ATOM     26  C   UNL     1      -0.168  -0.149   2.186  0.00  0.00    +0.173 A 
ATOM     27  C   UNL     1       1.140  -0.446   1.949  0.00  0.00    +0.053 A 
ATOM     28  C   UNL     1       1.895   0.641   2.431  0.00  0.00    +0.042 A 
ATOM     29  C   UNL     1       1.023   1.538   2.933  0.00  0.00    +0.196 A 
ATOM     30  O   UNL     1      -0.223   1.057   2.784  0.00  0.00    -0.460 OA
ENDBRANCH  24  26
BRANCH  25  31
ATOM     31  N   UNL     1      -3.147   0.629   2.089  0.00  0.00    -0.294 N 
ATOM     32  H   UNL     1      -3.189   1.194   1.254  0.00  0.00    +0.163 HD
ATOM     33  H   UNL     1      -4.053   0.562   2.527  0.00  0.00    +0.163 HD
ENDBRANCH  25  31
ENDBRANCH  20  21
ENDBRANCH  19  20
ENDBRANCH   2  19
TORSDOF 8
