REMARK  Name = ZINC01018152
REMARK  3 active torsions:
REMARK  status: ('A' for Active; 'I' for Inactive)
REMARK    1  A    between atoms: C_1  and  C_2
REMARK    2  A    between atoms: C_5  and  C_8
REMARK    3  A    between atoms: C_14  and  C_16
REMARK                            x       y       z     vdW  Elec       q    Type
REMARK                         _______ _______ _______ _____ _____    ______ ____
ROOT
ATOM      1  C   UNL     1       0.058  -4.251  -0.021  0.00  0.00    +0.186 A 
ATOM      2  N   UNL     1      -0.206  -5.023  -1.050  0.00  0.00    -0.126 NA
ATOM      3  N   UNL     1      -0.097  -6.260  -0.710  0.00  0.00    -0.120 NA
ATOM      4  C   UNL     1       0.239  -6.339   0.544  0.00  0.00    +0.218 A 
ATOM      5  N   UNL     1       0.364  -5.071   1.056  0.00  0.00    -0.186 N 
ATOM      6  N   UNL     1       0.729  -4.975   2.392  0.00  0.00    -0.156 NA
ATOM      7  C   UNL     1       0.941  -6.035   3.114  0.00  0.00    +0.146 A 
ATOM      8  S   UNL     1       0.629  -7.353   1.948  0.00  0.00    -0.027 S 
ENDROOT
BRANCH   7   9
ATOM      9  C   UNL     1       1.339  -6.129   4.564  0.00  0.00    +0.268 C 
ATOM     10  C   UNL     1       0.415  -7.114   5.292  0.00  0.00    +0.280 C 
ATOM     11  O   UNL     1       0.828  -7.190   6.660  0.00  0.00    -0.484 OA
ATOM     12  C   UNL     1       2.163  -7.328   6.889  0.00  0.00    +0.162 A 
ATOM     13  C   UNL     1       2.599  -7.764   8.131  0.00  0.00    +0.049 A 
ATOM     14  C   UNL     1       3.951  -7.906   8.380  0.00  0.00    +0.004 A 
ATOM     15  C   UNL     1       4.872  -7.614   7.391  0.00  0.00    +0.004 A 
ATOM     16  C   UNL     1       4.444  -7.179   6.151  0.00  0.00    +0.049 A 
ATOM     17  C   UNL     1       3.089  -7.036   5.895  0.00  0.00    +0.163 A 
ATOM     18  O   UNL     1       2.682  -6.614   4.666  0.00  0.00    -0.475 OA
ENDBRANCH   7   9
BRANCH   1  23
ATOM     19  C   UNL     1      -0.018   1.503   0.010  0.00  0.00    +0.044 C 
ATOM     20  C   UNL     1       0.002  -0.004   0.002  0.00  0.00    -0.050 A 
ATOM     21  C   UNL     1       0.006  -0.686  -1.202  0.00  0.00    +0.004 A 
ATOM     22  C   UNL     1       0.024  -2.065  -1.217  0.00  0.00    +0.012 A 
ATOM     23  C   UNL     1       0.039  -2.773  -0.013  0.00  0.00    +0.021 A 
ATOM     24  C   UNL     1       0.036  -2.079   1.198  0.00  0.00    +0.012 A 
ATOM     25  C   UNL     1       0.023  -0.699   1.198  0.00  0.00    +0.004 A 
ENDBRANCH   1  23
TORSDOF 2
