REMARK  Name = ZINC19111239
REMARK  7 active torsions:
REMARK  status: ('A' for Active; 'I' for Inactive)
REMARK    1  A    between atoms: C_4  and  C_7
REMARK    2  A    between atoms: C_9  and  C_12
REMARK    3  A    between atoms: C_12  and  C_13
REMARK    4  A    between atoms: C_13  and  O_26
REMARK    5  A    between atoms: C_18  and  C_19
REMARK    6  A    between atoms: C_18  and  N_51
REMARK    7  A    between atoms: C_23  and  O_25
REMARK                            x       y       z     vdW  Elec       q    Type
REMARK                         _______ _______ _______ _____ _____    ______ ____
ROOT
ATOM      1  C   UNL     1      -3.717  -4.143   1.458  0.00  0.00    +0.070 C 
ATOM      2  C   UNL     1      -2.380  -4.185   2.202  0.00  0.00    +0.016 C 
ATOM      3  C   UNL     1      -2.610  -4.701   3.625  0.00  0.00    -0.076 C 
ATOM      4  C   UNL     1      -4.512  -6.018   2.904  0.00  0.00    -0.076 C 
ATOM      5  C   UNL     1      -4.339  -5.543   1.459  0.00  0.00    +0.016 C 
ATOM      6  N   UNL     1      -3.186  -6.060   3.557  0.00  0.00    +0.383 N 
ATOM      7  H   UNL     1      -2.561  -6.659   3.004  0.00  0.00    -0.081 HD
ENDROOT
BRANCH   1   8
ATOM      8  O   UNL     1      -4.600  -3.229   2.112  0.00  0.00    -0.388 OA
ATOM      9  H   UNL     1      -4.268  -2.321   2.149  0.00  0.00    +0.210 HD
ENDBRANCH   1   8
BRANCH   1  10
ATOM     10  C   UNL     1      -3.486  -3.688   0.016  0.00  0.00    +0.111 C 
BRANCH  10  13
ATOM     11  C   UNL     1      -1.272  -0.766   0.011  0.00  0.00    +0.114 A 
ATOM     12  C   UNL     1      -1.421  -2.181  -0.001  0.00  0.00    +0.076 A 
ATOM     13  C   UNL     1      -2.761  -2.367   0.016  0.00  0.00    +0.141 A 
ATOM     14  O   UNL     1      -3.318  -1.148   0.028  0.00  0.00    -0.359 OA
ATOM     15  N   UNL     1      -2.485  -0.272   0.025  0.00  0.00    -0.078 NA
BRANCH  11  19
ATOM     16  C   UNL     1       2.377   1.418  -0.013  0.00  0.00    +0.000 A 
ATOM     17  C   UNL     1       1.170   2.093   0.002  0.00  0.00    +0.001 A 
ATOM     18  C   UNL     1      -0.017   1.389   0.010  0.00  0.00    +0.010 A 
ATOM     19  C   UNL     1       0.002  -0.004   0.002  0.00  0.00    +0.004 A 
ATOM     20  C   UNL     1       1.221  -0.679  -0.013  0.00  0.00    +0.010 A 
ATOM     21  C   UNL     1       2.402   0.035  -0.021  0.00  0.00    +0.001 A 
ENDBRANCH  11  19
ENDBRANCH  10  13
ENDBRANCH   1  10
BRANCH   6  22
ATOM     22  C   UNL     1      -3.311  -6.624   4.917  0.00  0.00    -0.043 C 
BRANCH  22  23
ATOM     23  C   UNL     1      -1.931  -6.859   5.473  0.00  0.00    -0.061 A 
ATOM     24  C   UNL     1      -1.296  -8.069   5.258  0.00  0.00    +0.002 A 
ATOM     25  C   UNL     1      -0.027  -8.286   5.763  0.00  0.00    +0.004 A 
ATOM     26  C   UNL     1       0.605  -7.298   6.493  0.00  0.00    +0.045 A 
ATOM     27  C   UNL     1      -0.032  -6.086   6.716  0.00  0.00    +0.117 A 
ATOM     28  C   UNL     1      -1.303  -5.869   6.203  0.00  0.00    +0.047 A 
BRANCH  27  29
ATOM     29  O   UNL     1       0.588  -5.114   7.434  0.00  0.00    -0.507 OA
ATOM     30  H   UNL     1       0.413  -5.155   8.384  0.00  0.00    +0.292 HD
ENDBRANCH  27  29
ENDBRANCH  22  23
ENDBRANCH   6  22
TORSDOF 7
