REMARK  Name = ZINC12293577
REMARK  5 active torsions:
REMARK  status: ('A' for Active; 'I' for Inactive)
REMARK    1  A    between atoms: C_6  and  C_11
REMARK    2  A    between atoms: C_11  and  C_13
REMARK    3  A    between atoms: C_11  and  O_30
REMARK    4  A    between atoms: C_13  and  N_56
REMARK    5  A    between atoms: C_20  and  O_29
REMARK                            x       y       z     vdW  Elec       q    Type
REMARK                         _______ _______ _______ _____ _____    ______ ____
ROOT
ATOM      1  C   UNL     1       2.201   9.964  -0.537  0.00  0.00    -0.075 C 
ATOM      2  C   UNL     1       2.139  11.494  -0.540  0.00  0.00    +0.029 C 
ATOM      3  C   UNL     1       2.423  12.009  -1.952  0.00  0.00    +0.110 C 
ATOM      4  C   UNL     1       1.415  11.399  -2.928  0.00  0.00    +0.029 C 
ATOM      5  C   UNL     1       1.501   9.873  -2.855  0.00  0.00    -0.075 C 
ATOM      6  C   UNL     1       2.298  13.536  -1.975  0.00  0.00    +0.084 C 
ATOM      7  C   UNL     1       3.241  14.114  -0.917  0.00  0.00    +0.152 C 
ATOM      8  C   UNL     1       4.603  13.483  -1.053  0.00  0.00    +0.023 A 
ATOM      9  C   UNL     1       5.690  14.110  -0.466  0.00  0.00    +0.010 A 
ATOM     10  C   UNL     1       6.952  13.558  -0.566  0.00  0.00    +0.001 A 
ATOM     11  C   UNL     1       7.135  12.373  -1.255  0.00  0.00    +0.004 A 
ATOM     12  C   UNL     1       6.056  11.745  -1.843  0.00  0.00    +0.046 A 
ATOM     13  C   UNL     1       4.784  12.299  -1.745  0.00  0.00    +0.127 A 
ATOM     14  O   UNL     1       3.748  11.653  -2.341  0.00  0.00    -0.485 OA
ATOM     15  N   UNL     1       1.187   9.441  -1.476  0.00  0.00    +0.382 N 
ATOM     16  H   UNL     1       0.266   9.811  -1.213  0.00  0.00    -0.082 HD
ENDROOT
BRANCH   7  17
ATOM     17  O   UNL     1       3.352  15.527  -1.099  0.00  0.00    -0.387 OA
ATOM     18  H   UNL     1       3.933  15.962  -0.461  0.00  0.00    +0.210 HD
ENDBRANCH   7  17
BRANCH  15  19
ATOM     19  C   UNL     1       1.149   7.966  -1.407  0.00  0.00    -0.042 C 
BRANCH  19  20
ATOM     20  C   UNL     1      -0.056   7.466  -2.208  0.00  0.00    +0.128 C 
BRANCH  20  26
ATOM     21  C   UNL     1       0.195   1.040  -2.801  0.00  0.00    +0.001 A 
ATOM     22  C   UNL     1       0.842   1.629  -3.885  0.00  0.00    +0.001 A 
ATOM     23  C   UNL     1       0.924   2.982  -4.003  0.00  0.00    +0.008 A 
ATOM     24  C   UNL     1       0.358   3.801  -3.011  0.00  0.00    -0.018 A 
ATOM     25  C   UNL     1       0.427   5.202  -3.094  0.00  0.00    +0.014 A 
ATOM     26  C   UNL     1      -0.132   5.964  -2.115  0.00  0.00    -0.020 A 
ATOM     27  C   UNL     1      -0.775   5.375  -1.027  0.00  0.00    +0.007 A 
ATOM     28  C   UNL     1      -0.862   4.022  -0.913  0.00  0.00    +0.009 A 
ATOM     29  C   UNL     1      -0.296   3.203  -1.905  0.00  0.00    -0.018 A 
ATOM     30  C   UNL     1      -0.365   1.801  -1.822  0.00  0.00    +0.008 A 
ENDBRANCH  20  26
BRANCH  20  31
ATOM     31  O   UNL     1      -1.252   8.038  -1.675  0.00  0.00    -0.389 OA
ATOM     32  H   UNL     1      -1.415   7.817  -0.748  0.00  0.00    +0.210 HD
ENDBRANCH  20  31
ENDBRANCH  19  20
ENDBRANCH  15  19
TORSDOF 5
