REMARK  Name = ZINC08615338
REMARK  4 active torsions:
REMARK  status: ('A' for Active; 'I' for Inactive)
REMARK    1  A    between atoms: C_1  and  S_2
REMARK    2  A    between atoms: S_2  and  C_3
REMARK    3  A    between atoms: C_7  and  S_9
REMARK    4  A    between atoms: S_9  and  C_10
REMARK                            x       y       z     vdW  Elec       q    Type
REMARK                         _______ _______ _______ _____ _____    ______ ____
ROOT
ATOM      1  C   UNL     1       0.002  -0.004   0.002  0.00  0.00    +0.136 A 
ATOM      2  C   UNL     1      -0.017   1.402   0.010  0.00  0.00    +0.140 A 
ATOM      3  C   UNL     1       1.211   2.084   0.002  0.00  0.00    +0.164 A 
ATOM      4  N   UNL     1       0.901   3.421   0.011  0.00  0.00    -0.329 N 
ATOM      5  H   UNL     1       1.552   4.179   0.009  0.00  0.00    +0.168 HD
ATOM      6  C   UNL     1      -0.460   3.525   0.025  0.00  0.00    +0.198 A 
ATOM      7  N   UNL     1      -0.996   2.339   0.019  0.00  0.00    -0.232 NA
ATOM      8  N   UNL     1       2.341   1.385  -0.013  0.00  0.00    -0.195 NA
ATOM      9  C   UNL     1       2.314   0.062  -0.020  0.00  0.00    +0.216 A 
ATOM     10  N   UNL     1       1.177  -0.624  -0.013  0.00  0.00    -0.206 NA
ATOM     11  N   UNL     1       3.513  -0.632  -0.035  0.00  0.00    -0.327 N 
ATOM     12  H   UNL     1       3.512  -1.602  -0.040  0.00  0.00    +0.145 HD
ATOM     13  H   UNL     1       4.353  -0.147  -0.040  0.00  0.00    +0.145 HD
ENDROOT
BRANCH   1  14
ATOM     14  S   UNL     1      -1.500  -0.925   0.012  0.00  0.00    -0.047 S 
BRANCH  14  19
ATOM     15  C   UNL     1       0.946  -4.003  -0.029  0.00  0.00    +0.189 A 
ATOM     16  N   UNL     1       0.154  -5.066  -0.027  0.00  0.00    -0.229 NA
ATOM     17  C   UNL     1      -1.164  -4.932  -0.013  0.00  0.00    +0.131 A 
ATOM     18  C   UNL     1      -1.715  -3.665  -0.001  0.00  0.00    +0.068 A 
ATOM     19  C   UNL     1      -0.855  -2.564  -0.003  0.00  0.00    +0.121 A 
ATOM     20  N   UNL     1       0.458  -2.772  -0.023  0.00  0.00    -0.214 NA
ATOM     21 BR   UNL     1      -3.591  -3.426   0.020  0.00  0.00    -0.046 Br
BRANCH  15  23
ATOM     22  C   UNL     1       2.770  -6.043  -0.059  0.00  0.00    +0.093 C 
ATOM     23  S   UNL     1       2.693  -4.235  -0.048  0.00  0.00    -0.089 S 
ENDBRANCH  15  23
ENDBRANCH  14  19
ENDBRANCH   1  14
TORSDOF 3
