REMARK  Name = ZINC28465430
REMARK  7 active torsions:
REMARK  status: ('A' for Active; 'I' for Inactive)
REMARK    1  A    between atoms: C_1  and  C_2
REMARK    2  A    between atoms: C_2  and  O_3
REMARK    3  A    between atoms: O_3  and  C_4
REMARK    4  A    between atoms: C_4  and  C_6
REMARK    5  A    between atoms: C_7  and  C_23
REMARK    6  A    between atoms: C_11  and  C_13
REMARK    7  A    between atoms: C_16  and  O_20
REMARK                            x       y       z     vdW  Elec       q    Type
REMARK                         _______ _______ _______ _____ _____    ______ ____
ROOT
ATOM      1  C   UNL     1       1.666  -2.383   2.320  0.00  0.00    +0.078 C 
ATOM      2  C   UNL     1       1.513  -3.685   2.645  0.00  0.00    +0.019 C 
ATOM      3  N   UNL     1       1.966  -4.172   3.836  0.00  0.00    -0.300 N 
ATOM      4  C   UNL     1       2.583  -3.423   4.758  0.00  0.00    +0.135 C 
ATOM      5  N   UNL     1       2.809  -2.106   4.579  0.00  0.00    -0.315 N 
ATOM      6  C   UNL     1       2.363  -1.484   3.321  0.00  0.00    +0.141 C 
ATOM      7  S   UNL     1       3.102  -4.161   6.213  0.00  0.00    -0.019 S 
ATOM      8  C   UNL     1       0.831  -4.615   1.675  0.00  0.00    +0.061 C 
ATOM      9  H   UNL     1       1.833  -5.114   4.026  0.00  0.00    +0.154 HD
ATOM     10  H   UNL     1       3.257  -1.582   5.261  0.00  0.00    +0.149 HD
ENDROOT
BRANCH   6  11
ATOM     11  C   UNL     1       1.420  -0.361   3.673  0.00  0.00    -0.020 A 
ATOM     12  C   UNL     1       0.411  -0.571   4.594  0.00  0.00    +0.024 A 
ATOM     13  C   UNL     1      -0.455   0.457   4.918  0.00  0.00    +0.061 A 
ATOM     14  C   UNL     1      -0.310   1.700   4.317  0.00  0.00    +0.145 A 
ATOM     15  C   UNL     1       0.704   1.907   3.393  0.00  0.00    +0.061 A 
ATOM     16  C   UNL     1       1.571   0.877   3.077  0.00  0.00    +0.024 A 
ATOM     17 BR   UNL     1       0.905   3.599   2.573  0.00  0.00    -0.046 Br
ATOM     18 BR   UNL     1      -1.836   0.169   6.177  0.00  0.00    -0.046 Br
BRANCH  14  19
ATOM     19  O   UNL     1      -1.161   2.712   4.633  0.00  0.00    -0.505 OA
ATOM     20  H   UNL     1      -0.866   3.256   5.376  0.00  0.00    +0.292 HD
ENDBRANCH  14  19
ENDBRANCH   6  11
BRANCH   1  21
ATOM     21  C   UNL     1       1.197  -1.877   1.086  0.00  0.00    +0.339 C 
ATOM     22  O   UNL     1       0.747  -2.636   0.248  0.00  0.00    -0.245 OA
BRANCH  21  23
ATOM     23  O   UNL     1       1.248  -0.551   0.836  0.00  0.00    -0.462 OA
BRANCH  23  25
ATOM     24  C   UNL     1       0.895   1.410  -0.530  0.00  0.00    +0.048 C 
ATOM     25  C   UNL     1       0.757  -0.110  -0.431  0.00  0.00    +0.229 C 
ENDBRANCH  23  25
ENDBRANCH  21  23
ENDBRANCH   1  21
TORSDOF 5
