REMARK  Name = ZINC13568638
REMARK  6 active torsions:
REMARK  status: ('A' for Active; 'I' for Inactive)
REMARK    1  A    between atoms: C_1  and  O_2
REMARK    2  A    between atoms: O_2  and  C_3
REMARK    3  A    between atoms: C_6  and  O_33
REMARK    4  A    between atoms: C_7  and  C_9
REMARK    5  A    between atoms: C_14  and  C_24
REMARK    6  A    between atoms: O_33  and  C_34
REMARK                            x       y       z     vdW  Elec       q    Type
REMARK                         _______ _______ _______ _____ _____    ______ ____
ROOT
ATOM      1  C   UNL     1      -3.628   3.109  -2.877  0.00  0.00    +0.036 C 
ATOM      2  C   UNL     1      -3.183   3.201  -1.418  0.00  0.00    +0.060 C 
ATOM      3  C   UNL     1      -2.416   1.950  -1.029  0.00  0.00    +0.017 C 
ATOM      4  C   UNL     1      -2.715   0.763  -1.586  0.00  0.00    +0.036 C 
ATOM      5  C   UNL     1      -2.041  -0.553  -1.282  0.00  0.00    +0.137 C 
ATOM      6  N   UNL     1      -1.176  -0.535  -0.121  0.00  0.00    -0.331 N 
ATOM      7  C   UNL     1      -0.020   0.246  -0.098  0.00  0.00    +0.049 A 
ATOM      8  C   UNL     1       1.241  -0.325  -0.059  0.00  0.00    +0.025 A 
ATOM      9  C   UNL     1       2.358   0.490  -0.128  0.00  0.00    +0.002 A 
ATOM     10  C   UNL     1       2.217   1.862  -0.234  0.00  0.00    +0.002 A 
ATOM     11  C   UNL     1       0.957   2.436  -0.256  0.00  0.00    +0.025 A 
ATOM     12  C   UNL     1      -0.160   1.624  -0.170  0.00  0.00    +0.052 A 
ATOM     13  N   UNL     1      -1.448   2.139  -0.096  0.00  0.00    -0.316 N 
ATOM     14  C   UNL     1      -3.742   0.671  -2.554  0.00  0.00    +0.163 C 
ATOM     15  O   UNL     1      -4.005  -0.417  -3.028  0.00  0.00    -0.292 OA
ATOM     16  C   UNL     1      -4.518   1.868  -3.015  0.00  0.00    +0.088 C 
ATOM     17  H   UNL     1      -1.404  -1.075   0.652  0.00  0.00    +0.147 HD
ATOM     18  H   UNL     1      -1.673   2.675   0.681  0.00  0.00    +0.152 HD
ENDROOT
BRANCH   1  23
ATOM     19  C   UNL     1      -6.289   5.792  -2.919  0.00  0.00    +0.121 A 
ATOM     20  C   UNL     1      -5.842   6.610  -3.946  0.00  0.00    +0.049 A 
ATOM     21  C   UNL     1      -4.681   6.295  -4.624  0.00  0.00    +0.049 A 
ATOM     22  C   UNL     1      -3.962   5.161  -4.278  0.00  0.00    +0.124 A 
ATOM     23  C   UNL     1      -4.409   4.342  -3.252  0.00  0.00    +0.002 A 
ATOM     24  C   UNL     1      -5.574   4.654  -2.577  0.00  0.00    +0.053 A 
BRANCH  19  26
ATOM     25  C   UNL     1      -8.123   7.284  -2.661  0.00  0.00    +0.277 C 
ATOM     26  O   UNL     1      -7.433   6.101  -2.252  0.00  0.00    -0.495 OA
ENDBRANCH  19  26
BRANCH  22  27
ATOM     27  O   UNL     1      -2.818   4.851  -4.945  0.00  0.00    -0.495 OA
ATOM     28  C   UNL     1      -2.416   5.738  -5.991  0.00  0.00    +0.277 C 
ENDBRANCH  22  27
ENDBRANCH   1  23
BRANCH   5  29
ATOM     29  C   UNL     1      -1.221  -0.957  -2.480  0.00  0.00    -0.005 A 
ATOM     30  C   UNL     1      -0.118  -0.207  -2.862  0.00  0.00    +0.009 A 
ATOM     31  C   UNL     1       0.608  -0.619  -3.968  0.00  0.00    +0.020 A 
ATOM     32  C   UNL     1       0.206  -1.749  -4.656  0.00  0.00    +0.111 A 
ATOM     33  N   UNL     1      -0.851  -2.434  -4.267  0.00  0.00    -0.263 NA
ATOM     34  C   UNL     1      -1.562  -2.075  -3.216  0.00  0.00    +0.116 A 
ENDBRANCH   5  29
TORSDOF 4
