REMARK  Name = ZINC09427495
REMARK  6 active torsions:
REMARK  status: ('A' for Active; 'I' for Inactive)
REMARK    1  A    between atoms: C_1  and  C_2
REMARK    2  A    between atoms: C_2  and  C_3
REMARK    3  A    between atoms: C_3  and  C_5
REMARK    4  A    between atoms: C_3  and  C_6
REMARK    5  A    between atoms: C_9  and  N_12
REMARK    6  A    between atoms: C_16  and  C_17
REMARK                            x       y       z     vdW  Elec       q    Type
REMARK                         _______ _______ _______ _____ _____    ______ ____
ROOT
ATOM      1  N   UNL     1       0.000   1.335  -0.459  0.00  0.00    -0.190 N 
ATOM      2  C   UNL     1       0.732   1.084  -1.564  0.00  0.00    +0.264 C 
ATOM      3  O   UNL     1       0.322   1.390  -2.668  0.00  0.00    -0.269 OA
ATOM      4  C   UNL     1       2.040   0.428  -1.399  0.00  0.00    +0.103 C 
ATOM      5  C   UNL     1       2.850   0.138  -2.492  0.00  0.00    +0.064 C 
ATOM      6  C   UNL     1       2.454   0.093  -0.025  0.00  0.00    +0.257 C 
ATOM      7  O   UNL     1       3.521  -0.450   0.191  0.00  0.00    -0.270 OA
ATOM      8  N   UNL     1       1.618   0.405   0.987  0.00  0.00    -0.235 N 
ATOM      9  C   UNL     1       0.440   1.003   0.763  0.00  0.00    +0.320 C 
ATOM     10  O   UNL     1      -0.268   1.257   1.718  0.00  0.00    -0.251 OA
ATOM     11  H   UNL     1       1.876   0.191   1.897  0.00  0.00    +0.159 HD
ENDROOT
BRANCH   1  15
ATOM     12  C   UNL     1      -3.720   3.173  -0.854  0.00  0.00    -0.044 A 
ATOM     13  C   UNL     1      -3.626   1.793  -0.874  0.00  0.00    +0.006 A 
ATOM     14  C   UNL     1      -2.395   1.182  -0.744  0.00  0.00    +0.024 A 
ATOM     15  C   UNL     1      -1.251   1.953  -0.592  0.00  0.00    +0.046 A 
ATOM     16  C   UNL     1      -1.349   3.338  -0.567  0.00  0.00    +0.024 A 
ATOM     17  C   UNL     1      -2.583   3.944  -0.703  0.00  0.00    +0.006 A 
BRANCH  12  18
ATOM     18  C   UNL     1      -5.066   3.837  -0.995  0.00  0.00    +0.016 C 
ATOM     19  C   UNL     1      -5.062   4.737  -2.232  0.00  0.00    +0.012 C 
BRANCH  18  21
ATOM     20  C   UNL     1      -6.767   5.254   0.162  0.00  0.00    +0.004 C 
ATOM     21  C   UNL     1      -5.352   4.680   0.249  0.00  0.00    +0.004 C 
ENDBRANCH  18  21
ENDBRANCH  12  18
ENDBRANCH   1  15
BRANCH   5  22
ATOM     22  C   UNL     1       2.518   0.632  -3.762  0.00  0.00    +0.130 A 
ATOM     23  C   UNL     1       2.692  -0.029  -4.970  0.00  0.00    +0.050 A 
ATOM     24  C   UNL     1       2.224   0.833  -5.965  0.00  0.00    +0.057 A 
ATOM     25  C   UNL     1       1.798   1.966  -5.351  0.00  0.00    +0.171 A 
ATOM     26  O   UNL     1       1.977   1.841  -4.030  0.00  0.00    -0.449 OA
ATOM     27 BR   UNL     1       1.071   3.479  -6.221  0.00  0.00    -0.008 Br
ENDBRANCH   5  22
TORSDOF 4
