REMARK  Name = ZINC34916985
REMARK  5 active torsions:
REMARK  status: ('A' for Active; 'I' for Inactive)
REMARK    1  A    between atoms: C_2  and  C_15
REMARK    2  A    between atoms: C_4  and  C_11
REMARK    3  A    between atoms: C_6  and  C_7
REMARK    4  A    between atoms: C_15  and  N_16
REMARK    5  A    between atoms: C_18  and  C_23
REMARK                            x       y       z     vdW  Elec       q    Type
REMARK                         _______ _______ _______ _____ _____    ______ ____
ROOT
ATOM      1  N   UNL     1       1.157   4.074   1.393  0.00  0.00    -0.296 N 
ATOM      2  C   UNL     1      -0.051   4.324   2.189  0.00  0.00    +0.121 C 
ATOM      3  C   UNL     1       0.427   4.383   3.656  0.00  0.00    +0.101 C 
ATOM      4  C   UNL     1       1.904   4.809   3.490  0.00  0.00    +0.110 C 
ATOM      5  C   UNL     1       2.270   4.338   2.100  0.00  0.00    +0.217 C 
ATOM      6  O   UNL     1       3.402   4.218   1.682  0.00  0.00    -0.276 OA
ENDROOT
BRANCH   3   7
ATOM      7  C   UNL     1      -0.348   5.416   4.434  0.00  0.00    +0.221 C 
ATOM      8  O   UNL     1      -1.215   6.064   3.886  0.00  0.00    -0.275 OA
ATOM      9  N   UNL     1      -0.078   5.619   5.739  0.00  0.00    -0.301 N 
ATOM     10  C   UNL     1       0.973   4.847   6.415  0.00  0.00    +0.113 C 
ATOM     11  C   UNL     1       0.376   4.187   7.662  0.00  0.00    +0.084 C 
ATOM     12  C   UNL     1      -0.283   5.257   8.535  0.00  0.00    +0.173 C 
ATOM     13  C   UNL     1      -1.409   5.942   7.758  0.00  0.00    +0.084 C 
ATOM     14  C   UNL     1      -0.824   6.622   6.511  0.00  0.00    +0.113 C 
ATOM     15  O   UNL     1      -0.816   4.650   9.719  0.00  0.00    -0.346 OA
ATOM     16  C   UNL     1      -0.165   5.270  10.847  0.00  0.00    +0.191 C 
ATOM     17  C   UNL     1       0.339   6.614  10.265  0.00  0.00    +0.191 C 
ATOM     18  O   UNL     1       0.699   6.234   8.915  0.00  0.00    -0.346 OA
ENDBRANCH   3   7
BRANCH   1  19
ATOM     19  C   UNL     1       1.151   3.592   0.010  0.00  0.00    +0.142 C 
BRANCH  19  21
ATOM     20  C   UNL     1      -0.017   1.378   0.010  0.00  0.00    +0.017 A 
ATOM     21  C   UNL     1       1.171   2.086   0.002  0.00  0.00    -0.029 A 
ATOM     22  C   UNL     1       2.377   1.411  -0.013  0.00  0.00    +0.017 A 
ATOM     23  C   UNL     1       2.396   0.029  -0.020  0.00  0.00    +0.056 A 
ATOM     24  C   UNL     1       1.208  -0.679  -0.012  0.00  0.00    +0.024 A 
ATOM     25  C   UNL     1       0.002  -0.004   0.002  0.00  0.00    +0.056 A 
BRANCH  25  26
ATOM     26  C   UNL     1      -1.293  -0.775   0.011  0.00  0.00    +0.417 C 
ATOM     27  F   UNL     1      -1.706  -1.007  -1.306  0.00  0.00    -0.166 F 
ATOM     28  F   UNL     1      -1.102  -1.999   0.662  0.00  0.00    -0.166 F 
ATOM     29  F   UNL     1      -2.271  -0.036   0.684  0.00  0.00    -0.166 F 
ENDBRANCH  25  26
BRANCH  23  30
ATOM     30  C   UNL     1       3.711  -0.707  -0.038  0.00  0.00    +0.417 C 
ATOM     31  F   UNL     1       4.132  -0.941   1.276  0.00  0.00    -0.166 F 
ATOM     32  F   UNL     1       3.554  -1.928  -0.702  0.00  0.00    -0.166 F 
ATOM     33  F   UNL     1       4.669   0.065  -0.703  0.00  0.00    -0.166 F 
ENDBRANCH  23  30
ENDBRANCH  19  21
ENDBRANCH   1  19
TORSDOF 5
