REMARK  Name = ZINC35037023
REMARK  10 active torsions:
REMARK  status: ('A' for Active; 'I' for Inactive)
REMARK    1  A    between atoms: C_1  and  C_2
REMARK    2  A    between atoms: C_2  and  C_3
REMARK    3  A    between atoms: C_3  and  N_4
REMARK    4  A    between atoms: C_14  and  C_15
REMARK    5  A    between atoms: C_15  and  C_17
REMARK    6  A    between atoms: C_15  and  N_19
REMARK    7  A    between atoms: C_17  and  C_18
REMARK    8  A    between atoms: N_27  and  C_28
REMARK    9  A    between atoms: C_31  and  S_34
REMARK   10  A    between atoms: S_34  and  C_35
REMARK                            x       y       z     vdW  Elec       q    Type
REMARK                         _______ _______ _______ _____ _____    ______ ____
ROOT
ATOM      1  N   UNL     1      -1.170  -3.704   3.696  0.00  0.00    +0.388 N 
ATOM      2  C   UNL     1      -0.394  -4.940   3.858  0.00  0.00    -0.058 C 
ATOM      3  C   UNL     1      -0.566  -5.466   5.287  0.00  0.00    +0.091 C 
ATOM      4  N   UNL     1      -0.203  -4.394   6.226  0.00  0.00    -0.289 N 
ATOM      5  C   UNL     1      -0.814  -3.069   6.036  0.00  0.00    +0.091 C 
ATOM      6  C   UNL     1      -0.630  -2.656   4.572  0.00  0.00    -0.058 C 
ATOM      7  C   UNL     1       0.664  -4.619   7.234  0.00  0.00    +0.306 C 
ATOM      8  O   UNL     1       1.233  -5.690   7.318  0.00  0.00    -0.252 OA
ATOM      9  N   UNL     1       0.899  -3.656   8.147  0.00  0.00    -0.269 N 
ATOM     10  H   UNL     1       0.373  -2.842   8.141  0.00  0.00    +0.156 HD
ATOM     11  H   UNL     1      -2.133  -3.880   3.940  0.00  0.00    -0.081 HD
ENDROOT
BRANCH   9  12
ATOM     12  C   UNL     1       1.906  -3.832   9.107  0.00  0.00    +0.035 A 
ATOM     13  C   UNL     1       3.038  -4.575   8.797  0.00  0.00    +0.024 A 
ATOM     14  C   UNL     1       4.030  -4.748   9.742  0.00  0.00    +0.016 A 
ATOM     15  C   UNL     1       3.896  -4.179  11.002  0.00  0.00    +0.008 A 
ATOM     16  C   UNL     1       2.763  -3.436  11.311  0.00  0.00    +0.016 A 
ATOM     17  C   UNL     1       1.774  -3.259  10.364  0.00  0.00    +0.024 A 
BRANCH  15  18
ATOM     18  S   UNL     1       5.161  -4.401  12.208  0.00  0.00    -0.129 S 
ATOM     19  C   UNL     1       4.550  -3.496  13.657  0.00  0.00    +0.090 C 
ENDBRANCH  15  18
ENDBRANCH   9  12
BRANCH   1  20
ATOM     20  C   UNL     1      -1.093  -3.259   2.298  0.00  0.00    -0.001 C 
BRANCH  20  31
ATOM     21  N   UNL     1      -1.015  -4.517   0.184  0.00  0.00    -0.297 N 
ATOM     22  C   UNL     1      -1.435  -5.487  -0.661  0.00  0.00    +0.262 A 
ATOM     23  O   UNL     1      -0.910  -5.650  -1.748  0.00  0.00    -0.267 OA
ATOM     24  C   UNL     1      -2.549  -6.337  -0.216  0.00  0.00    +0.065 A 
ATOM     25  C   UNL     1      -3.056  -7.363  -1.010  0.00  0.00    +0.015 A 
ATOM     26  C   UNL     1      -4.102  -8.129  -0.543  0.00  0.00    +0.001 A 
ATOM     27  C   UNL     1      -4.652  -7.886   0.708  0.00  0.00    +0.002 A 
ATOM     28  C   UNL     1      -4.165  -6.876   1.508  0.00  0.00    +0.028 A 
ATOM     29  C   UNL     1      -3.106  -6.086   1.058  0.00  0.00    +0.078 A 
ATOM     30  N   UNL     1      -2.595  -5.082   1.813  0.00  0.00    -0.235 NA
ATOM     31  C   UNL     1      -1.607  -4.351   1.395  0.00  0.00    +0.099 A 
BRANCH  21  32
ATOM     32  C   UNL     1       0.092  -3.641  -0.209  0.00  0.00    +0.126 C 
BRANCH  32  34
ATOM     33  C   UNL     1       2.565  -3.303  -0.095  0.00  0.00    +0.005 C 
ATOM     34  C   UNL     1       1.409  -4.217   0.315  0.00  0.00    +0.018 C 
ENDBRANCH  32  34
ENDBRANCH  21  32
ENDBRANCH  20  31
BRANCH  20  35
ATOM     35  C   UNL     1      -1.947  -2.003   2.115  0.00  0.00    -0.011 C 
ATOM     36  C   UNL     1      -3.396  -2.310   2.497  0.00  0.00    +0.002 C 
ENDBRANCH  20  35
ENDBRANCH   1  20
TORSDOF 7
