REMARK  Name = ZINC39940773
REMARK  8 active torsions:
REMARK  status: ('A' for Active; 'I' for Inactive)
REMARK    1  A    between atoms: C_1  and  C_2
REMARK    2  A    between atoms: C_7  and  N_8
REMARK    3  A    between atoms: C_11  and  C_16
REMARK    4  A    between atoms: C_16  and  O_17
REMARK    5  A    between atoms: O_17  and  C_18
REMARK    6  A    between atoms: C_18  and  C_20
REMARK    7  A    between atoms: C_20  and  C_21
REMARK    8  A    between atoms: C_21  and  C_22
REMARK                            x       y       z     vdW  Elec       q    Type
REMARK                         _______ _______ _______ _____ _____    ______ ____
ROOT
ATOM      1  C   UNL     1      -0.360   0.031   7.199  0.00  0.00    +0.308 C 
ENDROOT
BRANCH   1   5
ATOM      2  N   UNL     1       0.025  -0.015   2.416  0.00  0.00    -0.283 N 
ATOM      3  C   UNL     1      -0.058  -0.712   3.606  0.00  0.00    +0.224 A 
ATOM      4  N   UNL     1      -0.162  -0.053   4.758  0.00  0.00    -0.196 NA
ATOM      5  C   UNL     1      -0.242  -0.719   5.897  0.00  0.00    +0.173 A 
ATOM      6  N   UNL     1      -0.219  -2.041   5.897  0.00  0.00    -0.196 NA
ATOM      7  C   UNL     1      -0.115  -2.706   4.749  0.00  0.00    +0.217 A 
ATOM      8  N   UNL     1      -0.041  -2.040   3.602  0.00  0.00    -0.181 NA
ATOM      9  N   UNL     1      -0.091  -4.086   4.750  0.00  0.00    -0.327 N 
ATOM     10  H   UNL     1      -0.077   0.949   2.411  0.00  0.00    +0.155 HD
ATOM     11  H   UNL     1      -0.150  -4.571   5.588  0.00  0.00    +0.145 HD
ATOM     12  H   UNL     1      -0.015  -4.570   3.913  0.00  0.00    +0.145 HD
BRANCH   2  19
ATOM     13  C   UNL     1      -1.030   1.083   0.013  0.00  0.00    +0.045 C 
ATOM     14  C   UNL     1      -0.239  -0.200   0.024  0.00  0.00    -0.029 A 
ATOM     15  C   UNL     1      -0.003  -0.876  -1.157  0.00  0.00    +0.005 A 
ATOM     16  C   UNL     1       0.723  -2.053  -1.149  0.00  0.00    +0.000 A 
ATOM     17  C   UNL     1       1.214  -2.557   0.042  0.00  0.00    +0.002 A 
ATOM     18  C   UNL     1       0.981  -1.886   1.226  0.00  0.00    +0.023 A 
ATOM     19  C   UNL     1       0.258  -0.701   1.220  0.00  0.00    +0.036 A 
ENDBRANCH   2  19
ENDBRANCH   1   5
BRANCH   1  20
ATOM     20  O   UNL     1      -1.740   0.244   7.503  0.00  0.00    -0.457 OA
BRANCH  20  21
ATOM     21  C   UNL     1      -2.019   0.903   8.639  0.00  0.00    +0.308 C 
ATOM     22  O   UNL     1      -1.121   1.286   9.351  0.00  0.00    -0.251 OA
BRANCH  21  23
ATOM     23  C   UNL     1      -3.451   1.166   9.025  0.00  0.00    +0.128 C 
BRANCH  23  24
ATOM     24  C   UNL     1      -3.491   1.927  10.351  0.00  0.00    +0.085 C 
BRANCH  24  25
ATOM     25  C   UNL     1      -4.924   2.190  10.738  0.00  0.00    +0.124 C 
ATOM     26  N   UNL     1      -5.871   1.755   9.942  0.00  0.00    -0.161 NA
ATOM     27  C   UNL     1      -7.171   1.935  10.199  0.00  0.00    +0.271 C 
ATOM     28  O   UNL     1      -8.027   1.520   9.435  0.00  0.00    -0.268 OA
ATOM     29  C   UNL     1      -7.543   2.661  11.455  0.00  0.00    +0.071 C 
ATOM     30  C   UNL     1      -8.775   2.896  11.941  0.00  0.00    -0.042 C 
ATOM     31  C   UNL     1     -10.051   2.297  11.354  0.00  0.00    +0.033 C 
ATOM     32  C   UNL     1     -10.767   1.570  12.500  0.00  0.00    +0.004 C 
ATOM     33  C   UNL     1     -10.951   2.511  13.689  0.00  0.00    +0.002 C 
ATOM     34  C   UNL     1      -9.596   2.943  14.257  0.00  0.00    +0.019 C 
ATOM     35  C   UNL     1      -8.860   3.762  13.193  0.00  0.00    +0.079 C 
ATOM     36  S   UNL     1      -7.095   3.943  13.652  0.00  0.00    -0.097 S 
ATOM     37  C   UNL     1      -6.384   3.106  12.257  0.00  0.00    +0.111 C 
ATOM     38  N   UNL     1      -5.160   2.843  11.865  0.00  0.00    -0.227 NA
ENDBRANCH  24  25
ENDBRANCH  23  24
ENDBRANCH  21  23
ENDBRANCH  20  21
ENDBRANCH   1  20
TORSDOF 7
