REMARK  Name = ZINC14887875
REMARK  8 active torsions:
REMARK  status: ('A' for Active; 'I' for Inactive)
REMARK    1  A    between atoms: C_1  and  C_2
REMARK    2  A    between atoms: C_2  and  C_3
REMARK    3  A    between atoms: C_3  and  C_4
REMARK    4  A    between atoms: C_4  and  N_5
REMARK    5  A    between atoms: C_16  and  N_64
REMARK    6  A    between atoms: C_20  and  C_21
REMARK    7  A    between atoms: C_20  and  N_64
REMARK    8  A    between atoms: C_21  and  C_27
REMARK                            x       y       z     vdW  Elec       q    Type
REMARK                         _______ _______ _______ _____ _____    ______ ____
ROOT
ATOM      1  N   UNL     1      -0.784   5.026   2.074  0.00  0.00    -0.299 N 
ATOM      2  C   UNL     1       0.490   5.427   2.299  0.00  0.00    +0.203 A 
ATOM      3  N   UNL     1       1.536   4.686   2.008  0.00  0.00    -0.230 NA
ATOM      4  C   UNL     1       1.308   3.491   1.471  0.00  0.00    +0.116 A 
ATOM      5  C   UNL     1       0.018   2.984   1.199  0.00  0.00    +0.076 A 
ATOM      6  C   UNL     1      -1.096   3.825   1.531  0.00  0.00    +0.262 A 
ATOM      7  O   UNL     1      -2.249   3.482   1.336  0.00  0.00    -0.267 OA
ATOM      8  C   UNL     1      -0.038   1.659   0.609  0.00  0.00    -0.023 A 
ATOM      9  C   UNL     1       1.148   1.045   0.382  0.00  0.00    -0.006 A 
ATOM     10  S   UNL     1       2.380   2.195   0.936  0.00  0.00    -0.073 S 
ATOM     11  C   UNL     1       1.367  -0.312  -0.212  0.00  0.00    +0.027 C 
ATOM     12  C   UNL     1       0.060  -0.771  -0.874  0.00  0.00    -0.067 C 
ATOM     13  C   UNL     1      -1.094  -0.534   0.105  0.00  0.00    -0.011 C 
ATOM     14  C   UNL     1      -1.350   0.965   0.253  0.00  0.00    +0.035 C 
ENDROOT
BRANCH  12  15
ATOM     15  N   UNL     1       0.143  -2.209  -1.191  0.00  0.00    +0.382 N 
ATOM     16  H   UNL     1      -0.803  -2.607  -1.212  0.00  0.00    -0.085 HD
ATOM     17  H   UNL     1       0.697  -2.684  -0.469  0.00  0.00    -0.085 HD
BRANCH  15  18
ATOM     18  C   UNL     1       0.784  -2.408  -2.505  0.00  0.00    -0.071 C 
BRANCH  18  19
ATOM     19  C   UNL     1       0.929  -3.908  -2.770  0.00  0.00    -0.015 C 
ATOM     20  C   UNL     1       1.507  -4.126  -4.172  0.00  0.00    +0.038 C 
ATOM     21  C   UNL     1       0.526  -3.575  -5.211  0.00  0.00    +0.160 C 
ATOM     22  O   UNL     1      -0.740  -4.218  -5.057  0.00  0.00    -0.380 OA
ATOM     23  C   UNL     1      -1.350  -4.009  -3.782  0.00  0.00    +0.160 C 
ATOM     24  C   UNL     1      -0.445  -4.578  -2.686  0.00  0.00    +0.038 C 
BRANCH  19  25
ATOM     25  C   UNL     1       1.850  -4.514  -1.744  0.00  0.00    -0.043 A 
ATOM     26  C   UNL     1       2.515  -3.701  -0.845  0.00  0.00    +0.004 A 
ATOM     27  C   UNL     1       3.357  -4.259   0.100  0.00  0.00    +0.000 A 
ATOM     28  C   UNL     1       3.540  -5.628   0.140  0.00  0.00    +0.000 A 
ATOM     29  C   UNL     1       2.879  -6.441  -0.762  0.00  0.00    +0.000 A 
ATOM     30  C   UNL     1       2.035  -5.884  -1.704  0.00  0.00    +0.004 A 
ENDBRANCH  19  25
ENDBRANCH  18  19
ENDBRANCH  15  18
ENDBRANCH  12  15
BRANCH   1  31
ATOM     31  C   UNL     1      -1.876   5.933   2.437  0.00  0.00    +0.126 C 
BRANCH  31  32
ATOM     32  C   UNL     1      -2.209   6.833   1.246  0.00  0.00    +0.021 C 
BRANCH  32  34
ATOM     33  C   UNL     1      -3.681   8.681   0.433  0.00  0.00    +0.004 C 
ATOM     34  C   UNL     1      -3.349   7.781   1.625  0.00  0.00    -0.002 C 
ENDBRANCH  32  34
ENDBRANCH  31  32
ENDBRANCH   1  31
TORSDOF 7
