REMARK  Name = ZINC02632862
REMARK  5 active torsions:
REMARK  status: ('A' for Active; 'I' for Inactive)
REMARK    1  A    between atoms: C_1  and  C_2
REMARK    2  A    between atoms: C_5  and  N_9
REMARK    3  A    between atoms: C_6  and  C_8
REMARK    4  A    between atoms: C_10  and  C_12
REMARK    5  A    between atoms: C_14  and  C_22
REMARK                            x       y       z     vdW  Elec       q    Type
REMARK                         _______ _______ _______ _____ _____    ______ ____
ROOT
ATOM      1  C   UNL     1       0.857   4.112  -1.405  0.00  0.00    +0.143 C 
ATOM      2  C   UNL     1       1.129   3.596   0.015  0.00  0.00    +0.120 C 
ATOM      3  N   UNL     1       0.078   4.071   0.915  0.00  0.00    -0.318 N 
ATOM      4  C   UNL     1      -1.180   4.281   0.504  0.00  0.00    +0.135 C 
ATOM      5  S   UNL     1      -2.357   4.741   1.659  0.00  0.00    -0.019 S 
ATOM      6  N   UNL     1      -1.552   4.143  -0.782  0.00  0.00    -0.300 N 
ATOM      7  C   UNL     1      -0.589   3.798  -1.736  0.00  0.00    +0.016 C 
ATOM      8  C   UNL     1      -0.924   3.224  -2.876  0.00  0.00    +0.029 C 
ATOM      9  H   UNL     1       0.301   4.239   1.844  0.00  0.00    +0.148 HD
ATOM     10  H   UNL     1      -2.475   4.282  -1.043  0.00  0.00    +0.154 HD
ENDROOT
BRANCH   2  11
ATOM     11  C   UNL     1       1.142   2.089   0.008  0.00  0.00    -0.022 A 
ATOM     12  C   UNL     1      -0.050   1.389   0.018  0.00  0.00    +0.009 A 
ATOM     13  C   UNL     1      -0.042   0.007   0.013  0.00  0.00    +0.050 A 
ATOM     14  C   UNL     1       1.162  -0.681  -0.004  0.00  0.00    +0.162 A 
ATOM     15  C   UNL     1       2.360   0.023  -0.017  0.00  0.00    +0.162 A 
ATOM     16  C   UNL     1       2.345   1.410  -0.010  0.00  0.00    +0.055 A 
ATOM     17  O   UNL     1       3.553  -0.632  -0.038  0.00  0.00    -0.485 OA
ATOM     18  C   UNL     1       3.534  -2.014   0.334  0.00  0.00    +0.270 C 
ATOM     19  C   UNL     1       2.368  -2.693  -0.398  0.00  0.00    +0.270 C 
ATOM     20  O   UNL     1       1.154  -2.042  -0.006  0.00  0.00    -0.485 OA
ENDBRANCH   2  11
BRANCH   1  22
ATOM     21  N   UNL     1       0.900   6.268  -2.617  0.00  0.00    -0.285 N 
ATOM     22  C   UNL     1       1.082   5.601  -1.460  0.00  0.00    +0.228 C 
ATOM     23  O   UNL     1       1.428   6.199  -0.463  0.00  0.00    -0.275 OA
ATOM     24  H   UNL     1       0.702   5.780  -3.432  0.00  0.00    +0.155 HD
BRANCH  21  29
ATOM     25  C   UNL     1       1.291  11.926  -2.721  0.00  0.00    +0.044 C 
ATOM     26  C   UNL     1       1.187  10.423  -2.693  0.00  0.00    -0.050 A 
ATOM     27  C   UNL     1       0.866   9.775  -1.515  0.00  0.00    +0.005 A 
ATOM     28  C   UNL     1       0.764   8.398  -1.487  0.00  0.00    +0.024 A 
ATOM     29  C   UNL     1       0.996   7.663  -2.643  0.00  0.00    +0.036 A 
ATOM     30  C   UNL     1       1.319   8.317  -3.825  0.00  0.00    -0.029 A 
ATOM     31  C   UNL     1       1.413   9.695  -3.847  0.00  0.00    +0.008 A 
ATOM     32  C   UNL     1       1.565   7.523  -5.082  0.00  0.00    +0.045 C 
ENDBRANCH  21  29
ENDBRANCH   1  22
TORSDOF 3
