REMARK  Name = ZINC36202281
REMARK  14 active torsions:
REMARK  status: ('A' for Active; 'I' for Inactive)
REMARK    1  A    between atoms: C_1  and  C_2
REMARK    2  A    between atoms: C_6  and  C_7
REMARK    3  A    between atoms: C_7  and  N_8
REMARK    4  A    between atoms: N_8  and  C_9
REMARK    5  A    between atoms: N_8  and  C_33
REMARK    6  A    between atoms: C_9  and  C_10
REMARK    7  A    between atoms: C_13  and  C_15
REMARK    8  A    between atoms: C_15  and  C_16
REMARK    9  A    between atoms: C_15  and  C_24
REMARK   10  A    between atoms: C_15  and  O_32
REMARK   11  A    between atoms: C_19  and  O_22
REMARK   12  A    between atoms: O_22  and  C_23
REMARK   13  A    between atoms: C_27  and  O_30
REMARK   14  A    between atoms: O_30  and  C_31
REMARK                            x       y       z     vdW  Elec       q    Type
REMARK                         _______ _______ _______ _____ _____    ______ ____
ROOT
ATOM      1  C   UNL     1      -5.634   3.201   4.790  0.00  0.00    +0.174 C 
ENDROOT
BRANCH   1   2
ATOM      2  C   UNL     1      -4.572   4.259   4.639  0.00  0.00    -0.004 A 
ATOM      3  C   UNL     1      -4.651   5.426   5.377  0.00  0.00    +0.011 A 
ATOM      4  C   UNL     1      -3.679   6.398   5.240  0.00  0.00    +0.046 A 
ATOM      5  C   UNL     1      -2.622   6.202   4.363  0.00  0.00    +0.120 A 
ATOM      6  C   UNL     1      -2.545   5.030   3.625  0.00  0.00    +0.046 A 
ATOM      7  C   UNL     1      -3.517   4.059   3.768  0.00  0.00    +0.011 A 
BRANCH   5   8
ATOM      8  O   UNL     1      -1.665   7.157   4.227  0.00  0.00    -0.495 OA
ATOM      9  C   UNL     1      -0.606   6.887   3.305  0.00  0.00    +0.277 C 
ENDBRANCH   5   8
ENDBRANCH   1   2
BRANCH   1  10
ATOM     10  C   UNL     1      -6.297   2.962   3.458  0.00  0.00    -0.004 A 
ATOM     11  C   UNL     1      -5.666   2.188   2.501  0.00  0.00    +0.011 A 
ATOM     12  C   UNL     1      -6.271   1.968   1.279  0.00  0.00    +0.046 A 
ATOM     13  C   UNL     1      -7.514   2.523   1.012  0.00  0.00    +0.120 A 
ATOM     14  C   UNL     1      -8.146   3.298   1.974  0.00  0.00    +0.046 A 
ATOM     15  C   UNL     1      -7.539   3.511   3.196  0.00  0.00    +0.011 A 
BRANCH  13  16
ATOM     16  O   UNL     1      -8.112   2.308  -0.189  0.00  0.00    -0.495 OA
ATOM     17  C   UNL     1      -9.391   2.911  -0.394  0.00  0.00    +0.277 C 
ENDBRANCH  13  16
ENDBRANCH   1  10
BRANCH   1  21
ATOM     18  C   UNL     1      -3.529   0.331   5.606  0.00  0.00    +0.089 A 
ATOM     19  C   UNL     1      -4.651  -0.037   6.250  0.00  0.00    +0.043 A 
ATOM     20  C   UNL     1      -5.601   0.987   6.035  0.00  0.00    +0.048 A 
ATOM     21  C   UNL     1      -5.003   1.921   5.274  0.00  0.00    +0.146 A 
ATOM     22  O   UNL     1      -3.746   1.520   5.021  0.00  0.00    -0.463 OA
BRANCH  18  23
ATOM     23  C   UNL     1      -2.244  -0.455   5.555  0.00  0.00    -0.002 C 
BRANCH  23  24
ATOM     24  N   UNL     1      -2.314  -1.437   4.465  0.00  0.00    +0.389 N 
ATOM     25  H   UNL     1      -3.131  -2.017   4.587  0.00  0.00    -0.080 HD
BRANCH  24  26
ATOM     26  C   UNL     1      -1.109  -2.277   4.485  0.00  0.00    -0.068 C 
ATOM     27  C   UNL     1      -1.300  -3.789   4.344  0.00  0.00    -0.017 C 
ATOM     28  C   UNL     1      -0.905  -3.190   5.696  0.00  0.00    -0.017 C 
ENDBRANCH  24  26
BRANCH  24  29
ATOM     29  C   UNL     1      -2.400  -0.735   3.178  0.00  0.00    -0.034 C 
BRANCH  29  35
ATOM     30  C   UNL     1      -5.081  -1.772   2.094  0.00  0.00    +0.044 C 
ATOM     31  C   UNL     1      -3.749  -2.228   1.555  0.00  0.00    -0.042 A 
ATOM     32  C   UNL     1      -3.687  -3.147   0.525  0.00  0.00    +0.011 A 
ATOM     33  C   UNL     1      -2.473  -3.536   0.064  0.00  0.00    +0.045 A 
ATOM     34  S   UNL     1      -1.365  -2.592   1.097  0.00  0.00    -0.103 S 
ATOM     35  C   UNL     1      -2.595  -1.738   2.070  0.00  0.00    -0.024 A 
ENDBRANCH  29  35
ENDBRANCH  24  29
ENDBRANCH  23  24
ENDBRANCH  18  23
ENDBRANCH   1  21
BRANCH   1  36
ATOM     36  O   UNL     1      -6.611   3.638   5.737  0.00  0.00    -0.372 OA
ATOM     37  H   UNL     1      -6.254   3.811   6.618  0.00  0.00    +0.212 HD
ENDBRANCH   1  36
TORSDOF 11
