REMARK  Name = ZINC09428962
REMARK  10 active torsions:
REMARK  status: ('A' for Active; 'I' for Inactive)
REMARK    1  A    between atoms: C_1  and  C_2
REMARK    2  A    between atoms: C_2  and  C_3
REMARK    3  A    between atoms: C_2  and  C_4
REMARK    4  A    between atoms: C_4  and  C_5
REMARK    5  A    between atoms: C_8  and  C_11
REMARK    6  A    between atoms: C_11  and  C_13
REMARK    7  A    between atoms: C_11  and  N_14
REMARK    8  A    between atoms: C_15  and  C_17
REMARK    9  A    between atoms: C_17  and  N_56
REMARK   10  A    between atoms: C_21  and  C_24
REMARK                            x       y       z     vdW  Elec       q    Type
REMARK                         _______ _______ _______ _____ _____    ______ ____
ROOT
ATOM      1  N   UNL     1       2.321   5.100  -0.881  0.00  0.00    -0.310 N 
ATOM      2  C   UNL     1       3.417   5.642  -1.448  0.00  0.00    +0.197 C 
ATOM      3  O   UNL     1       4.511   5.166  -1.230  0.00  0.00    -0.278 OA
ATOM      4  H   UNL     1       1.446   5.480  -1.056  0.00  0.00    +0.149 HD
ENDROOT
BRANCH   1   5
ATOM      5  C   UNL     1       2.451   3.937  -0.001  0.00  0.00    +0.100 C 
ATOM      6  C   UNL     1       2.774   4.406   1.419  0.00  0.00    +0.033 C 
BRANCH   5  10
ATOM      7  C   UNL     1      -1.219   1.751   0.017  0.00  0.00    -0.047 A 
ATOM      8  C   UNL     1      -0.013   1.076   0.008  0.00  0.00    +0.004 A 
ATOM      9  C   UNL     1       1.175   1.783   0.000  0.00  0.00    +0.006 A 
ATOM     10  C   UNL     1       1.156   3.165   0.008  0.00  0.00    -0.027 A 
ATOM     11  C   UNL     1      -0.050   3.840   0.023  0.00  0.00    +0.006 A 
ATOM     12  C   UNL     1      -1.238   3.133   0.030  0.00  0.00    +0.004 A 
BRANCH   7  13
ATOM     13  C   UNL     1      -2.514   0.980   0.019  0.00  0.00    +0.038 C 
BRANCH  13  15
ATOM     14  C   UNL     1      -4.319   0.038   1.467  0.00  0.00    +0.007 C 
ATOM     15  C   UNL     1      -2.945   0.711   1.462  0.00  0.00    -0.013 C 
ATOM     16  C   UNL     1      -1.925  -0.209   2.137  0.00  0.00    +0.007 C 
ENDBRANCH  13  15
ENDBRANCH   7  13
ENDBRANCH   5  10
ENDBRANCH   1   5
BRANCH   2  17
ATOM     17  C   UNL     1       3.283   6.839  -2.354  0.00  0.00    +0.019 C 
BRANCH  17  23
ATOM     18  C   UNL     1       5.183   6.200  -3.712  0.00  0.00    -0.078 C 
ATOM     19  C   UNL     1       6.496   6.707  -4.314  0.00  0.00    -0.018 C 
ATOM     20  C   UNL     1       7.472   7.048  -3.185  0.00  0.00    +0.009 C 
ATOM     21  C   UNL     1       6.832   8.092  -2.266  0.00  0.00    +0.058 C 
ATOM     22  C   UNL     1       5.510   7.545  -1.722  0.00  0.00    -0.065 C 
ATOM     23  N   UNL     1       4.607   7.260  -2.857  0.00  0.00    +0.386 N 
ATOM     24  H   UNL     1       4.494   8.114  -3.416  0.00  0.00    -0.081 HD
BRANCH  21  25
ATOM     25  C   UNL     1       7.763   8.390  -1.118  0.00  0.00    +0.212 C 
ATOM     26  O   UNL     1       7.403   8.188   0.022  0.00  0.00    -0.276 OA
ATOM     27  N   UNL     1       8.995   8.880  -1.360  0.00  0.00    -0.329 N 
ATOM     28  H   UNL     1       9.283   9.041  -2.272  0.00  0.00    +0.145 HD
ATOM     29  H   UNL     1       9.594   9.072  -0.621  0.00  0.00    +0.145 HD
ENDBRANCH  21  25
ENDBRANCH  17  23
ENDBRANCH   2  17
TORSDOF 7
