REMARK  Name = ZINC35937945
REMARK  4 active torsions:
REMARK  status: ('A' for Active; 'I' for Inactive)
REMARK    1  A    between atoms: C_1  and  O_2
REMARK    2  A    between atoms: O_2  and  C_3
REMARK    3  A    between atoms: C_8  and  C_9
REMARK    4  A    between atoms: C_9  and  N_10
REMARK                            x       y       z     vdW  Elec       q    Type
REMARK                         _______ _______ _______ _____ _____    ______ ____
ROOT
ATOM      1  N   UNL     1      -1.402  -2.913  -0.233  0.00  0.00    +0.383 N 
ATOM      2  C   UNL     1      -1.993  -1.577  -0.087  0.00  0.00    -0.075 C 
ATOM      3  C   UNL     1      -3.494  -1.645  -0.376  0.00  0.00    +0.027 C 
ATOM      4  C   UNL     1      -4.156  -2.609   0.615  0.00  0.00    +0.095 C 
ATOM      5  C   UNL     1      -3.480  -3.979   0.507  0.00  0.00    +0.027 C 
ATOM      6  C   UNL     1      -1.980  -3.824   0.762  0.00  0.00    -0.075 C 
ATOM      7  N   UNL     1      -5.578  -2.744   0.280  0.00  0.00    -0.323 N 
ATOM      8  C   UNL     1      -6.450  -1.720   0.634  0.00  0.00    +0.042 A 
ATOM      9  C   UNL     1      -7.598  -1.456  -0.093  0.00  0.00    +0.024 A 
ATOM     10  C   UNL     1      -8.442  -0.437   0.308  0.00  0.00    +0.003 A 
ATOM     11  C   UNL     1      -8.150   0.320   1.431  0.00  0.00    +0.021 A 
ATOM     12  C   UNL     1      -7.006   0.073   2.164  0.00  0.00    +0.055 A 
ATOM     13  C   UNL     1      -6.142  -0.947   1.767  0.00  0.00    +0.076 A 
ATOM     14  C   UNL     1      -4.897  -1.233   2.500  0.00  0.00    +0.249 C 
ATOM     15  O   UNL     1      -4.678  -0.698   3.570  0.00  0.00    -0.270 OA
ATOM     16  N   UNL     1      -4.002  -2.093   1.975  0.00  0.00    -0.291 N 
ATOM     17 CL   UNL     1      -6.647   1.026   3.571  0.00  0.00    -0.083 Cl
ATOM     18  H   UNL     1      -5.904  -3.533  -0.181  0.00  0.00    +0.148 HD
ATOM     19  H   UNL     1      -3.242  -2.375   2.508  0.00  0.00    +0.151 HD
ATOM     20  H   UNL     1      -1.593  -3.263  -1.160  0.00  0.00    -0.081 HD
ENDROOT
BRANCH   1  21
ATOM     21  C   UNL     1       0.051  -2.828  -0.033  0.00  0.00    -0.039 C 
BRANCH  21  27
ATOM     22  C   UNL     1       0.606  -0.607  -1.056  0.00  0.00    +0.121 A 
ATOM     23  C   UNL     1       1.173   0.161  -2.063  0.00  0.00    +0.046 A 
ATOM     24  C   UNL     1       1.786  -0.455  -3.136  0.00  0.00    +0.004 A 
ATOM     25  C   UNL     1       1.836  -1.835  -3.208  0.00  0.00    +0.000 A 
ATOM     26  C   UNL     1       1.271  -2.602  -2.207  0.00  0.00    +0.005 A 
ATOM     27  C   UNL     1       0.661  -1.991  -1.128  0.00  0.00    -0.022 A 
BRANCH  22  29
ATOM     28  C   UNL     1      -0.017   1.425   0.010  0.00  0.00    +0.277 C 
ATOM     29  O   UNL     1       0.002  -0.004   0.002  0.00  0.00    -0.495 OA
ENDBRANCH  22  29
ENDBRANCH  21  27
ENDBRANCH   1  21
TORSDOF 3
