REMARK  Name = ZINC11832801
REMARK  10 active torsions:
REMARK  status: ('A' for Active; 'I' for Inactive)
REMARK    1  A    between atoms: C_1  and  C_2
REMARK    2  A    between atoms: C_2  and  C_3
REMARK    3  A    between atoms: C_2  and  C_4
REMARK    4  A    between atoms: C_7  and  O_10
REMARK    5  A    between atoms: O_10  and  C_11
REMARK    6  A    between atoms: C_11  and  C_12
REMARK    7  A    between atoms: C_12  and  O_13
REMARK    8  A    between atoms: O_13  and  C_14
REMARK    9  A    between atoms: C_19  and  C_20
REMARK   10  A    between atoms: C_20  and  N_22
REMARK                            x       y       z     vdW  Elec       q    Type
REMARK                         _______ _______ _______ _____ _____    ______ ____
ROOT
ATOM      1  O   UNL     1       0.406   3.917   1.240  0.00  0.00    -0.488 OA
ENDROOT
BRANCH   1   2
ATOM      2  C   UNL     1       0.139   5.237   1.411  0.00  0.00    +0.130 A 
ATOM      3  C   UNL     1       0.466   6.147   0.418  0.00  0.00    +0.047 A 
ATOM      4  C   UNL     1       0.194   7.490   0.593  0.00  0.00    +0.019 A 
ATOM      5  C   UNL     1      -0.407   7.938   1.759  0.00  0.00    +0.019 A 
ATOM      6  C   UNL     1      -0.739   7.046   2.757  0.00  0.00    +0.029 A 
ATOM      7  C   UNL     1      -0.474   5.684   2.590  0.00  0.00    +0.046 A 
ATOM      8 BR   UNL     1      -0.773   9.779   1.982  0.00  0.00    -0.050 Br
BRANCH   7   9
ATOM      9  C   UNL     1      -0.832   4.724   3.649  0.00  0.00    +0.080 C 
ATOM     10  S   UNL     1      -0.499   3.058   3.442  0.00  0.00    -0.035 S 
BRANCH   9  11
ATOM     11  N   UNL     1      -1.421   5.158   4.781  0.00  0.00    -0.352 N 
ATOM     12  H   UNL     1      -1.609   6.103   4.898  0.00  0.00    +0.143 HD
ATOM     13  H   UNL     1      -1.657   4.527   5.478  0.00  0.00    +0.143 HD
ENDBRANCH   9  11
ENDBRANCH   7   9
ENDBRANCH   1   2
BRANCH   1  14
ATOM     14  C   UNL     1       1.027   3.535   0.011  0.00  0.00    +0.270 C 
BRANCH  14  15
ATOM     15  C   UNL     1       1.248   2.021   0.001  0.00  0.00    +0.270 C 
BRANCH  15  16
ATOM     16  O   UNL     1      -0.016   1.355   0.009  0.00  0.00    -0.489 OA
BRANCH  16  20
ATOM     17  C   UNL     1       0.040  -2.770  -0.013  0.00  0.00    -0.045 A 
ATOM     18  C   UNL     1      -1.168  -2.096   0.002  0.00  0.00    +0.007 A 
ATOM     19  C   UNL     1      -1.189  -0.715   0.010  0.00  0.00    +0.046 A 
ATOM     20  C   UNL     1       0.002  -0.004   0.002  0.00  0.00    +0.121 A 
ATOM     21  C   UNL     1       1.212  -0.682  -0.019  0.00  0.00    +0.046 A 
ATOM     22  C   UNL     1       1.228  -2.064  -0.020  0.00  0.00    +0.007 A 
BRANCH  17  24
ATOM     23  C   UNL     1       0.776  -4.771  -1.280  0.00  0.00    +0.012 C 
ATOM     24  C   UNL     1       0.060  -4.277  -0.021  0.00  0.00    +0.013 C 
ATOM     25  C   UNL     1       0.800  -4.784   1.218  0.00  0.00    +0.012 C 
ENDBRANCH  17  24
ENDBRANCH  16  20
ENDBRANCH  15  16
ENDBRANCH  14  15
ENDBRANCH   1  14
TORSDOF 8
