REMARK  Name = ZINC25525150
REMARK  7 active torsions:
REMARK  status: ('A' for Active; 'I' for Inactive)
REMARK    1  A    between atoms: C_1  and  C_2
REMARK    2  A    between atoms: C_2  and  C_4
REMARK    3  A    between atoms: C_2  and  N_20
REMARK    4  A    between atoms: N_6  and  C_7
REMARK    5  A    between atoms: C_7  and  C_8
REMARK    6  A    between atoms: C_8  and  N_14
REMARK    7  A    between atoms: C_23  and  C_26
REMARK                            x       y       z     vdW  Elec       q    Type
REMARK                         _______ _______ _______ _____ _____    ______ ____
ROOT
ATOM      1  C   UNL     1       0.854   4.950   1.343  0.00  0.00    +0.199 C 
ATOM      2  O   UNL     1      -0.023   5.654   1.797  0.00  0.00    -0.278 OA
ATOM      3  N   UNL     1       0.564   3.706   0.913  0.00  0.00    -0.315 N 
ATOM      4  H   UNL     1       1.359   3.067   0.500  0.00  0.00    +0.149 HD
ENDROOT
BRANCH   1   6
ATOM      5  C   UNL     1       3.033   5.062   2.520  0.00  0.00    -0.004 C 
ATOM      6  C   UNL     1       2.267   5.466   1.259  0.00  0.00    +0.016 C 
BRANCH   6   7
ATOM      7  N   UNL     1       2.248   6.931   1.146  0.00  0.00    +0.387 N 
ATOM      8  C   UNL     1       3.606   7.483   1.233  0.00  0.00    -0.077 C 
ATOM      9  C   UNL     1       3.535   9.011   1.259  0.00  0.00    -0.006 C 
ATOM     10  C   UNL     1       2.843   9.507  -0.014  0.00  0.00    +0.071 C 
ATOM     11  C   UNL     1       1.449   8.879  -0.105  0.00  0.00    -0.006 C 
ATOM     12  C   UNL     1       1.580   7.354  -0.091  0.00  0.00    -0.077 C 
ATOM     13  H   UNL     1       1.669   7.329   1.993  0.00  0.00    -0.081 HD
BRANCH  10  14
ATOM     14  C   UNL     1       2.717  11.008   0.031  0.00  0.00    +0.213 C 
ATOM     15  O   UNL     1       1.621  11.526  -0.005  0.00  0.00    -0.276 OA
ATOM     16  N   UNL     1       3.822  11.775   0.113  0.00  0.00    -0.329 N 
ATOM     17  H   UNL     1       3.731  12.870   0.146  0.00  0.00    +0.145 HD
ATOM     18  H   UNL     1       4.816  11.305   0.146  0.00  0.00    +0.145 HD
ENDBRANCH  10  14
ENDBRANCH   6   7
ENDBRANCH   1   6
BRANCH   3  19
ATOM     19  C   UNL     1      -0.810   3.204   0.994  0.00  0.00    +0.126 C 
BRANCH  19  20
ATOM     20  C   UNL     1      -0.866   1.778   0.445  0.00  0.00    +0.038 C 
ATOM     21  C   UNL     1      -0.408   1.775  -1.015  0.00  0.00    +0.024 C 
ATOM     22  C   UNL     1      -1.329   2.676  -1.840  0.00  0.00    +0.002 C 
ATOM     23  C   UNL     1      -2.764   2.152  -1.755  0.00  0.00    +0.000 C 
ATOM     24  C   UNL     1      -3.222   2.154  -0.295  0.00  0.00    +0.002 C 
ATOM     25  C   UNL     1      -2.301   1.254   0.530  0.00  0.00    +0.024 C 
BRANCH  20  26
ATOM     26  N   UNL     1       0.019   0.913   1.237  0.00  0.00    -0.291 NA
ATOM     27  C   UNL     1       0.058  -0.449   0.684  0.00  0.00    +0.113 C 
ATOM     28  C   UNL     1       1.034  -1.298   1.502  0.00  0.00    +0.175 C 
ATOM     29  O   UNL     1       0.637  -1.282   2.876  0.00  0.00    -0.377 OA
ATOM     30  C   UNL     1       0.589   0.028   3.446  0.00  0.00    +0.175 C 
ATOM     31  C   UNL     1      -0.392   0.891   2.648  0.00  0.00    +0.113 C 
ENDBRANCH  20  26
ENDBRANCH  19  20
ENDBRANCH   3  19
TORSDOF 6
