REMARK  Name = ZINC15288430
REMARK  6 active torsions:
REMARK  status: ('A' for Active; 'I' for Inactive)
REMARK    1  A    between atoms: C_3  and  N_10
REMARK    2  A    between atoms: C_6  and  C_7
REMARK    3  A    between atoms: C_7  and  C_8
REMARK    4  A    between atoms: C_11  and  C_13
REMARK    5  A    between atoms: C_13  and  N_14
REMARK    6  A    between atoms: N_14  and  C_15
REMARK                            x       y       z     vdW  Elec       q    Type
REMARK                         _______ _______ _______ _____ _____    ______ ____
ROOT
ATOM      1  N   UNL     1      -2.668   2.915   4.676  0.00  0.00    -0.284 N 
ATOM      2  C   UNL     1      -2.256   4.043   5.287  0.00  0.00    +0.234 C 
ATOM      3  O   UNL     1      -1.377   4.716   4.790  0.00  0.00    -0.274 OA
ATOM      4  H   UNL     1      -3.421   2.419   5.031  0.00  0.00    +0.155 HD
ENDROOT
BRANCH   1   7
ATOM      5  C   UNL     1      -2.068   1.362   1.397  0.00  0.00    +0.006 A 
ATOM      6  C   UNL     1      -2.720   1.806   2.531  0.00  0.00    +0.023 A 
ATOM      7  C   UNL     1      -2.009   2.461   3.528  0.00  0.00    +0.033 A 
ATOM      8  C   UNL     1      -0.643   2.663   3.384  0.00  0.00    +0.023 A 
ATOM      9  C   UNL     1       0.004   2.213   2.250  0.00  0.00    +0.006 A 
ATOM     10  C   UNL     1      -0.706   1.561   1.259  0.00  0.00    -0.034 A 
BRANCH  10  11
ATOM     11  C   UNL     1       0.004   1.071   0.023  0.00  0.00    +0.153 C 
BRANCH  11  12
ATOM     12  C   UNL     1       0.481  -0.304   0.244  0.00  0.00    +0.067 C 
ATOM     13  N   UNL     1       0.850  -1.365   0.415  0.00  0.00    -0.196 NA
ENDBRANCH  11  12
ENDBRANCH  10  11
ENDBRANCH   1   7
BRANCH   2  14
ATOM     14  C   UNL     1      -2.887   4.469   6.588  0.00  0.00    +0.198 C 
BRANCH  14  15
ATOM     15  N   UNL     1      -2.270   5.717   7.044  0.00  0.00    -0.335 N 
ATOM     16  H   UNL     1      -1.567   6.131   6.519  0.00  0.00    +0.147 HD
BRANCH  15  17
ATOM     17  C   UNL     1      -2.693   6.310   8.236  0.00  0.00    +0.028 A 
ATOM     18  C   UNL     1      -3.703   5.721   8.987  0.00  0.00    +0.024 A 
ATOM     19  C   UNL     1      -4.116   6.308  10.167  0.00  0.00    +0.017 A 
ATOM     20  C   UNL     1      -3.532   7.486  10.597  0.00  0.00    +0.018 A 
ATOM     21  C   UNL     1      -2.529   8.078   9.849  0.00  0.00    +0.017 A 
ATOM     22  C   UNL     1      -2.109   7.493   8.671  0.00  0.00    +0.024 A 
ATOM     23 BR   UNL     1      -4.105   8.289  12.210  0.00  0.00    -0.050 Br
ENDBRANCH  15  17
ENDBRANCH  14  15
ENDBRANCH   2  14
TORSDOF 6
