REMARK  Name = ZINC05028075
REMARK  5 active torsions:
REMARK  status: ('A' for Active; 'I' for Inactive)
REMARK    1  A    between atoms: C_4  and  N_7
REMARK    2  A    between atoms: C_11  and  C_12
REMARK    3  A    between atoms: C_13  and  C_14
REMARK    4  A    between atoms: C_13  and  C_16
REMARK    5  A    between atoms: C_20  and  N_22
REMARK                            x       y       z     vdW  Elec       q    Type
REMARK                         _______ _______ _______ _____ _____    ______ ____
ROOT
ATOM      1  C   UNL     1       1.896  -1.797  -0.145  0.00  0.00    +0.045 C 
ATOM      2  C   UNL     1       3.303  -2.065   0.157  0.00  0.00    +0.061 C 
ENDROOT
BRANCH   2   3
ATOM      3  C   UNL     1       4.203  -0.989   0.359  0.00  0.00    -0.005 A 
ATOM      4  C   UNL     1       4.085  -0.169   1.500  0.00  0.00    +0.009 A 
ATOM      5  C   UNL     1       4.958   0.865   1.684  0.00  0.00    +0.003 A 
ATOM      6  C   UNL     1       5.958   1.111   0.753  0.00  0.00    +0.033 A 
ATOM      7  C   UNL     1       6.084   0.310  -0.374  0.00  0.00    +0.127 A 
ATOM      8  C   UNL     1       5.226  -0.733  -0.577  0.00  0.00    +0.042 A 
BRANCH   7   9
ATOM      9  N   UNL     1       7.156   0.585  -1.358  0.00  0.00    +0.056 N 
ATOM     10  O   UNL     1       8.049   1.521  -1.114  0.00  0.00    -0.126 OA
ATOM     11  O   UNL     1       7.216  -0.107  -2.477  0.00  0.00    -0.126 OA
ENDBRANCH   7   9
ENDBRANCH   2   3
BRANCH   1  16
ATOM     12  N   UNL     1       0.167  -0.075  -0.557  0.00  0.00    -0.316 N 
ATOM     13  C   UNL     1       0.175   1.254  -0.762  0.00  0.00    +0.092 A 
ATOM     14  C   UNL     1       1.484   1.738  -0.727  0.00  0.00    +0.020 A 
ATOM     15  C   UNL     1       2.326   0.692  -0.495  0.00  0.00    +0.027 A 
ATOM     16  C   UNL     1       1.476  -0.505  -0.380  0.00  0.00    +0.048 A 
BRANCH  12  20
ATOM     17  C   UNL     1      -3.223  -2.497  -0.467  0.00  0.00    +0.000 A 
ATOM     18  C   UNL     1      -3.130  -1.408   0.381  0.00  0.00    +0.002 A 
ATOM     19  C   UNL     1      -2.008  -0.604   0.353  0.00  0.00    +0.026 A 
ATOM     20  C   UNL     1      -0.972  -0.889  -0.526  0.00  0.00    +0.047 A 
ATOM     21  C   UNL     1      -1.071  -1.980  -1.380  0.00  0.00    +0.026 A 
ATOM     22  C   UNL     1      -2.193  -2.784  -1.344  0.00  0.00    +0.002 A 
ENDBRANCH  12  20
ENDBRANCH   1  16
BRANCH   2  23
ATOM     23  C   UNL     1       3.771  -3.416   0.249  0.00  0.00    +0.100 C 
ATOM     24  N   UNL     1       4.142  -4.487   0.322  0.00  0.00    -0.191 NA
ENDBRANCH   2  23
TORSDOF 5
