REMARK  Name = ZINC00752531
REMARK  9 active torsions:
REMARK  status: ('A' for Active; 'I' for Inactive)
REMARK    1  A    between atoms: C_1  and  C_2
REMARK    2  A    between atoms: C_2  and  C_3
REMARK    3  A    between atoms: C_4  and  C_19
REMARK    4  A    between atoms: C_5  and  C_13
REMARK    5  A    between atoms: C_7  and  C_11
REMARK    6  A    between atoms: C_8  and  N_10
REMARK    7  A    between atoms: C_19  and  O_21
REMARK    8  A    between atoms: O_21  and  C_22
REMARK    9  A    between atoms: C_22  and  C_23
REMARK                            x       y       z     vdW  Elec       q    Type
REMARK                         _______ _______ _______ _____ _____    ______ ____
ROOT
ATOM      1  C   UNL     1       5.493   0.535  -1.165  0.00  0.00    +0.118 C 
ATOM      2  C   UNL     1       4.360   1.238  -1.286  0.00  0.00    +0.087 C 
ATOM      3  C   UNL     1       3.483   1.509  -0.095  0.00  0.00    +0.111 C 
ATOM      4  C   UNL     1       4.253   1.254   1.173  0.00  0.00    +0.099 C 
ATOM      5  C   UNL     1       5.405   0.543   1.152  0.00  0.00    +0.198 C 
ATOM      6  O   UNL     1       5.905   0.038   0.011  0.00  0.00    -0.445 OA
ENDROOT
BRANCH   3   7
ATOM      7  C   UNL     1       2.280   0.603  -0.141  0.00  0.00    +0.004 A 
ATOM      8  C   UNL     1       0.966   0.931  -0.198  0.00  0.00    +0.027 A 
ATOM      9  C   UNL     1       0.023  -0.080  -0.233  0.00  0.00    +0.025 A 
ATOM     10  C   UNL     1       0.442  -1.369  -0.210  0.00  0.00    +0.060 A 
ATOM     11  S   UNL     1       2.215  -1.181  -0.136  0.00  0.00    -0.100 S 
ATOM     12 BR   UNL     1      -1.821   0.329  -0.321  0.00  0.00    -0.050 Br
ENDBRANCH   3   7
BRANCH   5  13
ATOM     13  N   UNL     1       6.081   0.332   2.328  0.00  0.00    -0.328 N 
ATOM     14  H   UNL     1       6.908  -0.176   2.328  0.00  0.00    +0.145 HD
ATOM     15  H   UNL     1       5.732   0.690   3.159  0.00  0.00    +0.145 HD
ENDBRANCH   5  13
BRANCH   1  17
ATOM     16  C   UNL     1       5.775  -0.901  -3.167  0.00  0.00    +0.012 C 
ATOM     17  C   UNL     1       6.335   0.293  -2.392  0.00  0.00    +0.071 C 
ENDBRANCH   1  17
BRANCH   4  18
ATOM     18  C   UNL     1       3.761   1.770   2.416  0.00  0.00    +0.101 C 
ATOM     19  N   UNL     1       3.371   2.178   3.401  0.00  0.00    -0.191 NA
ENDBRANCH   4  18
BRANCH   2  20
ATOM     20  C   UNL     1       3.981   1.733  -2.558  0.00  0.00    +0.339 C 
ATOM     21  O   UNL     1       4.610   1.411  -3.548  0.00  0.00    -0.245 OA
BRANCH  20  22
ATOM     22  O   UNL     1       2.922   2.562  -2.671  0.00  0.00    -0.462 OA
BRANCH  22  23
ATOM     23  C   UNL     1       2.596   3.023  -3.983  0.00  0.00    +0.229 C 
ATOM     24  C   UNL     1       1.377   3.945  -3.912  0.00  0.00    +0.048 C 
ENDBRANCH  22  23
ENDBRANCH  20  22
ENDBRANCH   2  20
TORSDOF 7
