REMARK  Name = ZINC33530800
REMARK  8 active torsions:
REMARK  status: ('A' for Active; 'I' for Inactive)
REMARK    1  A    between atoms: C_1  and  O_2
REMARK    2  A    between atoms: O_2  and  C_3
REMARK    3  A    between atoms: C_6  and  N_9
REMARK    4  A    between atoms: C_10  and  C_12
REMARK    5  A    between atoms: N_17  and  C_28
REMARK    6  A    between atoms: N_19  and  C_20
REMARK    7  A    between atoms: C_28  and  C_29
REMARK    8  A    between atoms: C_29  and  C_30
REMARK                            x       y       z     vdW  Elec       q    Type
REMARK                         _______ _______ _______ _____ _____    ______ ____
ROOT
ATOM      1  C   UNL     1       3.363  -4.458  -5.442  0.00  0.00    +0.149 C 
ATOM      2  C   UNL     1       3.998  -5.755  -4.937  0.00  0.00    +0.120 C 
ATOM      3  C   UNL     1       4.594  -6.563  -6.038  0.00  0.00    +0.223 C 
ATOM      4  O   UNL     1       5.523  -7.276  -5.723  0.00  0.00    -0.275 OA
ATOM      5  N   UNL     1       4.244  -6.606  -7.315  0.00  0.00    -0.250 N 
ATOM      6  C   UNL     1       3.308  -5.768  -7.894  0.00  0.00    +0.164 C 
ATOM      7  N   UNL     1       3.224  -5.635  -9.196  0.00  0.00    -0.226 NA
ATOM      8  S   UNL     1       2.228  -4.880  -6.804  0.00  0.00    -0.077 S 
ENDROOT
BRANCH   7   9
ATOM      9  C   UNL     1       2.286  -4.796  -9.740  0.00  0.00    +0.067 A 
ATOM     10  C   UNL     1       0.975  -4.807  -9.261  0.00  0.00    +0.030 A 
ATOM     11  C   UNL     1       0.035  -3.961  -9.812  0.00  0.00    +0.040 A 
ATOM     12  C   UNL     1       0.390  -3.102 -10.839  0.00  0.00    +0.124 A 
ATOM     13  C   UNL     1       1.690  -3.087 -11.319  0.00  0.00    +0.040 A 
ATOM     14  C   UNL     1       2.639  -3.925 -10.772  0.00  0.00    +0.030 A 
ATOM     15  F   UNL     1      -0.535  -2.276 -11.375  0.00  0.00    -0.205 F 
ENDBRANCH   7   9
BRANCH   1  17
ATOM     16  N   UNL     1       2.458  -2.458  -4.302  0.00  0.00    -0.285 N 
ATOM     17  C   UNL     1       2.596  -3.798  -4.325  0.00  0.00    +0.231 C 
ATOM     18  O   UNL     1       2.102  -4.474  -3.447  0.00  0.00    -0.274 OA
ATOM     19  H   UNL     1       2.786  -1.924  -5.042  0.00  0.00    +0.155 HD
BRANCH  16  23
ATOM     20  C   UNL     1       0.623  -0.606  -1.048  0.00  0.00    +0.120 A 
ATOM     21  C   UNL     1       1.376  -1.755  -0.857  0.00  0.00    +0.047 A 
ATOM     22  C   UNL     1       1.984  -2.369  -1.935  0.00  0.00    +0.027 A 
ATOM     23  C   UNL     1       1.841  -1.835  -3.208  0.00  0.00    +0.034 A 
ATOM     24  C   UNL     1       1.087  -0.685  -3.398  0.00  0.00    +0.027 A 
ATOM     25  C   UNL     1       0.475  -0.075  -2.321  0.00  0.00    +0.047 A 
BRANCH  20  27
ATOM     26  C   UNL     1       0.219  -0.601   1.296  0.00  0.00    +0.277 C 
ATOM     27  O   UNL     1       0.025  -0.001   0.013  0.00  0.00    -0.495 OA
ENDBRANCH  20  27
ENDBRANCH  16  23
ENDBRANCH   1  17
BRANCH   5  28
ATOM     28  C   UNL     1       4.890  -7.606  -8.169  0.00  0.00    +0.120 C 
BRANCH  28  29
ATOM     29  C   UNL     1       4.073  -8.899  -8.149  0.00  0.00    +0.054 C 
BRANCH  29  30
ATOM     30  C   UNL     1       4.737  -9.927  -9.027  0.00  0.00    -0.046 A 
ATOM     31  C   UNL     1       4.409 -10.007 -10.368  0.00  0.00    +0.005 A 
ATOM     32  C   UNL     1       5.018 -10.950 -11.174  0.00  0.00    +0.020 A 
ATOM     33  C   UNL     1       5.956 -11.814 -10.639  0.00  0.00    +0.041 A 
ATOM     34  C   UNL     1       6.285 -11.734  -9.298  0.00  0.00    +0.020 A 
ATOM     35  C   UNL     1       5.679 -10.787  -8.494  0.00  0.00    +0.005 A 
ATOM     36 CL   UNL     1       6.721 -12.999 -11.652  0.00  0.00    -0.084 Cl
ENDBRANCH  29  30
ENDBRANCH  28  29
ENDBRANCH   5  28
TORSDOF 7
