REMARK  Name = ZINC39557517
REMARK  7 active torsions:
REMARK  status: ('A' for Active; 'I' for Inactive)
REMARK    1  A    between atoms: C_1  and  C_2
REMARK    2  A    between atoms: C_2  and  O_3
REMARK    3  A    between atoms: O_3  and  C_4
REMARK    4  A    between atoms: C_6  and  C_11
REMARK    5  A    between atoms: C_9  and  O_10
REMARK    6  A    between atoms: N_12  and  N_13
REMARK    7  A    between atoms: N_13  and  C_14
REMARK                            x       y       z     vdW  Elec       q    Type
REMARK                         _______ _______ _______ _____ _____    ______ ____
ROOT
ATOM      1  N   UNL     1      -0.640  -7.105  -1.321  0.00  0.00    -0.236 N 
ATOM      2  H   UNL     1      -1.167  -6.741  -2.049  0.00  0.00    +0.174 HD
ENDROOT
BRANCH   1   3
ATOM      3  C   UNL     1      -0.527  -8.469  -1.168  0.00  0.00    +0.067 A 
ATOM      4  C   UNL     1      -0.473  -9.057   0.112  0.00  0.00    +0.024 A 
ATOM      5  C   UNL     1      -0.535  -8.267   1.272  0.00  0.00    +0.012 A 
ATOM      6  C   UNL     1      -0.481  -8.860   2.496  0.00  0.00    +0.001 A 
ATOM      7  C   UNL     1      -0.367 -10.245   2.614  0.00  0.00    +0.002 A 
ATOM      8  C   UNL     1      -0.304 -11.042   1.514  0.00  0.00    +0.028 A 
ATOM      9  C   UNL     1      -0.357 -10.467   0.228  0.00  0.00    +0.073 A 
ATOM     10  N   UNL     1      -0.298 -11.236  -0.858  0.00  0.00    -0.247 NA
ATOM     11  C   UNL     1      -0.345 -10.725  -2.087  0.00  0.00    +0.073 A 
ATOM     12  C   UNL     1      -0.467  -9.325  -2.287  0.00  0.00    +0.024 A 
ATOM     13  C   UNL     1      -0.520  -8.811  -3.593  0.00  0.00    +0.012 A 
ATOM     14  C   UNL     1      -0.459  -9.660  -4.654  0.00  0.00    +0.001 A 
ATOM     15  C   UNL     1      -0.345 -11.037  -4.463  0.00  0.00    +0.002 A 
ATOM     16  C   UNL     1      -0.280 -11.570  -3.214  0.00  0.00    +0.028 A 
ENDBRANCH   1   3
BRANCH   1  18
ATOM     17  C   UNL     1      -0.101  -4.958  -0.568  0.00  0.00    +0.138 C 
ATOM     18  N   UNL     1       0.006  -6.244  -0.424  0.00  0.00    -0.190 NA
BRANCH  17  21
ATOM     19  C   UNL     1       1.103  -1.822   1.110  0.00  0.00    +0.162 A 
ATOM     20  C   UNL     1       0.465  -2.667   0.222  0.00  0.00    +0.059 A 
ATOM     21  C   UNL     1       0.578  -4.052   0.375  0.00  0.00    -0.002 A 
ATOM     22  C   UNL     1       1.337  -4.575   1.426  0.00  0.00    +0.013 A 
ATOM     23  C   UNL     1       1.971  -3.725   2.308  0.00  0.00    +0.050 A 
ATOM     24  C   UNL     1       1.863  -2.351   2.151  0.00  0.00    +0.158 A 
BRANCH  24  25
ATOM     25  O   UNL     1       2.495  -1.518   3.020  0.00  0.00    -0.503 OA
ATOM     26  H   UNL     1       1.964  -1.277   3.792  0.00  0.00    +0.292 HD
ENDBRANCH  24  25
BRANCH  19  27
ATOM     27  O   UNL     1       0.995  -0.474   0.964  0.00  0.00    -0.489 OA
BRANCH  27  29
ATOM     28  C   UNL     1       0.196   1.528  -0.129  0.00  0.00    +0.048 C 
ATOM     29  C   UNL     1       0.200  -0.002  -0.126  0.00  0.00    +0.226 C 
ENDBRANCH  27  29
ENDBRANCH  19  27
ENDBRANCH  17  21
ENDBRANCH   1  18
TORSDOF 6
