REMARK  Name = ZINC04469027
REMARK  3 active torsions:
REMARK  status: ('A' for Active; 'I' for Inactive)
REMARK    1  A    between atoms: N_13  and  C_17
REMARK    2  A    between atoms: C_17  and  C_18
REMARK    3  A    between atoms: C_23  and  C_24
REMARK                            x       y       z     vdW  Elec       q    Type
REMARK                         _______ _______ _______ _____ _____    ______ ____
ROOT
ATOM      1  C   UNL     1       0.191  -1.024   6.721  0.00  0.00    +0.000 A 
ATOM      2  C   UNL     1       1.051  -0.670   5.697  0.00  0.00    +0.000 A 
ATOM      3  C   UNL     1       1.244  -1.530   4.636  0.00  0.00    +0.006 A 
ATOM      4  C   UNL     1       0.582  -2.751   4.587  0.00  0.00    -0.012 A 
ATOM      5  C   UNL     1      -0.272  -3.104   5.609  0.00  0.00    -0.042 A 
ATOM      6  C   UNL     1      -0.466  -2.236   6.675  0.00  0.00    +0.004 A 
ATOM      7  C   UNL     1      -1.010  -4.417   5.627  0.00  0.00    +0.035 C 
ATOM      8  C   UNL     1      -1.052  -5.030   4.229  0.00  0.00    +0.008 C 
ATOM      9  C   UNL     1       0.377  -5.070   3.674  0.00  0.00    +0.040 C 
ATOM     10  C   UNL     1       0.831  -3.641   3.403  0.00  0.00    +0.138 C 
ATOM     11  C   UNL     1       0.132  -3.091   2.180  0.00  0.00    +0.251 C 
ATOM     12  O   UNL     1      -1.060  -2.929   2.027  0.00  0.00    -0.272 OA
ATOM     13  N   UNL     1       1.113  -2.820   1.294  0.00  0.00    -0.220 N 
ATOM     14  C   UNL     1       2.320  -3.127   1.786  0.00  0.00    +0.310 C 
ATOM     15  O   UNL     1       3.358  -2.976   1.172  0.00  0.00    -0.252 OA
ATOM     16  N   UNL     1       2.254  -3.617   3.038  0.00  0.00    -0.281 N 
ATOM     17  H   UNL     1       3.000  -3.902   3.590  0.00  0.00    +0.152 HD
ENDROOT
BRANCH  13  18
ATOM     18  C   UNL     1       0.885  -2.264  -0.042  0.00  0.00    +0.153 C 
BRANCH  18  19
ATOM     19  C   UNL     1       0.982  -0.761   0.017  0.00  0.00    -0.018 A 
ATOM     20  C   UNL     1       1.131  -0.124   1.235  0.00  0.00    +0.006 A 
ATOM     21  C   UNL     1       1.220   1.254   1.288  0.00  0.00    +0.000 A 
ATOM     22  C   UNL     1       1.160   1.996   0.123  0.00  0.00    +0.001 A 
ATOM     23  C   UNL     1       1.011   1.360  -1.095  0.00  0.00    +0.013 A 
ATOM     24  C   UNL     1       0.922  -0.019  -1.148  0.00  0.00    +0.059 A 
BRANCH  24  25
ATOM     25  C   UNL     1       0.760  -0.713  -2.476  0.00  0.00    +0.418 C 
ATOM     26  F   UNL     1       0.665   0.243  -3.493  0.00  0.00    -0.166 F 
ATOM     27  F   UNL     1       1.866  -1.536  -2.711  0.00  0.00    -0.166 F 
ATOM     28  F   UNL     1      -0.404  -1.490  -2.457  0.00  0.00    -0.166 F 
ENDBRANCH  24  25
ENDBRANCH  18  19
ENDBRANCH  13  18
TORSDOF 3
