REMARK  Name = ZINC03046661
REMARK  9 active torsions:
REMARK  status: ('A' for Active; 'I' for Inactive)
REMARK    1  A    between atoms: C_1  and  C_2
REMARK    2  A    between atoms: C_5  and  C_8
REMARK    3  A    between atoms: N_12  and  C_20
REMARK    4  A    between atoms: C_20  and  C_21
REMARK    5  A    between atoms: N_23  and  C_24
REMARK    6  A    between atoms: C_24  and  C_25
REMARK    7  A    between atoms: C_25  and  C_26
REMARK    8  A    between atoms: C_26  and  C_27
REMARK    9  A    between atoms: C_26  and  C_28
REMARK                            x       y       z     vdW  Elec       q    Type
REMARK                         _______ _______ _______ _____ _____    ______ ____
ROOT
ATOM      1  C   UNL     1       2.716   2.060   6.850  0.00  0.00    +0.028 C 
ATOM      2  C   UNL     1       1.500   1.545   6.548  0.00  0.00    +0.076 C 
ATOM      3  C   UNL     1       0.773   1.924   5.315  0.00  0.00    +0.258 C 
ATOM      4  O   UNL     1       0.967   3.014   4.811  0.00  0.00    -0.269 OA
ATOM      5  N   UNL     1      -0.095   1.079   4.752  0.00  0.00    -0.257 N 
ATOM      6  C   UNL     1      -0.360  -0.225   5.151  0.00  0.00    +0.051 A 
ATOM      7  C   UNL     1      -0.951  -1.094   4.235  0.00  0.00    +0.024 A 
ATOM      8  C   UNL     1      -1.230  -2.398   4.588  0.00  0.00    +0.002 A 
ATOM      9  C   UNL     1      -0.928  -2.863   5.855  0.00  0.00    +0.001 A 
ATOM     10  C   UNL     1      -0.335  -2.020   6.769  0.00  0.00    +0.017 A 
ATOM     11  C   UNL     1      -0.057  -0.707   6.424  0.00  0.00    +0.034 A 
ATOM     12  S   UNL     1       0.685   0.377   7.606  0.00  0.00    -0.082 S 
ENDROOT
BRANCH   1  17
ATOM     13  C   UNL     1       5.116   0.960  11.955  0.00  0.00    +0.044 C 
ATOM     14  C   UNL     1       4.487   1.248  10.617  0.00  0.00    -0.050 A 
ATOM     15  C   UNL     1       5.289   1.424   9.502  0.00  0.00    +0.004 A 
ATOM     16  C   UNL     1       4.721   1.688   8.274  0.00  0.00    +0.008 A 
ATOM     17  C   UNL     1       3.330   1.778   8.156  0.00  0.00    -0.024 A 
ATOM     18  C   UNL     1       2.526   1.603   9.288  0.00  0.00    +0.008 A 
ATOM     19  C   UNL     1       3.110   1.335  10.508  0.00  0.00    +0.004 A 
ENDBRANCH   1  17
BRANCH   5  20
ATOM     20  C   UNL     1      -0.848   1.580   3.599  0.00  0.00    +0.209 C 
BRANCH  20  21
ATOM     21  C   UNL     1      -0.085   1.284   2.334  0.00  0.00    +0.231 C 
ATOM     22  O   UNL     1       0.983   0.711   2.389  0.00  0.00    -0.274 OA
ATOM     23  N   UNL     1      -0.589   1.656   1.141  0.00  0.00    -0.314 N 
ATOM     24  H   UNL     1      -1.442   2.114   1.096  0.00  0.00    +0.149 HD
BRANCH  23  25
ATOM     25  C   UNL     1       0.153   1.368  -0.090  0.00  0.00    +0.104 C 
BRANCH  25  26
ATOM     26  C   UNL     1      -0.634   1.891  -1.293  0.00  0.00    +0.022 C 
BRANCH  26  27
ATOM     27  C   UNL     1       0.141   1.591  -2.578  0.00  0.00    -0.016 C 
ATOM     28  C   UNL     1      -0.700   2.001  -3.788  0.00  0.00    +0.007 C 
ATOM     29  C   UNL     1       1.453   2.377  -2.579  0.00  0.00    +0.007 C 
ENDBRANCH  26  27
ENDBRANCH  25  26
ENDBRANCH  23  25
ENDBRANCH  20  21
ENDBRANCH   5  20
TORSDOF 6
