REMARK  Name = ZINC19959864
REMARK  5 active torsions:
REMARK  status: ('A' for Active; 'I' for Inactive)
REMARK    1  A    between atoms: C_1  and  C_2
REMARK    2  A    between atoms: C_2  and  N_3
REMARK    3  A    between atoms: C_7  and  C_9
REMARK    4  A    between atoms: C_9  and  N_10
REMARK    5  A    between atoms: N_10  and  C_11
REMARK                            x       y       z     vdW  Elec       q    Type
REMARK                         _______ _______ _______ _____ _____    ______ ____
ROOT
ATOM      1  C   UNL     1      -1.997  -1.920  -1.464  0.00  0.00    +0.173 C 
ATOM      2  C   UNL     1      -2.857  -0.788  -1.977  0.00  0.00    +0.001 A 
ATOM      3  C   UNL     1      -2.563   0.475  -2.440  0.00  0.00    +0.022 A 
ATOM      4  C   UNL     1      -3.584   1.314  -2.853  0.00  0.00    +0.018 A 
ATOM      5  C   UNL     1      -4.896   0.879  -2.799  0.00  0.00    +0.017 A 
ATOM      6  C   UNL     1      -5.193  -0.386  -2.335  0.00  0.00    +0.025 A 
ATOM      7  C   UNL     1      -4.170  -1.236  -1.918  0.00  0.00    +0.039 A 
ATOM      8  N   UNL     1      -4.213  -2.538  -1.417  0.00  0.00    -0.284 N 
ATOM      9  C   UNL     1      -2.987  -3.015  -1.128  0.00  0.00    +0.239 C 
ATOM     10  O   UNL     1      -2.725  -4.112  -0.683  0.00  0.00    -0.273 OA
ATOM     11 BR   UNL     1      -3.186   3.050  -3.489  0.00  0.00    -0.050 Br
ATOM     12  H   UNL     1      -5.032  -3.043  -1.293  0.00  0.00    +0.155 HD
ENDROOT
BRANCH   1  13
ATOM     13  N   UNL     1      -1.262  -1.505  -0.262  0.00  0.00    -0.304 NA
ATOM     14  H   UNL     1      -1.856  -1.534   0.553  0.00  0.00    +0.123 HD
BRANCH  13  15
ATOM     15  C   UNL     1      -0.061  -2.329  -0.069  0.00  0.00    +0.066 C 
BRANCH  15  20
ATOM     16  N   UNL     1       1.919  -2.642   1.355  0.00  0.00    +0.382 N 
ATOM     17  C   UNL     1       1.844  -3.387   2.630  0.00  0.00    -0.078 C 
ATOM     18  C   UNL     1       0.840  -2.587   3.497  0.00  0.00    -0.020 C 
ATOM     19  C   UNL     1      -0.196  -2.131   2.436  0.00  0.00    -0.016 C 
ATOM     20  C   UNL     1       0.676  -1.867   1.190  0.00  0.00    -0.055 C 
ATOM     21  H   UNL     1       2.710  -2.016   1.377  0.00  0.00    -0.081 HD
BRANCH  16  23
ATOM     22  C   UNL     1       3.407  -4.314   0.359  0.00  0.00    -0.017 C 
ATOM     23  C   UNL     1       2.066  -3.586   0.239  0.00  0.00    -0.082 C 
ENDBRANCH  16  23
ENDBRANCH  15  20
ENDBRANCH  13  15
ENDBRANCH   1  13
TORSDOF 4
