REMARK  Name = ZINC41222977
REMARK  8 active torsions:
REMARK  status: ('A' for Active; 'I' for Inactive)
REMARK    1  A    between atoms: C_1  and  C_2
REMARK    2  A    between atoms: C_2  and  C_4
REMARK    3  A    between atoms: C_2  and  N_13
REMARK    4  A    between atoms: C_4  and  C_5
REMARK    5  A    between atoms: C_5  and  C_6
REMARK    6  A    between atoms: C_9  and  O_12
REMARK    7  A    between atoms: C_14  and  C_16
REMARK    8  A    between atoms: N_18  and  C_19
REMARK                            x       y       z     vdW  Elec       q    Type
REMARK                         _______ _______ _______ _____ _____    ______ ____
ROOT
ATOM      1  N   UNL     1       0.716  -0.471   1.194  0.00  0.00    -0.305 N 
ATOM      2  C   UNL     1       0.055  -0.619   2.359  0.00  0.00    +0.300 C 
ATOM      3  O   UNL     1      -1.124  -0.343   2.427  0.00  0.00    -0.265 OA
ATOM      4  H   UNL     1       1.659  -0.692   1.139  0.00  0.00    +0.149 HD
ENDROOT
BRANCH   2   5
ATOM      5  C   UNL     1       0.775  -1.124   3.567  0.00  0.00    +0.303 C 
ATOM      6  O   UNL     1       1.955  -1.401   3.498  0.00  0.00    -0.265 OA
ATOM      7  N   UNL     1       0.114  -1.272   4.732  0.00  0.00    -0.277 N 
ATOM      8  H   UNL     1      -0.811  -0.990   4.804  0.00  0.00    +0.155 HD
BRANCH   7   9
ATOM      9  C   UNL     1       0.759  -1.831   5.832  0.00  0.00    +0.043 A 
ATOM     10  C   UNL     1       2.102  -1.595   6.047  0.00  0.00    +0.024 A 
ATOM     11  C   UNL     1       2.753  -2.150   7.144  0.00  0.00    +0.004 A 
ATOM     12  C   UNL     1       2.088  -2.938   8.033  0.00  0.00    +0.028 A 
ATOM     13  C   UNL     1       0.720  -3.204   7.853  0.00  0.00    +0.073 A 
ATOM     14  C   UNL     1       0.046  -2.639   6.742  0.00  0.00    +0.022 A 
ATOM     15  C   UNL     1      -1.323  -2.904   6.567  0.00  0.00    +0.013 A 
ATOM     16  C   UNL     1      -1.950  -3.696   7.488  0.00  0.00    +0.020 A 
ATOM     17  C   UNL     1      -1.231  -4.215   8.561  0.00  0.00    +0.111 A 
ATOM     18  N   UNL     1       0.049  -3.976   8.714  0.00  0.00    -0.255 NA
ENDBRANCH   7   9
ENDBRANCH   2   5
BRANCH   1  20
ATOM     19  C   UNL     1      -0.004   1.554   0.027  0.00  0.00    +0.028 C 
ATOM     20  C   UNL     1       0.010   0.024   0.009  0.00  0.00    +0.071 C 
BRANCH  20  21
ATOM     21  C   UNL     1       0.725  -0.465  -1.252  0.00  0.00    +0.026 C 
BRANCH  21  22
ATOM     22  C   UNL     1       0.631  -1.990  -1.333  0.00  0.00    +0.037 C 
BRANCH  22  23
ATOM     23  C   UNL     1       1.336  -2.472  -2.575  0.00  0.00    -0.047 A 
ATOM     24  C   UNL     1       0.637  -2.591  -3.762  0.00  0.00    +0.007 A 
ATOM     25  C   UNL     1       1.280  -3.033  -4.902  0.00  0.00    +0.045 A 
ATOM     26  C   UNL     1       2.628  -3.356  -4.855  0.00  0.00    +0.117 A 
ATOM     27  C   UNL     1       3.327  -3.235  -3.663  0.00  0.00    +0.045 A 
ATOM     28  C   UNL     1       2.681  -2.788  -2.527  0.00  0.00    +0.007 A 
BRANCH  26  29
ATOM     29  O   UNL     1       3.263  -3.792  -5.975  0.00  0.00    -0.507 OA
ATOM     30  H   UNL     1       3.654  -3.084  -6.506  0.00  0.00    +0.292 HD
ENDBRANCH  26  29
ENDBRANCH  22  23
ENDBRANCH  21  22
ENDBRANCH  20  21
ENDBRANCH   1  20
TORSDOF 7
