REMARK  Name = ZINC09298369
REMARK  8 active torsions:
REMARK  status: ('A' for Active; 'I' for Inactive)
REMARK    1  A    between atoms: C_1  and  C_2
REMARK    2  A    between atoms: C_2  and  O_3
REMARK    3  A    between atoms: O_3  and  C_4
REMARK    4  A    between atoms: C_7  and  C_9
REMARK    5  A    between atoms: C_13  and  N_14
REMARK    6  A    between atoms: C_15  and  C_17
REMARK    7  A    between atoms: C_19  and  N_24
REMARK    8  A    between atoms: C_28  and  C_32
REMARK                            x       y       z     vdW  Elec       q    Type
REMARK                         _______ _______ _______ _____ _____    ______ ____
ROOT
ATOM      1  C   UNL     1       2.232   0.793  -0.015  0.00  0.00    +0.069 A 
ATOM      2  C   UNL     1       1.312  -0.332  -0.013  0.00  0.00    -0.023 A 
ATOM      3  C   UNL     1       0.002  -0.004   0.002  0.00  0.00    -0.004 A 
ATOM      4  S   UNL     1      -0.022   1.766   0.012  0.00  0.00    -0.077 S 
ATOM      5  C   UNL     1       1.684   2.069  -0.003  0.00  0.00    +0.085 A 
ATOM      6  C   UNL     1      -1.164  -0.944   0.009  0.00  0.00    +0.046 C 
ATOM      7  C   UNL     1      -0.654  -2.345   0.376  0.00  0.00    -0.009 C 
ATOM      8  C   UNL     1       0.580  -2.659  -0.475  0.00  0.00    +0.008 C 
ATOM      9  C   UNL     1       1.756  -1.790  -0.026  0.00  0.00    +0.037 C 
ATOM     10  C   UNL     1      -1.746  -3.378   0.095  0.00  0.00    +0.008 C 
ENDROOT
BRANCH   1  14
ATOM     11  C   UNL     1       5.696   0.301   1.115  0.00  0.00    +0.407 C 
ATOM     12  O   UNL     1       6.287   0.222   0.057  0.00  0.00    -0.226 OA
ATOM     13  N   UNL     1       4.361   0.488   1.130  0.00  0.00    -0.217 N 
ATOM     14  C   UNL     1       3.682   0.589  -0.030  0.00  0.00    +0.255 C 
ATOM     15  O   UNL     1       4.274   0.510  -1.091  0.00  0.00    -0.270 OA
ATOM     16  H   UNL     1       3.889   0.551   1.975  0.00  0.00    +0.161 HD
BRANCH  11  17
ATOM     17  O   UNL     1       6.373   0.200   2.274  0.00  0.00    -0.450 OA
BRANCH  17  19
ATOM     18  C   UNL     1       8.401  -0.091   3.591  0.00  0.00    +0.048 C 
ATOM     19  C   UNL     1       7.808  -0.001   2.183  0.00  0.00    +0.230 C 
ENDBRANCH  17  19
ENDBRANCH  11  17
ENDBRANCH   1  14
BRANCH   5  20
ATOM     20  N   UNL     1       2.341   3.288  -0.003  0.00  0.00    -0.275 N 
ATOM     21  C   UNL     1       1.634   4.436   0.010  0.00  0.00    +0.250 C 
ATOM     22  O   UNL     1       0.419   4.400   0.021  0.00  0.00    -0.270 OA
ATOM     23  H   UNL     1       3.311   3.317  -0.013  0.00  0.00    +0.156 HD
BRANCH  21  24
ATOM     24  C   UNL     1       2.335   5.736   0.009  0.00  0.00    +0.057 A 
ATOM     25  C   UNL     1       3.731   5.780  -0.004  0.00  0.00    +0.047 A 
ATOM     26  C   UNL     1       4.379   6.997  -0.004  0.00  0.00    +0.127 A 
ATOM     27  C   UNL     1       3.650   8.174   0.009  0.00  0.00    +0.034 A 
ATOM     28  C   UNL     1       2.268   8.139   0.023  0.00  0.00    +0.023 A 
ATOM     29  C   UNL     1       1.605   6.927   0.017  0.00  0.00    +0.053 A 
ATOM     30 CL   UNL     1      -0.131   6.884   0.026  0.00  0.00    -0.083 Cl
BRANCH  26  31
ATOM     31  N   UNL     1       5.859   7.045  -0.019  0.00  0.00    +0.056 N 
ATOM     32  O   UNL     1       6.501   6.011  -0.030  0.00  0.00    -0.126 OA
ATOM     33  O   UNL     1       6.433   8.119  -0.019  0.00  0.00    -0.126 OA
ENDBRANCH  26  31
ENDBRANCH  21  24
ENDBRANCH   5  20
TORSDOF 6
