REMARK  Name = ZINC62820644
REMARK  3 active torsions:
REMARK  status: ('A' for Active; 'I' for Inactive)
REMARK    1  A    between atoms: C_3  and  C_12
REMARK    2  A    between atoms: C_4  and  C_8
REMARK    3  A    between atoms: C_16  and  C_18
REMARK                            x       y       z     vdW  Elec       q    Type
REMARK                         _______ _______ _______ _____ _____    ______ ____
ROOT
ATOM      1  C   UNL     1      -0.017   1.380   0.010  0.00  0.00    +0.016 A 
ATOM      2  C   UNL     1       1.167   2.089   0.002  0.00  0.00    +0.013 A 
ATOM      3  C   UNL     1       2.385   1.408  -0.013  0.00  0.00    +0.029 A 
ATOM      4  C   UNL     1       2.397   0.012  -0.021  0.00  0.00    +0.066 A 
ATOM      5  C   UNL     1       1.207  -0.686  -0.013  0.00  0.00    +0.028 A 
ATOM      6  C   UNL     1       0.002  -0.004   0.002  0.00  0.00    +0.018 A 
ATOM      7 BR   UNL     1      -1.625  -0.968   0.012  0.00  0.00    -0.050 Br
ENDROOT
BRANCH   3   8
ATOM      8  C   UNL     1       3.657   2.162  -0.022  0.00  0.00    +0.139 A 
ATOM      9  N   UNL     1       3.780   3.520  -0.011  0.00  0.00    -0.344 N 
ATOM     10  H   UNL     1       3.056   4.165   0.004  0.00  0.00    +0.167 HD
ATOM     11  C   UNL     1       5.120   3.800  -0.024  0.00  0.00    +0.109 A 
ATOM     12  C   UNL     1       5.771   2.619  -0.042  0.00  0.00    +0.074 A 
ATOM     13  N   UNL     1       4.862   1.637  -0.036  0.00  0.00    -0.231 NA
BRANCH  12  14
ATOM     14  C   UNL     1       7.267   2.437  -0.061  0.00  0.00    +0.165 C 
ATOM     15 CL   UNL     1       7.883   2.348   1.631  0.00  0.00    -0.119 Cl
ENDBRANCH  12  14
ENDBRANCH   3   8
BRANCH   4  16
ATOM     16  C   UNL     1       3.708  -0.731  -0.038  0.00  0.00    +0.418 C 
ATOM     17  F   UNL     1       3.463  -2.109  -0.043  0.00  0.00    -0.166 F 
ATOM     18  F   UNL     1       4.428  -0.381  -1.185  0.00  0.00    -0.166 F 
ATOM     19  F   UNL     1       4.450  -0.394   1.099  0.00  0.00    -0.166 F 
ENDBRANCH   4  16
TORSDOF 3
