REMARK  Name = ZINC25011817
REMARK  9 active torsions:
REMARK  status: ('A' for Active; 'I' for Inactive)
REMARK    1  A    between atoms: C_1  and  C_2
REMARK    2  A    between atoms: C_2  and  C_3
REMARK    3  A    between atoms: C_3  and  C_4
REMARK    4  A    between atoms: C_4  and  C_5
REMARK    5  A    between atoms: C_5  and  C_7
REMARK    6  A    between atoms: C_5  and  N_23
REMARK    7  A    between atoms: C_12  and  C_15
REMARK    8  A    between atoms: C_15  and  N_16
REMARK    9  A    between atoms: C_19  and  C_22
REMARK                            x       y       z     vdW  Elec       q    Type
REMARK                         _______ _______ _______ _____ _____    ______ ____
ROOT
ATOM      1  C   UNL     1      -2.460  -0.010   0.026  0.00  0.00    +0.158 C 
ENDROOT
BRANCH   1   2
ATOM      2  N   UNL     1      -1.177  -0.717   0.010  0.00  0.00    -0.316 N 
ATOM      3  C   UNL     1       0.002  -0.004   0.002  0.00  0.00    +0.150 C 
ATOM      4  N   UNL     1      -0.015   1.291   0.009  0.00  0.00    -0.113 NA
ATOM      5  S   UNL     1       1.588   1.770  -0.004  0.00  0.00    +0.101 S 
ATOM      6  O   UNL     1       1.843   2.394  -1.254  0.00  0.00    -0.146 OA
ATOM      7  O   UNL     1       1.867   2.381   1.249  0.00  0.00    -0.146 OA
ATOM      8  C   UNL     1       2.379   0.184  -0.020  0.00  0.00    +0.123 A 
ATOM      9  C   UNL     1       1.295  -0.705  -0.014  0.00  0.00    +0.043 A 
ATOM     10  C   UNL     1       1.587  -2.078  -0.024  0.00  0.00    +0.013 A 
ATOM     11  C   UNL     1       2.894  -2.510  -0.039  0.00  0.00    +0.001 A 
ATOM     12  C   UNL     1       3.943  -1.608  -0.045  0.00  0.00    +0.002 A 
ATOM     13  C   UNL     1       3.673  -0.246  -0.035  0.00  0.00    +0.030 A 
ATOM     14  H   UNL     1      -1.155  -1.817   0.004  0.00  0.00    +0.148 HD
ENDBRANCH   1   2
BRANCH   1  15
ATOM     15  C   UNL     1      -3.527  -0.893  -0.569  0.00  0.00    +0.239 C 
ATOM     16  O   UNL     1      -3.244  -2.003  -0.967  0.00  0.00    -0.273 OA
ATOM     17  N   UNL     1      -4.796  -0.448  -0.658  0.00  0.00    -0.263 N 
ATOM     18  C   UNL     1      -5.781  -1.262  -1.207  0.00  0.00    +0.165 A 
ATOM     19  N   UNL     1      -7.065  -1.012  -1.374  0.00  0.00    -0.231 NA
ATOM     20  C   UNL     1      -7.869  -1.903  -1.921  0.00  0.00    +0.034 A 
ATOM     21  C   UNL     1      -7.348  -3.095  -2.301  0.00  0.00    +0.070 A 
ATOM     22  S   UNL     1      -5.636  -2.873  -1.841  0.00  0.00    -0.060 S 
ATOM     23  H   UNL     1      -5.053   0.558  -0.297  0.00  0.00    +0.157 HD
BRANCH  20  24
ATOM     24  C   UNL     1      -9.333  -1.604  -2.113  0.00  0.00    -0.022 C 
BRANCH  24  25
ATOM     25  N   UNL     1     -10.063  -1.914  -0.877  0.00  0.00    +0.383 N 
ATOM     26  C   UNL     1      -9.361  -1.379   0.297  0.00  0.00    -0.078 C 
ATOM     27  C   UNL     1     -10.068  -1.843   1.572  0.00  0.00    -0.016 C 
ATOM     28  C   UNL     1     -11.518  -1.352   1.553  0.00  0.00    -0.018 C 
ATOM     29  C   UNL     1     -12.213  -1.883   0.297  0.00  0.00    -0.016 C 
ATOM     30  C   UNL     1     -11.443  -1.418  -0.942  0.00  0.00    -0.078 C 
ATOM     31  C   UNL     1     -12.248  -1.864   2.796  0.00  0.00    +0.007 C 
ATOM     32  H   UNL     1     -10.104  -3.008  -0.772  0.00  0.00    -0.081 HD
ENDBRANCH  24  25
ENDBRANCH  20  24
ENDBRANCH   1  15
BRANCH   1  33
ATOM     33  C   UNL     1      -2.832   0.339   1.468  0.00  0.00    +0.032 C 
BRANCH  33  34
ATOM     34  C   UNL     1      -1.815   1.334   2.031  0.00  0.00    +0.002 C 
BRANCH  34  36
ATOM     35  C   UNL     1      -1.170   2.678   4.036  0.00  0.00    +0.004 C 
ATOM     36  C   UNL     1      -2.187   1.683   3.473  0.00  0.00    -0.003 C 
ENDBRANCH  34  36
ENDBRANCH  33  34
ENDBRANCH   1  33
TORSDOF 7
