REMARK  Name = ZINC13039600
REMARK  12 active torsions:
REMARK  status: ('A' for Active; 'I' for Inactive)
REMARK    1  A    between atoms: C_1  and  C_2
REMARK    2  A    between atoms: C_2  and  C_3
REMARK    3  A    between atoms: C_2  and  C_30
REMARK    4  A    between atoms: C_2  and  C_31
REMARK    5  A    between atoms: C_6  and  C_7
REMARK    6  A    between atoms: C_9  and  O_14
REMARK    7  A    between atoms: C_10  and  O_13
REMARK    8  A    between atoms: O_14  and  C_15
REMARK    9  A    between atoms: C_19  and  C_20
REMARK   10  A    between atoms: C_22  and  O_27
REMARK   11  A    between atoms: C_23  and  O_26
REMARK   12  A    between atoms: O_27  and  C_28
REMARK                            x       y       z     vdW  Elec       q    Type
REMARK                         _______ _______ _______ _____ _____    ______ ____
ROOT
ATOM      1  C   UNL     1       1.948  -0.707   0.964  0.00  0.00    +0.003 C 
ATOM      2  C   UNL     1       1.705  -2.211   0.806  0.00  0.00    +0.043 C 
ATOM      3  C   UNL     1       2.032  -2.900   2.115  0.00  0.00    +0.000 C 
ATOM      4  C   UNL     1       2.833  -3.986   2.165  0.00  0.00    +0.015 C 
ATOM      5  C   UNL     1       1.427  -2.322   3.336  0.00  0.00    +0.185 C 
ATOM      6  O   UNL     1       1.001  -3.013   4.245  0.00  0.00    -0.287 OA
ATOM      7  C   UNL     1       1.379  -0.843   3.372  0.00  0.00    +0.000 C 
ATOM      8  C   UNL     1       1.616  -0.153   4.508  0.00  0.00    +0.015 C 
ATOM      9  C   UNL     1       1.049  -0.145   2.069  0.00  0.00    +0.043 C 
ENDROOT
BRANCH   4  10
ATOM     10  C   UNL     1       3.276  -4.631   0.921  0.00  0.00    -0.021 A 
ATOM     11  C   UNL     1       4.536  -5.239   0.855  0.00  0.00    +0.057 A 
ATOM     12  C   UNL     1       4.946  -5.843  -0.317  0.00  0.00    +0.162 A 
ATOM     13  C   UNL     1       4.107  -5.846  -1.431  0.00  0.00    +0.158 A 
ATOM     14  C   UNL     1       2.858  -5.243  -1.367  0.00  0.00    +0.050 A 
ATOM     15  C   UNL     1       2.438  -4.644  -0.200  0.00  0.00    +0.012 A 
BRANCH  13  16
ATOM     16  O   UNL     1       4.514  -6.441  -2.583  0.00  0.00    -0.503 OA
ATOM     17  H   UNL     1       4.277  -7.376  -2.647  0.00  0.00    +0.292 HD
ENDBRANCH  13  16
BRANCH  12  18
ATOM     18  O   UNL     1       6.169  -6.434  -0.385  0.00  0.00    -0.491 OA
ATOM     19  C   UNL     1       6.976  -6.393   0.794  0.00  0.00    +0.277 C 
ENDBRANCH  12  18
ENDBRANCH   4  10
BRANCH   8  20
ATOM     20  C   UNL     1       1.394   1.300   4.546  0.00  0.00    -0.021 A 
ATOM     21  C   UNL     1       2.209   2.115   5.340  0.00  0.00    +0.057 A 
ATOM     22  C   UNL     1       1.996   3.478   5.371  0.00  0.00    +0.162 A 
ATOM     23  C   UNL     1       0.970   4.041   4.612  0.00  0.00    +0.158 A 
ATOM     24  C   UNL     1       0.161   3.234   3.824  0.00  0.00    +0.050 A 
ATOM     25  C   UNL     1       0.371   1.873   3.782  0.00  0.00    +0.012 A 
BRANCH  23  26
ATOM     26  O   UNL     1       0.762   5.383   4.644  0.00  0.00    -0.503 OA
ATOM     27  H   UNL     1       1.259   5.874   3.976  0.00  0.00    +0.292 HD
ENDBRANCH  23  26
BRANCH  22  28
ATOM     28  O   UNL     1       2.785   4.273   6.142  0.00  0.00    -0.491 OA
ATOM     29  C   UNL     1       3.816   3.629   6.894  0.00  0.00    +0.277 C 
ENDBRANCH  22  28
ENDBRANCH   8  20
BRANCH   1  31
ATOM     30  C   UNL     1       1.887   1.501  -0.204  0.00  0.00    +0.011 C 
ATOM     31  C   UNL     1       1.632  -0.000  -0.356  0.00  0.00    -0.034 C 
ATOM     32  C   UNL     1       0.165  -0.234  -0.722  0.00  0.00    +0.011 C 
ATOM     33  C   UNL     1       2.529  -0.561  -1.462  0.00  0.00    +0.011 C 
ENDBRANCH   1  31
TORSDOF 7
