REMARK  Name = ZINC40148036
REMARK  6 active torsions:
REMARK  status: ('A' for Active; 'I' for Inactive)
REMARK    1  A    between atoms: C_1  and  C_2
REMARK    2  A    between atoms: C_2  and  C_3
REMARK    3  A    between atoms: C_3  and  C_4
REMARK    4  A    between atoms: C_4  and  C_5
REMARK    5  A    between atoms: C_8  and  N_11
REMARK    6  A    between atoms: C_12  and  C_14
REMARK                            x       y       z     vdW  Elec       q    Type
REMARK                         _______ _______ _______ _____ _____    ______ ____
ROOT
ATOM      1  N   UNL     1       3.394  -3.857  -5.932  0.00  0.00    -0.281 N 
ATOM      2  C   UNL     1       4.553  -4.536  -5.825  0.00  0.00    +0.255 C 
ATOM      3  O   UNL     1       4.984  -4.835  -4.728  0.00  0.00    -0.270 OA
ATOM      4  H   UNL     1       3.012  -3.684  -6.807  0.00  0.00    +0.155 HD
ENDROOT
BRANCH   2   5
ATOM      5  C   UNL     1       5.299  -4.915  -7.037  0.00  0.00    +0.122 A 
ATOM      6  C   UNL     1       6.492  -5.620  -6.959  0.00  0.00    +0.032 A 
ATOM      7  C   UNL     1       7.169  -5.922  -8.169  0.00  0.00    +0.021 A 
ATOM      8  C   UNL     1       8.266  -6.797  -8.171  0.00  0.00    +0.031 A 
ATOM      9  C   UNL     1       8.881  -7.111  -9.350  0.00  0.00    +0.043 A 
ATOM     10  C   UNL     1       8.436  -6.565 -10.547  0.00  0.00    +0.043 A 
ATOM     11  C   UNL     1       7.371  -5.686 -10.565  0.00  0.00    +0.085 A 
ATOM     12  C   UNL     1       6.735  -5.347  -9.377  0.00  0.00    +0.157 A 
ATOM     13  O   UNL     1       5.716  -4.453  -9.377  0.00  0.00    -0.420 OA
ATOM     14  C   UNL     1       4.804  -4.567  -8.382  0.00  0.00    +0.350 A 
ATOM     15  O   UNL     1       3.618  -4.385  -8.588  0.00  0.00    -0.244 OA
ATOM     16 CL   UNL     1       6.829  -5.007 -12.068  0.00  0.00    -0.080 Cl
ATOM     17 CL   UNL     1      10.232  -8.201  -9.351  0.00  0.00    -0.083 Cl
ENDBRANCH   2   5
BRANCH   1  21
ATOM     18  C   UNL     1       1.452  -2.500  -2.506  0.00  0.00    -0.047 A 
ATOM     19  C   UNL     1       0.714  -2.896  -3.606  0.00  0.00    +0.005 A 
ATOM     20  C   UNL     1       1.355  -3.346  -4.743  0.00  0.00    +0.023 A 
ATOM     21  C   UNL     1       2.742  -3.401  -4.782  0.00  0.00    +0.034 A 
ATOM     22  C   UNL     1       3.481  -3.001  -3.675  0.00  0.00    +0.023 A 
ATOM     23  C   UNL     1       2.834  -2.547  -2.543  0.00  0.00    +0.005 A 
BRANCH  18  24
ATOM     24  C   UNL     1       0.750  -2.009  -1.266  0.00  0.00    +0.035 C 
BRANCH  24  25
ATOM     25  C   UNL     1       0.545  -0.496  -1.361  0.00  0.00    +0.004 C 
BRANCH  25  27
ATOM     26  C   UNL     1      -0.373   1.516  -0.198  0.00  0.00    +0.004 C 
ATOM     27  C   UNL     1      -0.168   0.003  -0.103  0.00  0.00    -0.003 C 
ENDBRANCH  25  27
ENDBRANCH  24  25
ENDBRANCH  18  24
ENDBRANCH   1  21
TORSDOF 5
