REMARK  Name = ZINC11088462
REMARK  9 active torsions:
REMARK  status: ('A' for Active; 'I' for Inactive)
REMARK    1  A    between atoms: C_1  and  N_2
REMARK    2  A    between atoms: C_3  and  C_5
REMARK    3  A    between atoms: C_5  and  C_7
REMARK    4  A    between atoms: C_5  and  N_45
REMARK    5  A    between atoms: C_14  and  N_45
REMARK    6  A    between atoms: C_15  and  C_16
REMARK    7  A    between atoms: C_15  and  N_45
REMARK    8  A    between atoms: N_18  and  C_19
REMARK    9  A    between atoms: C_22  and  C_25
REMARK                            x       y       z     vdW  Elec       q    Type
REMARK                         _______ _______ _______ _____ _____    ______ ____
ROOT
ATOM      1  C   UNL     1       2.919  -0.578   0.257  0.00  0.00    -0.094 C 
ATOM      2  N   UNL     1       1.586   0.062   0.229  0.00  0.00    +0.394 N 
ATOM      3  H   UNL     1       1.046  -0.258   1.041  0.00  0.00    -0.080 HD
ENDROOT
BRANCH   2   4
ATOM      4  C   UNL     1       0.869  -0.319  -1.006  0.00  0.00    +0.050 C 
BRANCH   4   5
ATOM      5  C   UNL     1      -0.496   0.319  -0.995  0.00  0.00    -0.052 A 
ATOM      6  C   UNL     1      -1.259   0.300   0.159  0.00  0.00    +0.004 A 
ATOM      7  C   UNL     1      -2.508   0.890   0.171  0.00  0.00    +0.020 A 
ATOM      8  C   UNL     1      -3.001   1.490  -0.974  0.00  0.00    +0.041 A 
ATOM      9  C   UNL     1      -2.241   1.503  -2.130  0.00  0.00    +0.020 A 
ATOM     10  C   UNL     1      -0.989   0.918  -2.139  0.00  0.00    +0.004 A 
ATOM     11 CL   UNL     1      -4.574   2.224  -0.962  0.00  0.00    -0.084 Cl
ENDBRANCH   4   5
BRANCH   4  14
ATOM     12  C   UNL     1       0.441  -3.910  -2.261  0.00  0.00    +0.128 C 
ATOM     13  N   UNL     1       0.583  -2.453  -2.224  0.00  0.00    -0.319 N 
ATOM     14  C   UNL     1       0.722  -1.819  -1.043  0.00  0.00    +0.204 C 
ATOM     15  O   UNL     1       0.729  -2.455  -0.011  0.00  0.00    -0.277 OA
ATOM     16  H   UNL     1       0.578  -1.944  -3.050  0.00  0.00    +0.148 HD
ENDBRANCH   4  14
ENDBRANCH   2   4
BRANCH   2  17
ATOM     17  C   UNL     1       1.730   1.531   0.297  0.00  0.00    +0.020 C 
BRANCH  17  18
ATOM     18  C   UNL     1       2.262   1.906   1.656  0.00  0.00    +0.201 C 
ATOM     19  O   UNL     1       2.510   1.041   2.470  0.00  0.00    -0.278 OA
ATOM     20  N   UNL     1       2.462   3.201   1.968  0.00  0.00    -0.287 N 
ATOM     21  H   UNL     1       2.204   3.896   1.342  0.00  0.00    +0.155 HD
BRANCH  20  22
ATOM     22  C   UNL     1       3.040   3.543   3.191  0.00  0.00    +0.033 A 
ATOM     23  C   UNL     1       2.768   2.783   4.324  0.00  0.00    +0.024 A 
ATOM     24  C   UNL     1       3.341   3.115   5.532  0.00  0.00    +0.020 A 
ATOM     25  C   UNL     1       4.188   4.223   5.621  0.00  0.00    +0.052 A 
ATOM     26  C   UNL     1       4.454   4.988   4.481  0.00  0.00    +0.020 A 
ATOM     27  C   UNL     1       3.882   4.647   3.276  0.00  0.00    +0.024 A 
BRANCH  25  28
ATOM     28  C   UNL     1       4.781   4.574   6.876  0.00  0.00    +0.099 C 
ATOM     29  N   UNL     1       5.252   4.852   7.872  0.00  0.00    -0.191 NA
ENDBRANCH  25  28
ENDBRANCH  20  22
ENDBRANCH  17  18
ENDBRANCH   2  17
TORSDOF 7
