REMARK  Name = ZINC12972046
REMARK  3 active torsions:
REMARK  status: ('A' for Active; 'I' for Inactive)
REMARK    1  A    between atoms: C_6  and  C_7
REMARK    2  A    between atoms: N_12  and  S_13
REMARK    3  A    between atoms: S_13  and  C_16
REMARK                            x       y       z     vdW  Elec       q    Type
REMARK                         _______ _______ _______ _____ _____    ______ ____
ROOT
ATOM      1  C   UNL     1      -2.559   3.863   0.048  0.00  0.00    +0.110 C 
ATOM      2  C   UNL     1      -3.182   3.857  -1.364  0.00  0.00    +0.027 C 
ATOM      3  C   UNL     1      -4.695   3.665  -1.076  0.00  0.00    +0.019 C 
ATOM      4  C   UNL     1      -4.660   2.722   0.152  0.00  0.00    +0.110 C 
ATOM      5  N   UNL     1      -3.501   3.175   0.943  0.00  0.00    -0.169 NA
ENDROOT
BRANCH   1  11
ATOM      6  C   UNL     1      -1.219   1.750   0.017  0.00  0.00    +0.009 A 
ATOM      7  C   UNL     1      -0.013   1.076   0.008  0.00  0.00    +0.050 A 
ATOM      8  C   UNL     1       1.179   1.785   0.000  0.00  0.00    +0.162 A 
ATOM      9  C   UNL     1       1.157   3.175   0.005  0.00  0.00    +0.162 A 
ATOM     10  C   UNL     1      -0.057   3.845   0.021  0.00  0.00    +0.054 A 
ATOM     11  C   UNL     1      -1.242   3.132   0.030  0.00  0.00    -0.025 A 
ATOM     12  O   UNL     1       2.314   3.890  -0.010  0.00  0.00    -0.485 OA
ATOM     13  C   UNL     1       3.508   3.189   0.355  0.00  0.00    +0.270 C 
ATOM     14  C   UNL     1       3.524   1.847  -0.390  0.00  0.00    +0.270 C 
ATOM     15  O   UNL     1       2.360   1.107  -0.006  0.00  0.00    -0.485 OA
ENDBRANCH   1  11
BRANCH   5  16
ATOM     16  S   UNL     1      -3.293   2.945   2.570  0.00  0.00    +0.061 S 
ATOM     17  O   UNL     1      -4.081   1.817   2.925  0.00  0.00    -0.153 OA
ATOM     18  O   UNL     1      -1.894   3.004   2.813  0.00  0.00    -0.153 OA
BRANCH  16  19
ATOM     19  C   UNL     1      -4.005   4.334   3.387  0.00  0.00    +0.107 A 
ATOM     20  C   UNL     1      -3.232   5.447   3.659  0.00  0.00    +0.030 A 
ATOM     21  C   UNL     1      -3.791   6.539   4.295  0.00  0.00    +0.023 A 
ATOM     22  C   UNL     1      -5.122   6.515   4.670  0.00  0.00    +0.059 A 
ATOM     23  C   UNL     1      -5.895   5.398   4.403  0.00  0.00    +0.061 A 
ATOM     24  C   UNL     1      -5.336   4.307   3.761  0.00  0.00    +0.050 A 
ATOM     25 CL   UNL     1      -7.566   5.365   4.873  0.00  0.00    -0.082 Cl
ATOM     26 CL   UNL     1      -5.823   7.884   5.475  0.00  0.00    -0.082 Cl
ENDBRANCH  16  19
ENDBRANCH   5  16
TORSDOF 3
