REMARK  Name = ZINC09183604
REMARK  8 active torsions:
REMARK  status: ('A' for Active; 'I' for Inactive)
REMARK    1  A    between atoms: C_1  and  O_2
REMARK    2  A    between atoms: O_2  and  C_3
REMARK    3  A    between atoms: C_8  and  C_9
REMARK    4  A    between atoms: C_18  and  C_25
REMARK    5  A    between atoms: C_20  and  C_21
REMARK    6  A    between atoms: C_20  and  N_53
REMARK    7  A    between atoms: C_21  and  O_23
REMARK    8  A    between atoms: O_23  and  C_24
REMARK                            x       y       z     vdW  Elec       q    Type
REMARK                         _______ _______ _______ _____ _____    ______ ____
ROOT
ATOM      1  C   UNL     1       1.246  -1.983   0.080  0.00  0.00    +0.053 C 
ATOM      2  N   UNL     1       0.194  -2.479   0.979  0.00  0.00    -0.353 N 
ATOM      3  C   UNL     1       0.157  -3.851   1.261  0.00  0.00    +0.028 A 
ATOM      4  C   UNL     1      -0.960  -4.402   1.874  0.00  0.00    +0.024 A 
ATOM      5  C   UNL     1      -0.994  -5.754   2.154  0.00  0.00    +0.017 A 
ATOM      6  C   UNL     1       0.085  -6.556   1.823  0.00  0.00    +0.018 A 
ATOM      7  C   UNL     1       1.197  -6.008   1.212  0.00  0.00    +0.019 A 
ATOM      8  C   UNL     1       1.238  -4.655   0.926  0.00  0.00    -0.035 A 
ATOM      9  C   UNL     1       2.453  -4.074   0.253  0.00  0.00    -0.001 C 
ATOM     10 BR   UNL     1       0.037  -8.406   2.210  0.00  0.00    -0.050 Br
ATOM     11  H   UNL     1      -0.457  -1.873   1.367  0.00  0.00    +0.145 HD
ATOM     12  N   UNL     1       2.518  -2.619   0.495  0.00  0.00    +0.409 N 
ATOM     13  H   UNL     1       2.662  -2.454   1.498  0.00  0.00    -0.076 HD
ENDROOT
BRANCH   1  19
ATOM     14  C   UNL     1       0.564   0.347  -0.547  0.00  0.00    +0.123 A 
ATOM     15  C   UNL     1       0.679   1.724  -0.420  0.00  0.00    +0.046 A 
ATOM     16  C   UNL     1       1.594   2.260   0.465  0.00  0.00    +0.004 A 
ATOM     17  C   UNL     1       2.395   1.427   1.224  0.00  0.00    +0.000 A 
ATOM     18  C   UNL     1       2.283   0.054   1.099  0.00  0.00    +0.007 A 
ATOM     19  C   UNL     1       1.369  -0.487   0.215  0.00  0.00    -0.003 A 
BRANCH  14  21
ATOM     20  C   UNL     1      -1.131   0.736  -2.168  0.00  0.00    +0.277 C 
ATOM     21  O   UNL     1      -0.335  -0.183  -1.417  0.00  0.00    -0.495 OA
ENDBRANCH  14  21
ENDBRANCH   1  19
BRANCH   9  22
ATOM     22  C   UNL     1       3.692  -4.715   0.822  0.00  0.00    -0.057 A 
ATOM     23  C   UNL     1       4.202  -4.282   2.031  0.00  0.00    +0.002 A 
ATOM     24  C   UNL     1       5.336  -4.873   2.555  0.00  0.00    +0.000 A 
ATOM     25  C   UNL     1       5.966  -5.892   1.865  0.00  0.00    +0.000 A 
ATOM     26  C   UNL     1       5.459  -6.322   0.653  0.00  0.00    +0.000 A 
ATOM     27  C   UNL     1       4.322  -5.734   0.131  0.00  0.00    +0.002 A 
ENDBRANCH   9  22
BRANCH  12  28
ATOM     28  C   UNL     1       3.647  -2.031  -0.255  0.00  0.00    +0.048 C 
BRANCH  28  29
ATOM     29  C   UNL     1       3.466  -2.248  -1.735  0.00  0.00    +0.290 C 
ATOM     30  O   UNL     1       2.468  -2.788  -2.150  0.00  0.00    -0.253 OA
BRANCH  29  31
ATOM     31  O   UNL     1       4.415  -1.842  -2.594  0.00  0.00    -0.469 OA
ATOM     32  C   UNL     1       4.231  -2.187  -3.992  0.00  0.00    +0.280 C 
ENDBRANCH  29  31
ENDBRANCH  28  29
ENDBRANCH  12  28
TORSDOF 6
