REMARK  Name = ZINC33810035
REMARK  9 active torsions:
REMARK  status: ('A' for Active; 'I' for Inactive)
REMARK    1  A    between atoms: C_1  and  O_2
REMARK    2  A    between atoms: O_2  and  C_3
REMARK    3  A    between atoms: C_6  and  C_17
REMARK    4  A    between atoms: C_8  and  O_9
REMARK    5  A    between atoms: O_9  and  C_10
REMARK    6  A    between atoms: C_10  and  C_11
REMARK    7  A    between atoms: C_22  and  S_26
REMARK    8  A    between atoms: S_26  and  C_27
REMARK    9  A    between atoms: C_27  and  C_28
REMARK                            x       y       z     vdW  Elec       q    Type
REMARK                         _______ _______ _______ _____ _____    ______ ____
ROOT
ATOM      1  C   UNL     1      -0.133  10.302   0.643  0.00  0.00    +0.093 C 
ATOM      2  C   UNL     1       1.105  11.149   0.618  0.00  0.00    +0.069 A 
ATOM      3  C   UNL     1       1.054  12.451   0.230  0.00  0.00    +0.135 A 
ATOM      4  N   UNL     1       2.207  13.191   0.211  0.00  0.00    -0.208 NA
ATOM      5  C   UNL     1       3.389  12.623   0.580  0.00  0.00    +0.171 A 
ATOM      6  N   UNL     1       3.451  11.364   0.961  0.00  0.00    -0.302 N 
ATOM      7  C   UNL     1       2.349  10.599   0.997  0.00  0.00    +0.258 A 
ATOM      8  O   UNL     1       2.422   9.432   1.355  0.00  0.00    -0.267 OA
ATOM      9  N   UNL     1      -0.144  13.017  -0.138  0.00  0.00    -0.302 N 
ATOM     10  C   UNL     1      -1.330  12.444   0.235  0.00  0.00    +0.017 C 
ATOM     11  C   UNL     1      -1.378  11.150   0.617  0.00  0.00    +0.024 C 
ATOM     12  C   UNL     1      -2.593  10.553   0.998  0.00  0.00    +0.162 C 
ATOM     13  O   UNL     1      -2.600   9.391   1.353  0.00  0.00    -0.292 OA
ATOM     14  C   UNL     1      -3.883  11.326   0.975  0.00  0.00    +0.080 C 
ATOM     15  C   UNL     1      -3.791  12.418  -0.096  0.00  0.00    +0.014 C 
ATOM     16  C   UNL     1      -2.575  13.295   0.210  0.00  0.00    +0.051 C 
ATOM     17  H   UNL     1      -0.155  13.939  -0.738  0.00  0.00    +0.153 HD
ATOM     18  H   UNL     1       4.415  10.925   1.256  0.00  0.00    +0.171 HD
ENDROOT
BRANCH   1  22
ATOM     19  C   UNL     1      -0.124   7.720  -2.766  0.00  0.00    +0.162 A 
ATOM     20  C   UNL     1      -0.150   9.095  -2.935  0.00  0.00    +0.050 A 
ATOM     21  C   UNL     1      -0.151   9.927  -1.831  0.00  0.00    +0.008 A 
ATOM     22  C   UNL     1      -0.131   9.390  -0.557  0.00  0.00    -0.032 A 
ATOM     23  C   UNL     1      -0.111   8.019  -0.382  0.00  0.00    +0.054 A 
ATOM     24  C   UNL     1      -0.110   7.180  -1.484  0.00  0.00    +0.163 A 
BRANCH  19  26
ATOM     25  C   UNL     1      -0.132   7.525  -5.137  0.00  0.00    +0.277 C 
ATOM     26  O   UNL     1      -0.117   6.901  -3.852  0.00  0.00    -0.491 OA
ENDBRANCH  19  26
BRANCH  24  27
ATOM     27  O   UNL     1      -0.090   5.831  -1.313  0.00  0.00    -0.484 OA
BRANCH  27  28
ATOM     28  C   UNL     1      -0.070   5.347   0.031  0.00  0.00    +0.264 C 
BRANCH  28  29
ATOM     29  C   UNL     1      -0.050   3.840   0.023  0.00  0.00    -0.010 A 
ATOM     30  C   UNL     1       1.156   3.165   0.008  0.00  0.00    +0.007 A 
ATOM     31  C   UNL     1       1.175   1.783   0.000  0.00  0.00    +0.000 A 
ATOM     32  C   UNL     1      -0.013   1.076   0.008  0.00  0.00    +0.000 A 
ATOM     33  C   UNL     1      -1.219   1.751   0.017  0.00  0.00    +0.000 A 
ATOM     34  C   UNL     1      -1.238   3.133   0.030  0.00  0.00    +0.007 A 
ENDBRANCH  28  29
ENDBRANCH  27  28
ENDBRANCH  24  27
ENDBRANCH   1  22
BRANCH   5  35
ATOM     35  S   UNL     1       4.862  13.590   0.546  0.00  0.00    -0.084 S 
BRANCH  35  36
ATOM     36  C   UNL     1       6.060  12.357   1.113  0.00  0.00    +0.104 C 
BRANCH  36  37
ATOM     37  C   UNL     1       7.433  12.978   1.165  0.00  0.00    -0.023 C 
ATOM     38  C   UNL     1       8.046  13.118   2.314  0.00  0.00    +0.005 C 
ENDBRANCH  36  37
ENDBRANCH  35  36
ENDBRANCH   5  35
TORSDOF 8
