REMARK  Name = ZINC40899194
REMARK  12 active torsions:
REMARK  status: ('A' for Active; 'I' for Inactive)
REMARK    1  A    between atoms: C_1  and  C_2
REMARK    2  A    between atoms: C_4  and  C_26
REMARK    3  A    between atoms: C_6  and  N_8
REMARK    4  A    between atoms: N_8  and  C_9
REMARK    5  A    between atoms: C_9  and  N_11
REMARK    6  A    between atoms: C_12  and  C_14
REMARK    7  A    between atoms: C_14  and  O_15
REMARK    8  A    between atoms: O_15  and  C_16
REMARK    9  A    between atoms: C_19  and  C_23
REMARK   10  A    between atoms: C_20  and  C_22
REMARK   11  A    between atoms: C_23  and  C_24
REMARK   12  A    between atoms: C_23  and  C_25
REMARK                            x       y       z     vdW  Elec       q    Type
REMARK                         _______ _______ _______ _____ _____    ______ ____
ROOT
ATOM      1  N   UNL     1       0.228  -2.669   4.729  0.00  0.00    -0.265 N 
ATOM      2  C   UNL     1       0.312  -2.036   5.916  0.00  0.00    +0.256 C 
ATOM      3  O   UNL     1       0.257  -0.826   5.962  0.00  0.00    -0.272 OA
ATOM      4  H   UNL     1       0.271  -3.637   4.691  0.00  0.00    +0.157 HD
ENDROOT
BRANCH   1   5
ATOM      5  C   UNL     1       0.083  -1.957   3.594  0.00  0.00    +0.141 C 
ATOM      6  S   UNL     1       0.006  -0.248   3.660  0.00  0.00    -0.018 S 
BRANCH   5   7
ATOM      7  N   UNL     1      -0.001  -2.590   2.407  0.00  0.00    -0.297 N 
ATOM      8  H   UNL     1      -0.040  -3.558   2.376  0.00  0.00    +0.154 HD
BRANCH   7  14
ATOM      9  C   UNL     1       1.651   1.192  -0.265  0.00  0.00    +0.044 C 
ATOM     10  C   UNL     1       0.759  -0.011  -0.102  0.00  0.00    -0.048 A 
ATOM     11  C   UNL     1      -0.090  -0.386  -1.127  0.00  0.00    +0.006 A 
ATOM     12  C   UNL     1      -0.910  -1.490  -0.981  0.00  0.00    -0.048 A 
ATOM     13  C   UNL     1      -0.883  -2.223   0.189  0.00  0.00    +0.026 A 
ATOM     14  C   UNL     1      -0.031  -1.850   1.220  0.00  0.00    +0.033 A 
ATOM     15  C   UNL     1       0.795  -0.743   1.069  0.00  0.00    +0.026 A 
ATOM     16  C   UNL     1      -1.835  -1.893  -2.101  0.00  0.00    +0.044 C 
ENDBRANCH   7  14
ENDBRANCH   5   7
ENDBRANCH   1   5
BRANCH   2  17
ATOM     17  C   UNL     1       0.473  -2.833   7.185  0.00  0.00    +0.324 C 
BRANCH  17  18
ATOM     18  O   UNL     1       0.538  -1.943   8.301  0.00  0.00    -0.483 OA
BRANCH  18  19
ATOM     19  C   UNL     1       0.684  -2.504   9.530  0.00  0.00    +0.121 A 
ATOM     20  C   UNL     1       0.769  -3.883   9.658  0.00  0.00    +0.046 A 
ATOM     21  C   UNL     1       0.918  -4.451  10.908  0.00  0.00    +0.008 A 
ATOM     22  C   UNL     1       0.982  -3.647  12.031  0.00  0.00    -0.042 A 
ATOM     23  C   UNL     1       0.897  -2.273  11.906  0.00  0.00    -0.044 A 
ATOM     24  C   UNL     1       0.753  -1.699  10.657  0.00  0.00    +0.049 A 
ATOM     25  C   UNL     1       0.967  -1.399  13.132  0.00  0.00    +0.044 C 
BRANCH  22  26
ATOM     26  C   UNL     1       1.145  -4.269  13.394  0.00  0.00    +0.013 C 
ATOM     27  C   UNL     1       0.015  -5.272  13.635  0.00  0.00    +0.012 C 
ATOM     28  C   UNL     1       2.492  -4.991  13.468  0.00  0.00    +0.012 C 
ENDBRANCH  22  26
ENDBRANCH  18  19
ENDBRANCH  17  18
ENDBRANCH   2  17
TORSDOF 7
