REMARK  Name = ZINC35564764
REMARK  4 active torsions:
REMARK  status: ('A' for Active; 'I' for Inactive)
REMARK    1  A    between atoms: C_4  and  N_7
REMARK    2  A    between atoms: C_22  and  C_24
REMARK    3  A    between atoms: C_24  and  N_25
REMARK    4  A    between atoms: N_28  and  C_31
REMARK                            x       y       z     vdW  Elec       q    Type
REMARK                         _______ _______ _______ _____ _____    ______ ____
ROOT
ATOM      1  N   UNL     1       2.494  -2.735   2.388  0.00  0.00    -0.269 N 
ATOM      2  C   UNL     1       3.643  -2.047   2.242  0.00  0.00    +0.307 C 
ATOM      3  O   UNL     1       3.626  -0.832   2.215  0.00  0.00    -0.252 OA
ATOM      4  N   UNL     1       4.813  -2.707   2.125  0.00  0.00    -0.282 N 
ATOM      5  C   UNL     1       4.835  -4.169   1.972  0.00  0.00    +0.128 C 
ATOM      6  C   UNL     1       5.622  -4.516   0.702  0.00  0.00    +0.127 C 
ATOM      7  N   UNL     1       6.897  -3.787   0.725  0.00  0.00    -0.298 N 
ATOM      8  C   UNL     1       6.875  -2.326   0.879  0.00  0.00    +0.127 C 
ATOM      9  C   UNL     1       6.088  -1.978   2.143  0.00  0.00    +0.128 C 
ATOM     10  C   UNL     1       8.085  -4.457   0.607  0.00  0.00    +0.198 A 
ATOM     11  N   UNL     1       8.086  -5.818   0.590  0.00  0.00    -0.295 N 
ATOM     12  H   UNL     1       7.251  -6.306   0.662  0.00  0.00    +0.172 HD
ATOM     13  C   UNL     1       9.254  -6.486   0.473  0.00  0.00    +0.253 A 
ATOM     14  O   UNL     1       9.273  -7.706   0.456  0.00  0.00    -0.268 OA
ATOM     15  C   UNL     1      10.447  -5.749   0.371  0.00  0.00    +0.091 A 
ATOM     16  C   UNL     1      10.384  -4.386   0.394  0.00  0.00    +0.034 A 
ATOM     17  N   UNL     1       9.207  -3.773   0.506  0.00  0.00    -0.223 NA
ATOM     18  H   UNL     1       2.517  -3.693   2.539  0.00  0.00    +0.156 HD
ENDROOT
BRANCH   1  22
ATOM     19  C   UNL     1      -1.162  -0.745   2.197  0.00  0.00    +0.000 A 
ATOM     20  C   UNL     1      -1.097  -2.098   1.918  0.00  0.00    +0.002 A 
ATOM     21  C   UNL     1       0.113  -2.760   1.980  0.00  0.00    +0.023 A 
ATOM     22  C   UNL     1       1.266  -2.066   2.324  0.00  0.00    +0.035 A 
ATOM     23  C   UNL     1       1.197  -0.708   2.604  0.00  0.00    +0.023 A 
ATOM     24  C   UNL     1      -0.016  -0.051   2.540  0.00  0.00    +0.002 A 
ENDBRANCH   1  22
BRANCH  16  25
ATOM     25  C   UNL     1      11.648  -3.572   0.286  0.00  0.00    -0.022 C 
BRANCH  25  26
ATOM     26  N   UNL     1      11.628  -2.800  -0.964  0.00  0.00    +0.385 N 
ATOM     27  C   UNL     1      11.648  -3.721  -2.107  0.00  0.00    -0.059 C 
ATOM     28  C   UNL     1      11.512  -2.923  -3.408  0.00  0.00    +0.086 C 
ATOM     29  N   UNL     1      12.565  -1.896  -3.437  0.00  0.00    -0.331 N 
ATOM     30  C   UNL     1      12.723  -1.031  -2.257  0.00  0.00    +0.086 C 
ATOM     31  C   UNL     1      12.802  -1.919  -1.011  0.00  0.00    -0.059 C 
ATOM     32  H   UNL     1      10.789  -2.242  -0.999  0.00  0.00    -0.081 HD
BRANCH  29  33
ATOM     33  C   UNL     1      13.393  -1.747  -4.554  0.00  0.00    +0.065 A 
ATOM     34  C   UNL     1      13.030  -0.884  -5.579  0.00  0.00    +0.026 A 
ATOM     35  C   UNL     1      13.851  -0.738  -6.681  0.00  0.00    +0.002 A 
ATOM     36  C   UNL     1      15.032  -1.451  -6.765  0.00  0.00    +0.003 A 
ATOM     37  C   UNL     1      15.399  -2.312  -5.747  0.00  0.00    +0.040 A 
ATOM     38  C   UNL     1      14.585  -2.458  -4.638  0.00  0.00    +0.144 A 
ATOM     39  F   UNL     1      14.946  -3.295  -3.640  0.00  0.00    -0.204 F 
ENDBRANCH  29  33
ENDBRANCH  25  26
ENDBRANCH  16  25
TORSDOF 4
