REMARK  Name = ZINC07365272
REMARK  8 active torsions:
REMARK  status: ('A' for Active; 'I' for Inactive)
REMARK    1  A    between atoms: C_3  and  N_24
REMARK    2  A    between atoms: C_6  and  N_7
REMARK    3  A    between atoms: N_7  and  C_8
REMARK    4  A    between atoms: C_8  and  C_9
REMARK    5  A    between atoms: C_9  and  N_43
REMARK    6  A    between atoms: C_10  and  C_11
REMARK    7  A    between atoms: C_10  and  N_43
REMARK    8  A    between atoms: C_14  and  C_16
REMARK                            x       y       z     vdW  Elec       q    Type
REMARK                         _______ _______ _______ _____ _____    ______ ____
ROOT
ATOM      1  N   UNL     1      -1.642   2.474   1.417  0.00  0.00    +0.385 N 
ATOM      2  H   UNL     1      -1.833   1.584   1.893  0.00  0.00    -0.085 HD
ATOM      3  H   UNL     1      -0.874   2.960   1.896  0.00  0.00    -0.085 HD
ENDROOT
BRANCH   1   4
ATOM      4  C   UNL     1      -2.852   3.317   1.458  0.00  0.00    -0.063 C 
BRANCH   4   5
ATOM      5  C   UNL     1      -3.231   3.579   2.917  0.00  0.00    +0.082 C 
BRANCH   5   6
ATOM      6  N   UNL     1      -4.432   4.416   2.967  0.00  0.00    -0.346 N 
ATOM      7  H   UNL     1      -4.852   4.711   2.144  0.00  0.00    +0.146 HD
BRANCH   6  13
ATOM      8  C   UNL     1      -4.375   4.365   5.379  0.00  0.00    +0.025 A 
ATOM      9  C   UNL     1      -4.909   4.741   6.596  0.00  0.00    +0.034 A 
ATOM     10  C   UNL     1      -6.042   5.531   6.641  0.00  0.00    +0.126 A 
ATOM     11  C   UNL     1      -6.642   5.952   5.469  0.00  0.00    +0.034 A 
ATOM     12  C   UNL     1      -6.111   5.584   4.248  0.00  0.00    +0.025 A 
ATOM     13  C   UNL     1      -4.972   4.790   4.199  0.00  0.00    +0.027 A 
BRANCH  10  14
ATOM     14  N   UNL     1      -6.615   5.928   7.947  0.00  0.00    +0.056 N 
ATOM     15  O   UNL     1      -7.613   6.624   7.989  0.00  0.00    -0.126 OA
ATOM     16  O   UNL     1      -6.087   5.558   8.981  0.00  0.00    -0.126 OA
ENDBRANCH  10  14
ENDBRANCH   6  13
ENDBRANCH   5   6
ENDBRANCH   4   5
ENDBRANCH   1   4
BRANCH   1  17
ATOM     17  C   UNL     1      -1.252   2.205   0.020  0.00  0.00    -0.007 C 
BRANCH  17  18
ATOM     18  C   UNL     1      -0.016   1.343   0.009  0.00  0.00    +0.089 A 
ATOM     19  C   UNL     1       0.002  -0.004   0.002  0.00  0.00    +0.043 A 
ATOM     20  C   UNL     1       1.355  -0.399  -0.013  0.00  0.00    +0.050 A 
ATOM     21  C   UNL     1       2.095   0.742  -0.014  0.00  0.00    +0.135 A 
ATOM     22  O   UNL     1       1.250   1.790  -0.000  0.00  0.00    -0.462 OA
BRANCH  21  23
ATOM     23  C   UNL     1       3.571   0.818  -0.028  0.00  0.00    +0.020 A 
ATOM     24  C   UNL     1       4.333  -0.352  -0.035  0.00  0.00    +0.031 A 
ATOM     25  C   UNL     1       5.711  -0.275  -0.052  0.00  0.00    +0.043 A 
ATOM     26  C   UNL     1       6.338   0.960  -0.052  0.00  0.00    +0.040 A 
ATOM     27  C   UNL     1       5.588   2.123  -0.039  0.00  0.00    +0.043 A 
ATOM     28  C   UNL     1       4.209   2.059  -0.027  0.00  0.00    +0.031 A 
ATOM     29 CL   UNL     1       6.384   3.667  -0.039  0.00  0.00    -0.083 Cl
ATOM     30 CL   UNL     1       6.660  -1.728  -0.067  0.00  0.00    -0.083 Cl
ENDBRANCH  21  23
ENDBRANCH  17  18
ENDBRANCH   1  17
TORSDOF 8
