REMARK  Name = ZINC56937518
REMARK  9 active torsions:
REMARK  status: ('A' for Active; 'I' for Inactive)
REMARK    1  A    between atoms: C_1  and  C_2
REMARK    2  A    between atoms: C_4  and  C_33
REMARK    3  A    between atoms: C_5  and  S_9
REMARK    4  A    between atoms: C_6  and  C_8
REMARK    5  A    between atoms: S_9  and  N_12
REMARK    6  A    between atoms: N_15  and  C_18
REMARK    7  A    between atoms: C_19  and  C_32
REMARK    8  A    between atoms: N_21  and  C_24
REMARK    9  A    between atoms: C_22  and  C_23
REMARK                            x       y       z     vdW  Elec       q    Type
REMARK                         _______ _______ _______ _____ _____    ______ ____
ROOT
ATOM      1  N   UNL     1       0.301  -5.401   0.242  0.00  0.00    -0.174 NA
ATOM      2  C   UNL     1       0.867  -6.030  -0.959  0.00  0.00    +0.128 C 
ATOM      3  C   UNL     1       2.371  -5.732  -1.006  0.00  0.00    +0.122 C 
ATOM      4  N   UNL     1       2.954  -6.054   0.304  0.00  0.00    -0.325 N 
ATOM      5  C   UNL     1       2.388  -5.425   1.506  0.00  0.00    +0.122 C 
ATOM      6  C   UNL     1       0.887  -5.718   1.552  0.00  0.00    +0.128 C 
ENDROOT
BRANCH   4   7
ATOM      7  C   UNL     1       4.036  -6.949   0.407  0.00  0.00    +0.074 A 
ATOM      8  C   UNL     1       3.944  -8.339   0.571  0.00  0.00    +0.081 A 
ATOM      9  N   UNL     1       5.157  -8.828   0.624  0.00  0.00    -0.174 NA
ATOM     10  N   UNL     1       6.066  -7.770   0.496  0.00  0.00    -0.262 N 
ATOM     11  C   UNL     1       5.352  -6.622   0.357  0.00  0.00    +0.058 A 
ATOM     12  C   UNL     1       5.918  -5.236   0.184  0.00  0.00    +0.067 C 
ATOM     13  C   UNL     1       2.667  -9.133   0.670  0.00  0.00    +0.069 C 
BRANCH  10  14
ATOM     14  C   UNL     1       7.527  -7.882   0.504  0.00  0.00    +0.130 C 
ATOM     15  C   UNL     1       7.984  -8.504   1.834  0.00  0.00    +0.051 C 
ATOM     16  C   UNL     1       9.482  -8.898   1.695  0.00  0.00    +0.168 C 
ATOM     17  S   UNL     1       9.492  -9.584  -0.015  0.00  0.00    -0.029 S 
ATOM     18  O   UNL     1       9.274 -10.987   0.048  0.00  0.00    -0.174 OA
ATOM     19  O   UNL     1      10.628  -9.083  -0.707  0.00  0.00    -0.174 OA
ATOM     20  C   UNL     1       7.980  -8.774  -0.677  0.00  0.00    +0.192 C 
ENDBRANCH  10  14
ENDBRANCH   4   7
BRANCH   1  21
ATOM     21  S   UNL     1      -0.972  -4.347   0.122  0.00  0.00    +0.061 S 
ATOM     22  O   UNL     1      -1.685  -4.431   1.348  0.00  0.00    -0.153 OA
ATOM     23  O   UNL     1      -1.585  -4.594  -1.136  0.00  0.00    -0.153 OA
BRANCH  21  28
ATOM     24  C   UNL     1       1.344   1.218  -0.150  0.00  0.00    +0.044 C 
ATOM     25  C   UNL     1       0.765  -0.172  -0.082  0.00  0.00    -0.050 A 
ATOM     26  C   UNL     1       0.404  -0.711   1.138  0.00  0.00    +0.008 A 
ATOM     27  C   UNL     1      -0.127  -1.986   1.201  0.00  0.00    -0.024 A 
ATOM     28  C   UNL     1      -0.296  -2.722   0.043  0.00  0.00    +0.111 A 
ATOM     29  C   UNL     1       0.064  -2.182  -1.178  0.00  0.00    -0.024 A 
ATOM     30  C   UNL     1       0.591  -0.905  -1.241  0.00  0.00    +0.008 A 
ATOM     31  C   UNL     1      -0.120  -2.984  -2.441  0.00  0.00    +0.046 C 
ATOM     32  C   UNL     1      -0.520  -2.575   2.531  0.00  0.00    +0.046 C 
ENDBRANCH  21  28
ENDBRANCH   1  21
TORSDOF 4
