REMARK  Name = ZINC17092159
REMARK  5 active torsions:
REMARK  status: ('A' for Active; 'I' for Inactive)
REMARK    1  A    between atoms: C_1  and  C_2
REMARK    2  A    between atoms: C_2  and  C_3
REMARK    3  A    between atoms: C_2  and  C_4
REMARK    4  A    between atoms: C_7  and  C_10
REMARK    5  A    between atoms: C_15  and  C_23
REMARK                            x       y       z     vdW  Elec       q    Type
REMARK                         _______ _______ _______ _____ _____    ______ ____
ROOT
ATOM      1  C   UNL     1      -5.419  -2.005   0.043  0.00  0.00    +0.032 C 
ATOM      2  C   UNL     1      -5.404  -3.535   0.027  0.00  0.00    +0.060 C 
ATOM      3  C   UNL     1      -6.821  -4.056  -0.001  0.00  0.00    +0.020 C 
ATOM      4  C   UNL     1      -7.802  -3.361  -0.616  0.00  0.00    +0.041 C 
ATOM      5  C   UNL     1      -9.228  -3.865  -0.676  0.00  0.00    +0.176 C 
ATOM      6  N   UNL     1      -9.411  -4.955   0.274  0.00  0.00    -0.221 N 
ATOM      7  C   UNL     1      -8.382  -5.603   0.875  0.00  0.00    +0.218 A 
ATOM      8  N   UNL     1      -8.884  -6.521   1.654  0.00  0.00    -0.201 NA
ATOM      9  C   UNL     1     -10.218  -6.488   1.582  0.00  0.00    +0.247 A 
ATOM     10  N   UNL     1     -10.582  -5.544   0.750  0.00  0.00    -0.156 NA
ATOM     11  N   UNL     1      -7.065  -5.254   0.626  0.00  0.00    -0.287 N 
ATOM     12  C   UNL     1      -7.535  -2.123  -1.227  0.00  0.00    +0.164 C 
ATOM     13  O   UNL     1      -8.437  -1.529  -1.785  0.00  0.00    -0.292 OA
ATOM     14  C   UNL     1      -6.160  -1.516  -1.206  0.00  0.00    +0.088 C 
ATOM     15  H   UNL     1      -6.336  -5.838   0.886  0.00  0.00    +0.155 HD
ENDROOT
BRANCH   5  16
ATOM     16  C   UNL     1      -9.524  -4.362  -2.067  0.00  0.00    -0.013 A 
ATOM     17  C   UNL     1      -8.784  -5.399  -2.603  0.00  0.00    +0.044 A 
ATOM     18  C   UNL     1      -9.055  -5.856  -3.882  0.00  0.00    +0.126 A 
ATOM     19  C   UNL     1     -10.068  -5.274  -4.624  0.00  0.00    +0.076 A 
ATOM     20  C   UNL     1     -10.809  -4.236  -4.086  0.00  0.00    +0.126 A 
ATOM     21  C   UNL     1     -10.540  -3.784  -2.805  0.00  0.00    +0.044 A 
ATOM     22  F   UNL     1     -11.799  -3.667  -4.809  0.00  0.00    -0.205 F 
ATOM     23  F   UNL     1      -8.330  -6.869  -4.405  0.00  0.00    -0.205 F 
ENDBRANCH   5  16
BRANCH   1  27
ATOM     24  C   UNL     1      -1.412  -0.526   0.013  0.00  0.00    -0.045 A 
ATOM     25  C   UNL     1      -2.259  -0.204   1.056  0.00  0.00    +0.004 A 
ATOM     26  C   UNL     1      -3.556  -0.683   1.066  0.00  0.00    +0.004 A 
ATOM     27  C   UNL     1      -4.006  -1.482   0.032  0.00  0.00    -0.043 A 
ATOM     28  C   UNL     1      -3.159  -1.803  -1.012  0.00  0.00    +0.004 A 
ATOM     29  C   UNL     1      -1.863  -1.321  -1.024  0.00  0.00    +0.004 A 
BRANCH  24  31
ATOM     30  C   UNL     1      -0.019   1.526   0.010  0.00  0.00    +0.012 C 
ATOM     31  C   UNL     1       0.002  -0.004   0.002  0.00  0.00    +0.013 C 
ATOM     32  C   UNL     1       0.742  -0.511   1.242  0.00  0.00    +0.012 C 
ENDBRANCH  24  31
ENDBRANCH   1  27
TORSDOF 3
