REMARK  Name = ZINC01381989
REMARK  11 active torsions:
REMARK  status: ('A' for Active; 'I' for Inactive)
REMARK    1  A    between atoms: C_1  and  C_2
REMARK    2  A    between atoms: C_6  and  C_15
REMARK    3  A    between atoms: C_13  and  C_14
REMARK    4  A    between atoms: C_15  and  C_17
REMARK    5  A    between atoms: C_15  and  N_28
REMARK    6  A    between atoms: N_21  and  C_22
REMARK    7  A    between atoms: C_22  and  C_23
REMARK    8  A    between atoms: N_28  and  C_29
REMARK    9  A    between atoms: N_28  and  C_36
REMARK   10  A    between atoms: C_29  and  C_30
REMARK   11  A    between atoms: C_36  and  C_37
REMARK                            x       y       z     vdW  Elec       q    Type
REMARK                         _______ _______ _______ _____ _____    ______ ____
ROOT
ATOM      1  C   UNL     1       0.151  -4.792  -3.651  0.00  0.00    +0.163 C 
ENDROOT
BRANCH   1   7
ATOM      2  C   UNL     1       4.371  -2.885   2.194  0.00  0.00    +0.044 C 
ATOM      3  C   UNL     1       3.020  -3.059   1.550  0.00  0.00    -0.047 A 
ATOM      4  C   UNL     1       2.937  -3.513   0.264  0.00  0.00    +0.013 A 
ATOM      5  C   UNL     1       1.683  -3.674  -0.335  0.00  0.00    -0.001 A 
ATOM      6  C   UNL     1       1.557  -4.159  -1.711  0.00  0.00    +0.021 A 
ATOM      7  C   UNL     1       0.315  -4.296  -2.238  0.00  0.00    +0.042 A 
ATOM      8  C   UNL     1      -0.823  -3.974  -1.469  0.00  0.00    +0.254 A 
ATOM      9  O   UNL     1      -1.930  -4.104  -1.962  0.00  0.00    -0.268 OA
ATOM     10  N   UNL     1      -0.718  -3.529  -0.204  0.00  0.00    -0.322 N 
ATOM     11  H   UNL     1      -1.521  -3.318   0.296  0.00  0.00    +0.169 HD
ATOM     12  C   UNL     1       0.515  -3.368   0.390  0.00  0.00    +0.049 A 
ATOM     13  C   UNL     1       0.625  -2.906   1.698  0.00  0.00    +0.030 A 
ATOM     14  C   UNL     1       1.871  -2.761   2.269  0.00  0.00    -0.046 A 
ATOM     15  C   UNL     1       1.987  -2.267   3.688  0.00  0.00    +0.044 C 
ENDBRANCH   1   7
BRANCH   1  16
ATOM     16  C   UNL     1      -1.088  -5.645  -3.743  0.00  0.00    +0.174 A 
ATOM     17  N   UNL     1      -1.377  -6.688  -3.003  0.00  0.00    -0.111 NA
ATOM     18  N   UNL     1      -2.519  -7.144  -3.386  0.00  0.00    -0.023 NA
ATOM     19  N   UNL     1      -2.967  -6.420  -4.351  0.00  0.00    -0.043 NA
ATOM     20  N   UNL     1      -2.115  -5.482  -4.597  0.00  0.00    -0.220 N 
BRANCH  20  21
ATOM     21  C   UNL     1      -2.241  -4.438  -5.617  0.00  0.00    +0.221 C 
BRANCH  21  22
ATOM     22  C   UNL     1      -1.635  -4.922  -6.909  0.00  0.00    +0.126 A 
ATOM     23  C   UNL     1      -2.285  -5.580  -7.886  0.00  0.00    +0.046 A 
ATOM     24  C   UNL     1      -1.340  -5.839  -8.905  0.00  0.00    +0.041 A 
ATOM     25  C   UNL     1      -0.169  -5.324  -8.490  0.00  0.00    +0.195 A 
ATOM     26  O   UNL     1      -0.354  -4.765  -7.283  0.00  0.00    -0.466 OA
ENDBRANCH  21  22
ENDBRANCH  20  21
ENDBRANCH   1  16
BRANCH   1  27
ATOM     27  N   UNL     1       1.325  -5.590  -4.030  0.00  0.00    -0.280 NA
BRANCH  27  28
ATOM     28  C   UNL     1       1.252  -6.939  -3.453  0.00  0.00    +0.121 C 
BRANCH  28  29
ATOM     29  C   UNL     1       1.651  -6.886  -2.001  0.00  0.00    -0.033 A 
ATOM     30  C   UNL     1       2.988  -6.900  -1.650  0.00  0.00    +0.005 A 
ATOM     31  C   UNL     1       3.353  -6.852  -0.317  0.00  0.00    +0.000 A 
ATOM     32  C   UNL     1       2.382  -6.788   0.664  0.00  0.00    +0.000 A 
ATOM     33  C   UNL     1       1.045  -6.772   0.313  0.00  0.00    +0.000 A 
ATOM     34  C   UNL     1       0.679  -6.817  -1.020  0.00  0.00    +0.005 A 
ENDBRANCH  28  29
ENDBRANCH  27  28
BRANCH  27  35
ATOM     35  C   UNL     1       1.472  -5.649  -5.491  0.00  0.00    +0.122 C 
BRANCH  35  36
ATOM     36  C   UNL     1       2.788  -6.296  -5.837  0.00  0.00    -0.015 A 
ATOM     37  C   UNL     1       3.954  -5.546  -5.860  0.00  0.00    +0.008 A 
ATOM     38  C   UNL     1       5.142  -6.183  -6.184  0.00  0.00    +0.020 A 
ATOM     39  C   UNL     1       5.125  -7.535  -6.471  0.00  0.00    +0.111 A 
ATOM     40  N   UNL     1       3.997  -8.216  -6.440  0.00  0.00    -0.263 NA
ATOM     41  C   UNL     1       2.849  -7.645  -6.130  0.00  0.00    +0.115 A 
ENDBRANCH  35  36
ENDBRANCH  27  35
ENDBRANCH   1  27
TORSDOF 9
