REMARK  Name = ZINC32622612
REMARK  10 active torsions:
REMARK  status: ('A' for Active; 'I' for Inactive)
REMARK    1  A    between atoms: C_1  and  N_2
REMARK    2  A    between atoms: N_2  and  C_3
REMARK    3  A    between atoms: N_2  and  C_4
REMARK    4  A    between atoms: C_4  and  C_5
REMARK    5  A    between atoms: C_5  and  C_6
REMARK    6  A    between atoms: C_6  and  N_7
REMARK    7  A    between atoms: C_8  and  C_23
REMARK    8  A    between atoms: C_25  and  O_31
REMARK    9  A    between atoms: C_26  and  O_30
REMARK   10  A    between atoms: O_31  and  C_32
REMARK                            x       y       z     vdW  Elec       q    Type
REMARK                         _______ _______ _______ _____ _____    ______ ____
ROOT
ATOM      1  N   UNL     1       2.461  -3.963  -0.930  0.00  0.00    -0.284 N 
ATOM      2  C   UNL     1       2.543  -2.800  -0.038  0.00  0.00    +0.145 C 
ATOM      3  C   UNL     1       2.850  -3.347   1.331  0.00  0.00    +0.072 A 
ATOM      4  C   UNL     1       3.054  -2.706   2.634  0.00  0.00    +0.199 A 
ATOM      5  O   UNL     1       2.987  -1.497   2.769  0.00  0.00    -0.287 OA
ATOM      6  C   UNL     1       3.343  -3.599   3.773  0.00  0.00    +0.064 A 
ATOM      7  C   UNL     1       3.552  -3.097   5.056  0.00  0.00    +0.015 A 
ATOM      8  C   UNL     1       3.817  -3.958   6.085  0.00  0.00    +0.001 A 
ATOM      9  C   UNL     1       3.878  -5.326   5.856  0.00  0.00    +0.004 A 
ATOM     10  C   UNL     1       3.674  -5.840   4.594  0.00  0.00    +0.047 A 
ATOM     11  C   UNL     1       3.402  -4.982   3.532  0.00  0.00    +0.139 A 
ATOM     12  O   UNL     1       3.200  -5.468   2.294  0.00  0.00    -0.450 OA
ATOM     13  C   UNL     1       2.933  -4.695   1.222  0.00  0.00    +0.199 A 
ATOM     14  C   UNL     1       2.687  -5.065  -0.194  0.00  0.00    +0.283 C 
ATOM     15  O   UNL     1       2.691  -6.201  -0.627  0.00  0.00    -0.267 OA
ENDROOT
BRANCH   2  16
ATOM     16  C   UNL     1       1.228  -2.064  -0.021  0.00  0.00    -0.018 A 
ATOM     17  C   UNL     1       1.210  -0.682  -0.013  0.00  0.00    +0.055 A 
ATOM     18  C   UNL     1       0.002  -0.004   0.002  0.00  0.00    +0.163 A 
ATOM     19  C   UNL     1      -1.193  -0.718   0.015  0.00  0.00    +0.173 A 
ATOM     20  C   UNL     1      -1.169  -2.103   0.003  0.00  0.00    +0.063 A 
ATOM     21  C   UNL     1       0.042  -2.774  -0.013  0.00  0.00    +0.025 A 
ATOM     22 BR   UNL     1      -2.789  -3.078   0.015  0.00  0.00    -0.046 Br
BRANCH  19  23
ATOM     23  O   UNL     1      -2.381  -0.057   0.035  0.00  0.00    -0.503 OA
ATOM     24  H   UNL     1      -3.325  -0.622   0.046  0.00  0.00    +0.292 HD
ENDBRANCH  19  23
BRANCH  18  25
ATOM     25  O   UNL     1      -0.016   1.356   0.009  0.00  0.00    -0.491 OA
ATOM     26  C   UNL     1       1.248   2.022   0.001  0.00  0.00    +0.277 C 
ENDBRANCH  18  25
ENDBRANCH   2  16
BRANCH   1  27
ATOM     27  C   UNL     1       2.181  -3.929  -2.367  0.00  0.00    +0.107 C 
BRANCH  27  28
ATOM     28  C   UNL     1       3.496  -3.809  -3.140  0.00  0.00    +0.000 C 
BRANCH  28  29
ATOM     29  C   UNL     1       3.204  -3.774  -4.641  0.00  0.00    -0.078 C 
BRANCH  29  31
ATOM     30  C   UNL     1       5.287  -4.865  -5.216  0.00  0.00    -0.097 C 
ATOM     31  N   UNL     1       4.466  -3.658  -5.383  0.00  0.00    +0.376 N 
ATOM     32  C   UNL     1       4.218  -3.384  -6.805  0.00  0.00    -0.097 C 
ATOM     33  H   UNL     1       5.026  -2.808  -4.968  0.00  0.00    -0.083 HD
ENDBRANCH  29  31
ENDBRANCH  28  29
ENDBRANCH  27  28
ENDBRANCH   1  27
TORSDOF 7
