REMARK  Name = ZINC13273304
REMARK  7 active torsions:
REMARK  status: ('A' for Active; 'I' for Inactive)
REMARK    1  A    between atoms: C_3  and  N_10
REMARK    2  A    between atoms: C_4  and  C_8
REMARK    3  A    between atoms: C_11  and  C_13
REMARK    4  A    between atoms: C_13  and  S_14
REMARK    5  A    between atoms: S_14  and  C_15
REMARK    6  A    between atoms: C_18  and  C_23
REMARK    7  A    between atoms: N_19  and  C_20
REMARK                            x       y       z     vdW  Elec       q    Type
REMARK                         _______ _______ _______ _____ _____    ______ ____
ROOT
ATOM      1  N   UNL     1      -6.731  -3.522  -3.667  0.00  0.00    -0.284 N 
ATOM      2  C   UNL     1      -5.882  -2.554  -4.065  0.00  0.00    +0.228 C 
ATOM      3  O   UNL     1      -5.801  -2.264  -5.240  0.00  0.00    -0.275 OA
ATOM      4  H   UNL     1      -6.736  -3.812  -2.741  0.00  0.00    +0.155 HD
ENDROOT
BRANCH   1   7
ATOM      5  C   UNL     1      -8.856  -3.986  -6.625  0.00  0.00    +0.016 A 
ATOM      6  C   UNL     1      -7.994  -3.405  -5.716  0.00  0.00    +0.025 A 
ATOM      7  C   UNL     1      -7.602  -4.106  -4.584  0.00  0.00    +0.048 A 
ATOM      8  C   UNL     1      -8.082  -5.407  -4.370  0.00  0.00    +0.085 A 
ATOM      9  C   UNL     1      -8.959  -5.979  -5.295  0.00  0.00    +0.031 A 
ATOM     10  C   UNL     1      -9.337  -5.269  -6.415  0.00  0.00    +0.014 A 
ATOM     11  I   UNL     1     -10.644  -6.132  -7.806  0.00  0.00    -0.044 I 
BRANCH   8  12
ATOM     12  C   UNL     1      -7.669  -6.163  -3.175  0.00  0.00    +0.388 C 
ATOM     13  O   UNL     1      -6.982  -5.630  -2.326  0.00  0.00    -0.241 OA
ATOM     14  O   UNL     1      -8.052  -7.446  -3.023  0.00  0.00    -0.241 OA
ENDBRANCH   8  12
ENDBRANCH   1   7
BRANCH   2  15
ATOM     15  C   UNL     1      -5.033  -1.832  -3.051  0.00  0.00    +0.173 C 
BRANCH  15  16
ATOM     16  S   UNL     1      -4.006  -0.600  -3.891  0.00  0.00    -0.077 S 
BRANCH  16  17
ATOM     17  C   UNL     1      -3.144   0.073  -2.509  0.00  0.00    +0.192 A 
ATOM     18  N   UNL     1      -3.279  -0.287  -1.254  0.00  0.00    -0.122 NA
ATOM     19  N   UNL     1      -2.496   0.412  -0.513  0.00  0.00    -0.133 NA
ATOM     20  C   UNL     1      -1.821   1.253  -1.244  0.00  0.00    +0.137 A 
ATOM     21  N   UNL     1      -2.213   1.071  -2.541  0.00  0.00    -0.303 N 
BRANCH  21  22
ATOM     22  C   UNL     1      -1.731   1.794  -3.721  0.00  0.00    +0.091 C 
ATOM     23  C   UNL     1      -2.397   1.480  -5.062  0.00  0.00    +0.027 C 
ATOM     24  C   UNL     1      -0.974   0.992  -4.781  0.00  0.00    +0.027 C 
ENDBRANCH  21  22
BRANCH  20  25
ATOM     25  C   UNL     1      -0.801   2.247  -0.750  0.00  0.00    +0.057 C 
ATOM     26  C   UNL     1       0.427   1.696  -0.022  0.00  0.00    +0.012 C 
ATOM     27  C   UNL     1      -0.664   2.428   0.764  0.00  0.00    +0.012 C 
ENDBRANCH  20  25
ENDBRANCH  16  17
ENDBRANCH  15  16
ENDBRANCH   2  15
TORSDOF 7
