REMARK  Name = ZINC63256763
REMARK  9 active torsions:
REMARK  status: ('A' for Active; 'I' for Inactive)
REMARK    1  A    between atoms: C_1  and  C_2
REMARK    2  A    between atoms: C_4  and  N_9
REMARK    3  A    between atoms: C_10  and  C_12
REMARK    4  A    between atoms: C_12  and  O_13
REMARK    5  A    between atoms: O_13  and  C_14
REMARK    6  A    between atoms: C_14  and  C_16
REMARK    7  A    between atoms: C_16  and  C_17
REMARK    8  A    between atoms: C_17  and  C_18
REMARK    9  A    between atoms: C_18  and  C_19
REMARK                            x       y       z     vdW  Elec       q    Type
REMARK                         _______ _______ _______ _____ _____    ______ ____
ROOT
ATOM      1  C   UNL     1       0.493  -7.058  -4.553  0.00  0.00    +0.308 C 
ATOM      2  O   UNL     1       0.495  -6.587  -5.665  0.00  0.00    -0.251 OA
ENDROOT
BRANCH   1   3
ATOM      3  O   UNL     1       0.380  -6.253  -3.484  0.00  0.00    -0.455 OA
BRANCH   3   4
ATOM      4  C   UNL     1       0.265  -4.851  -3.737  0.00  0.00    +0.328 C 
BRANCH   4   6
ATOM      5  N   UNL     1       0.028  -2.771  -2.420  0.00  0.00    -0.283 N 
ATOM      6  C   UNL     1       0.148  -4.113  -2.428  0.00  0.00    +0.255 C 
ATOM      7  O   UNL     1       0.162  -4.727  -1.382  0.00  0.00    -0.272 OA
ATOM      8  H   UNL     1      -0.060  -2.287  -3.256  0.00  0.00    +0.155 HD
BRANCH   5  12
ATOM      9  C   UNL     1       1.619  -2.350   2.213  0.00  0.00    +0.045 C 
ATOM     10  C   UNL     1       0.793  -1.849   1.057  0.00  0.00    -0.035 A 
ATOM     11  C   UNL     1       0.792  -2.538  -0.141  0.00  0.00    +0.027 A 
ATOM     12  C   UNL     1       0.030  -2.075  -1.206  0.00  0.00    +0.034 A 
ATOM     13  C   UNL     1      -0.729  -0.921  -1.063  0.00  0.00    +0.024 A 
ATOM     14  C   UNL     1      -0.724  -0.236   0.136  0.00  0.00    +0.017 A 
ATOM     15  C   UNL     1       0.032  -0.703   1.197  0.00  0.00    +0.021 A 
ATOM     16 BR   UNL     1       0.029   0.233   2.841  0.00  0.00    -0.050 Br
ENDBRANCH   5  12
ENDBRANCH   4   6
ENDBRANCH   3   4
ENDBRANCH   1   3
BRANCH   1  17
ATOM     17  C   UNL     1       0.619  -8.548  -4.364  0.00  0.00    +0.121 C 
BRANCH  17  18
ATOM     18  C   UNL     1       0.732  -9.227  -5.731  0.00  0.00    +0.015 C 
BRANCH  18  19
ATOM     19  C   UNL     1       0.860 -10.739  -5.539  0.00  0.00    +0.034 C 
BRANCH  19  20
ATOM     20  C   UNL     1       0.972 -11.408  -6.885  0.00  0.00    -0.042 C 
ATOM     21  C   UNL     1       2.110 -11.763  -7.525  0.00  0.00    -0.001 A 
ATOM     22  C   UNL     1       3.529 -11.635  -7.173  0.00  0.00    +0.010 A 
ATOM     23  C   UNL     1       4.463 -12.093  -8.037  0.00  0.00    +0.001 A 
ATOM     24  C   UNL     1       4.110 -12.685  -9.258  0.00  0.00    +0.002 A 
ATOM     25  C   UNL     1       2.828 -12.837  -9.651  0.00  0.00    +0.026 A 
ATOM     26  C   UNL     1       1.763 -12.391  -8.819  0.00  0.00    +0.043 A 
ATOM     27  N   UNL     1       0.462 -12.424  -8.974  0.00  0.00    -0.380 N 
ATOM     28  C   UNL     1      -0.165 -11.825  -7.791  0.00  0.00    +0.144 C 
ATOM     29  H   UNL     1      -0.008 -12.788  -9.741  0.00  0.00    +0.160 HD
ENDBRANCH  19  20
ENDBRANCH  18  19
ENDBRANCH  17  18
ENDBRANCH   1  17
TORSDOF 8
