REMARK  Name = ZINC48311948
REMARK  9 active torsions:
REMARK  status: ('A' for Active; 'I' for Inactive)
REMARK    1  A    between atoms: C_1  and  C_2
REMARK    2  A    between atoms: N_7  and  C_9
REMARK    3  A    between atoms: C_9  and  C_10
REMARK    4  A    between atoms: C_15  and  C_16
REMARK    5  A    between atoms: C_16  and  N_17
REMARK    6  A    between atoms: C_18  and  C_20
REMARK    7  A    between atoms: C_20  and  O_21
REMARK    8  A    between atoms: O_21  and  C_22
REMARK    9  A    between atoms: C_25  and  C_28
REMARK                            x       y       z     vdW  Elec       q    Type
REMARK                         _______ _______ _______ _____ _____    ______ ____
ROOT
ATOM      1  N   UNL     1       4.527  -3.586   1.870  0.00  0.00    -0.308 N 
ATOM      2  C   UNL     1       5.645  -2.996   1.403  0.00  0.00    +0.251 C 
ATOM      3  O   UNL     1       5.738  -2.719   0.226  0.00  0.00    -0.272 OA
ATOM      4  H   UNL     1       4.453  -3.807   2.812  0.00  0.00    +0.149 HD
ENDROOT
BRANCH   1   5
ATOM      5  C   UNL     1       3.424  -3.893   0.957  0.00  0.00    +0.139 C 
BRANCH   5  11
ATOM      6  C   UNL     1       1.396  -3.539   2.381  0.00  0.00    -0.059 A 
ATOM      7  C   UNL     1       0.317  -4.022   3.098  0.00  0.00    +0.002 A 
ATOM      8  C   UNL     1       0.097  -5.384   3.182  0.00  0.00    +0.000 A 
ATOM      9  C   UNL     1       0.955  -6.263   2.549  0.00  0.00    +0.000 A 
ATOM     10  C   UNL     1       2.033  -5.781   1.831  0.00  0.00    +0.005 A 
ATOM     11  C   UNL     1       2.251  -4.419   1.744  0.00  0.00    -0.029 A 
BRANCH   6  12
ATOM     12  C   UNL     1       1.637  -2.055   2.289  0.00  0.00    -0.043 C 
BRANCH  12  18
ATOM     13  C   UNL     1       4.469   1.621   3.848  0.00  0.00    +0.005 C 
ATOM     14  C   UNL     1       4.116   0.146   4.048  0.00  0.00    -0.031 C 
ATOM     15  C   UNL     1       3.640  -0.075   5.486  0.00  0.00    -0.001 C 
ATOM     16  C   UNL     1       3.215  -1.537   5.654  0.00  0.00    -0.018 C 
ATOM     17  C   UNL     1       2.130  -1.868   4.627  0.00  0.00    -0.078 C 
ATOM     18  N   UNL     1       2.655  -1.662   3.272  0.00  0.00    +0.383 N 
ATOM     19  C   UNL     1       2.998  -0.247   3.079  0.00  0.00    -0.075 C 
ATOM     20  H   UNL     1       3.481  -2.227   3.142  0.00  0.00    -0.081 HD
ENDBRANCH  12  18
ENDBRANCH   6  12
ENDBRANCH   5  11
ENDBRANCH   1   5
BRANCH   2  21
ATOM     21  C   UNL     1       6.780  -2.680   2.343  0.00  0.00    +0.324 C 
BRANCH  21  22
ATOM     22  O   UNL     1       7.843  -2.062   1.615  0.00  0.00    -0.483 OA
BRANCH  22  23
ATOM     23  C   UNL     1       8.949  -1.712   2.319  0.00  0.00    +0.121 A 
ATOM     24  C   UNL     1       9.011  -1.964   3.685  0.00  0.00    +0.046 A 
ATOM     25  C   UNL     1      10.131  -1.611   4.402  0.00  0.00    +0.016 A 
ATOM     26  C   UNL     1      11.208  -0.998   3.756  0.00  0.00    +0.037 A 
ATOM     27  C   UNL     1      11.143  -0.746   2.383  0.00  0.00    +0.016 A 
ATOM     28  C   UNL     1      10.020  -1.107   1.672  0.00  0.00    +0.046 A 
BRANCH  26  29
ATOM     29  C   UNL     1      12.411  -0.616   4.522  0.00  0.00    +0.242 C 
ATOM     30  O   UNL     1      12.466  -0.835   5.717  0.00  0.00    -0.270 OA
ATOM     31  N   UNL     1      13.448  -0.025   3.897  0.00  0.00    -0.325 N 
ATOM     32  H   UNL     1      13.404   0.150   2.944  0.00  0.00    +0.145 HD
ATOM     33  H   UNL     1      14.239   0.226   4.400  0.00  0.00    +0.145 HD
ENDBRANCH  26  29
ENDBRANCH  22  23
ENDBRANCH  21  22
ENDBRANCH   2  21
TORSDOF 8
