REMARK  Name = ZINC39126559
REMARK  8 active torsions:
REMARK  status: ('A' for Active; 'I' for Inactive)
REMARK    1  A    between atoms: C_1  and  C_2
REMARK    2  A    between atoms: C_2  and  C_3
REMARK    3  A    between atoms: C_2  and  C_4
REMARK    4  A    between atoms: C_2  and  N_5
REMARK    5  A    between atoms: N_5  and  C_6
REMARK    6  A    between atoms: C_7  and  C_24
REMARK    7  A    between atoms: C_8  and  C_22
REMARK    8  A    between atoms: C_10  and  C_13
REMARK                            x       y       z     vdW  Elec       q    Type
REMARK                         _______ _______ _______ _____ _____    ______ ____
ROOT
ATOM      1  C   UNL     1       2.005  -0.123  -1.433  0.00  0.00    +0.186 C 
ATOM      2  C   UNL     1       2.701  -0.512  -2.517  0.00  0.00    +0.037 C 
ATOM      3  C   UNL     1       4.087   0.099  -2.398  0.00  0.00    +0.172 C 
ATOM      4  C   UNL     1       3.867   1.169  -1.302  0.00  0.00    +0.228 C 
ATOM      5  O   UNL     1       2.726   0.653  -0.595  0.00  0.00    -0.469 OA
ENDROOT
BRANCH   4   6
ATOM      6  C   UNL     1       5.069   1.267  -0.399  0.00  0.00    +0.019 A 
ATOM      7  C   UNL     1       6.274   2.066  -0.634  0.00  0.00    +0.006 A 
ATOM      8  C   UNL     1       6.687   2.920  -1.659  0.00  0.00    +0.010 A 
ATOM      9  C   UNL     1       7.905   3.534  -1.581  0.00  0.00    +0.001 A 
ATOM     10  C   UNL     1       8.736   3.315  -0.491  0.00  0.00    +0.002 A 
ATOM     11  C   UNL     1       8.348   2.476   0.531  0.00  0.00    +0.026 A 
ATOM     12  C   UNL     1       7.112   1.841   0.473  0.00  0.00    +0.047 A 
ATOM     13  N   UNL     1       6.454   0.970   1.311  0.00  0.00    -0.360 N 
ATOM     14  C   UNL     1       5.236   0.643   0.778  0.00  0.00    +0.091 A 
ATOM     15  H   UNL     1       6.800   0.639   2.154  0.00  0.00    +0.165 HD
ENDBRANCH   4   6
BRANCH   2  16
ATOM     16  C   UNL     1       2.212  -1.369  -3.612  0.00  0.00    -0.016 A 
ATOM     17  C   UNL     1       2.774  -2.631  -3.820  0.00  0.00    +0.009 A 
ATOM     18  C   UNL     1       2.311  -3.428  -4.847  0.00  0.00    +0.016 A 
ATOM     19  C   UNL     1       1.292  -2.979  -5.670  0.00  0.00    +0.018 A 
ATOM     20  C   UNL     1       0.731  -1.729  -5.470  0.00  0.00    +0.016 A 
ATOM     21  C   UNL     1       1.179  -0.925  -4.443  0.00  0.00    +0.009 A 
ATOM     22 BR   UNL     1       0.665  -4.078  -7.075  0.00  0.00    -0.050 Br
ENDBRANCH   2  16
BRANCH   1  23
ATOM     23  N   UNL     1       0.688  -0.476  -1.203  0.00  0.00    -0.311 N 
ATOM     24  H   UNL     1       0.218  -1.037  -1.840  0.00  0.00    +0.149 HD
BRANCH  23  26
ATOM     25  C   UNL     1      -0.019   1.526   0.010  0.00  0.00    +0.031 C 
ATOM     26  C   UNL     1       0.002  -0.004   0.002  0.00  0.00    +0.026 C 
ATOM     27  C   UNL     1       0.742  -0.511   1.242  0.00  0.00    +0.031 C 
ATOM     28  C   UNL     1      -1.433  -0.534   0.013  0.00  0.00    +0.031 C 
ENDBRANCH  23  26
ENDBRANCH   1  23
BRANCH   3  29
ATOM     29  C   UNL     1       5.070  -0.907  -1.964  0.00  0.00    +0.075 C 
ATOM     30  N   UNL     1       5.829  -1.682  -1.628  0.00  0.00    -0.196 NA
ENDBRANCH   3  29
TORSDOF 5
