REMARK  Name = ZINC24924431
REMARK  11 active torsions:
REMARK  status: ('A' for Active; 'I' for Inactive)
REMARK    1  A    between atoms: C_1  and  C_2
REMARK    2  A    between atoms: C_5  and  C_8
REMARK    3  A    between atoms: N_14  and  C_15
REMARK    4  A    between atoms: C_15  and  C_16
REMARK    5  A    between atoms: C_16  and  C_17
REMARK    6  A    between atoms: N_19  and  C_20
REMARK    7  A    between atoms: C_20  and  C_21
REMARK    8  A    between atoms: C_21  and  C_23
REMARK    9  A    between atoms: C_21  and  N_30
REMARK   10  A    between atoms: N_30  and  C_31
REMARK   11  A    between atoms: N_30  and  C_32
REMARK                            x       y       z     vdW  Elec       q    Type
REMARK                         _______ _______ _______ _____ _____    ______ ____
ROOT
ATOM      1  C   UNL     1       1.047  -0.318  -2.031  0.00  0.00    +0.215 C 
ATOM      2  O   UNL     1       1.574   0.137  -3.024  0.00  0.00    -0.276 OA
ATOM      3  N   UNL     1       0.360   0.492  -1.202  0.00  0.00    -0.316 N 
ATOM      4  H   UNL     1      -0.118   0.080  -0.301  0.00  0.00    +0.149 HD
ENDROOT
BRANCH   1   5
ATOM      5  C   UNL     1       1.159  -1.789  -1.725  0.00  0.00    +0.117 C 
BRANCH   5   6
ATOM      6  C   UNL     1       1.984  -2.476  -2.816  0.00  0.00    +0.135 C 
BRANCH   6  13
ATOM      7  C   UNL     1       3.128  -4.513  -1.833  0.00  0.00    +0.163 A 
ATOM      8  N   UNL     1       2.881  -5.790  -1.758  0.00  0.00    -0.153 NA
ATOM      9  N   UNL     1       1.667  -6.038  -2.412  0.00  0.00    -0.254 N 
ATOM     10  H   UNL     1       1.272  -7.063  -2.470  0.00  0.00    +0.191 HD
ATOM     11  C   UNL     1       1.205  -4.856  -2.870  0.00  0.00    +0.176 A 
ATOM     12  S   UNL     1      -0.248  -4.608  -3.741  0.00  0.00    -0.011 S 
ATOM     13  N   UNL     1       2.094  -3.906  -2.518  0.00  0.00    -0.303 N 
BRANCH   7  18
ATOM     14  C   UNL     1       7.746  -1.846   0.332  0.00  0.00    +0.044 C 
ATOM     15  C   UNL     1       6.537  -2.544  -0.234  0.00  0.00    -0.050 A 
ATOM     16  C   UNL     1       6.570  -3.910  -0.455  0.00  0.00    +0.004 A 
ATOM     17  C   UNL     1       5.466  -4.555  -0.974  0.00  0.00    +0.012 A 
ATOM     18  C   UNL     1       4.315  -3.827  -1.277  0.00  0.00    +0.019 A 
ATOM     19  C   UNL     1       4.290  -2.450  -1.057  0.00  0.00    +0.012 A 
ATOM     20  C   UNL     1       5.398  -1.817  -0.532  0.00  0.00    +0.004 A 
ENDBRANCH   7  18
ENDBRANCH   6  13
ENDBRANCH   5   6
ENDBRANCH   1   5
BRANCH   3  21
ATOM     21  C   UNL     1       0.251   1.923  -1.499  0.00  0.00    +0.093 C 
BRANCH  21  22
ATOM     22  C   UNL     1      -0.657   2.591  -0.465  0.00  0.00    -0.020 C 
BRANCH  22  23
ATOM     23  C   UNL     1       0.002   2.538   0.890  0.00  0.00    -0.041 A 
ATOM     24  C   UNL     1      -0.309   1.519   1.770  0.00  0.00    +0.003 A 
ATOM     25  C   UNL     1       0.299   1.468   3.011  0.00  0.00    +0.000 A 
ATOM     26  C   UNL     1       1.210   2.442   3.376  0.00  0.00    +0.001 A 
ATOM     27  C   UNL     1       1.516   3.465   2.498  0.00  0.00    +0.020 A 
ATOM     28  C   UNL     1       0.912   3.513   1.254  0.00  0.00    +0.043 A 
ATOM     29 CL   UNL     1       1.297   4.798   0.152  0.00  0.00    -0.083 Cl
ENDBRANCH  22  23
BRANCH  22  30
ATOM     30  N   UNL     1      -1.943   1.883  -0.411  0.00  0.00    +0.382 N 
ATOM     31  C   UNL     1      -2.904   2.599   0.439  0.00  0.00    -0.096 C 
ATOM     32  C   UNL     1      -2.486   1.676  -1.760  0.00  0.00    -0.096 C 
ATOM     33  H   UNL     1      -1.766   0.894   0.037  0.00  0.00    -0.082 HD
ENDBRANCH  22  30
ENDBRANCH  21  22
ENDBRANCH   3  21
TORSDOF 8
