REMARK  Name = ZINC08847425
REMARK  7 active torsions:
REMARK  status: ('A' for Active; 'I' for Inactive)
REMARK    1  A    between atoms: C_1  and  C_2
REMARK    2  A    between atoms: C_2  and  C_4
REMARK    3  A    between atoms: C_2  and  N_16
REMARK    4  A    between atoms: N_6  and  C_7
REMARK    5  A    between atoms: C_12  and  O_13
REMARK    6  A    between atoms: O_13  and  C_14
REMARK    7  A    between atoms: C_23  and  C_26
REMARK                            x       y       z     vdW  Elec       q    Type
REMARK                         _______ _______ _______ _____ _____    ______ ____
ROOT
ATOM      1  N   UNL     1      -5.983  -0.955  -0.229  0.00  0.00    -0.287 N 
ATOM      2  C   UNL     1      -6.021  -1.828  -1.268  0.00  0.00    +0.204 A 
ATOM      3  N   UNL     1      -6.981  -2.707  -1.376  0.00  0.00    -0.230 NA
ATOM      4  C   UNL     1      -7.959  -2.768  -0.477  0.00  0.00    +0.116 A 
ATOM      5  C   UNL     1      -8.007  -1.902   0.628  0.00  0.00    +0.080 A 
ATOM      6  C   UNL     1      -6.937  -0.955   0.720  0.00  0.00    +0.263 A 
ATOM      7  O   UNL     1      -6.891  -0.161   1.644  0.00  0.00    -0.267 OA
ATOM      8  C   UNL     1      -9.144  -2.099   1.519  0.00  0.00    +0.004 A 
ATOM      9  C   UNL     1     -10.041  -3.071   1.225  0.00  0.00    +0.056 A 
ATOM     10  S   UNL     1      -9.401  -3.782  -0.279  0.00  0.00    -0.076 S 
ENDROOT
BRANCH   8  11
ATOM     11  C   UNL     1      -9.315  -1.252   2.723  0.00  0.00    -0.016 A 
ATOM     12  C   UNL     1      -8.257  -1.075   3.614  0.00  0.00    +0.009 A 
ATOM     13  C   UNL     1      -8.430  -0.283   4.727  0.00  0.00    +0.004 A 
ATOM     14  C   UNL     1      -9.651   0.332   4.979  0.00  0.00    -0.044 A 
ATOM     15  C   UNL     1     -10.700   0.159   4.103  0.00  0.00    -0.044 A 
ATOM     16  C   UNL     1     -10.535  -0.633   2.976  0.00  0.00    +0.012 A 
ATOM     17  C   UNL     1     -12.045   0.805   4.312  0.00  0.00    +0.035 C 
ATOM     18  C   UNL     1     -12.202   1.264   5.760  0.00  0.00    +0.005 C 
ATOM     19  C   UNL     1     -10.974   2.101   6.137  0.00  0.00    +0.005 C 
ATOM     20  C   UNL     1      -9.766   1.171   6.226  0.00  0.00    +0.035 C 
ENDBRANCH   8  11
BRANCH   1  22
ATOM     21  C   UNL     1      -4.886   0.898  -1.390  0.00  0.00    +0.041 C 
ATOM     22  C   UNL     1      -4.885   0.011  -0.143  0.00  0.00    +0.174 C 
BRANCH  22  23
ATOM     23  C   UNL     1      -3.574  -0.726  -0.052  0.00  0.00    +0.240 C 
ATOM     24  O   UNL     1      -3.558  -1.939  -0.059  0.00  0.00    -0.273 OA
ATOM     25  N   UNL     1      -2.418  -0.038   0.037  0.00  0.00    -0.281 N 
ATOM     26  H   UNL     1      -2.435   0.928   0.123  0.00  0.00    +0.155 HD
BRANCH  25  27
ATOM     27  C   UNL     1      -1.193  -0.717   0.004  0.00  0.00    +0.077 A 
ATOM     28  C   UNL     1      -1.103  -1.957  -0.611  0.00  0.00    +0.047 A 
ATOM     29  C   UNL     1       0.106  -2.629  -0.637  0.00  0.00    +0.043 A 
ATOM     30  C   UNL     1       1.227  -2.064  -0.054  0.00  0.00    +0.024 A 
ATOM     31  C   UNL     1       1.145  -0.826   0.555  0.00  0.00    +0.049 A 
ATOM     32  C   UNL     1      -0.063  -0.147   0.585  0.00  0.00    +0.141 A 
ATOM     33 CL   UNL     1       0.217  -4.183  -1.401  0.00  0.00    -0.083 Cl
BRANCH  32  34
ATOM     34  O   UNL     1      -0.146   1.070   1.185  0.00  0.00    -0.493 OA
ATOM     35  C   UNL     1       1.052   1.590   1.765  0.00  0.00    +0.277 C 
ENDBRANCH  32  34
ENDBRANCH  25  27
ENDBRANCH  22  23
ENDBRANCH   1  22
TORSDOF 5
