REMARK  Name = ZINC20576574
REMARK  7 active torsions:
REMARK  status: ('A' for Active; 'I' for Inactive)
REMARK    1  A    between atoms: C_1  and  C_2
REMARK    2  A    between atoms: C_5  and  C_8
REMARK    3  A    between atoms: C_8  and  C_9
REMARK    4  A    between atoms: C_9  and  N_10
REMARK    5  A    between atoms: N_10  and  C_11
REMARK    6  A    between atoms: C_11  and  C_12
REMARK    7  A    between atoms: N_25  and  C_28
REMARK                            x       y       z     vdW  Elec       q    Type
REMARK                         _______ _______ _______ _____ _____    ______ ____
ROOT
ATOM      1  C   UNL     1       1.264   1.828  -0.000  0.00  0.00    +0.039 A 
ATOM      2  C   UNL     1      -0.017   1.405   0.010  0.00  0.00    +0.024 A 
ATOM      3  C   UNL     1       0.002  -0.004   0.002  0.00  0.00    +0.020 A 
ATOM      4  C   UNL     1       1.294  -0.392  -0.012  0.00  0.00    +0.093 A 
ATOM      5  N   UNL     1       2.075   0.729  -0.014  0.00  0.00    -0.297 N 
ATOM      6  C   UNL     1       3.471   0.748  -0.027  0.00  0.00    +0.202 A 
ATOM      7  N   UNL     1       4.307   1.772  -0.035  0.00  0.00    -0.121 NA
ATOM      8  N   UNL     1       5.558   1.615  -0.041  0.00  0.00    -0.124 NA
ATOM      9  C   UNL     1       6.112   0.411  -0.053  0.00  0.00    +0.186 A 
ATOM     10  S   UNL     1       4.640  -0.608  -0.045  0.00  0.00    -0.013 S 
ATOM     11  N   UNL     1       7.452   0.045  -0.068  0.00  0.00    -0.312 N 
ATOM     12  C   UNL     1       7.769  -0.837   1.064  0.00  0.00    +0.088 C 
ATOM     13  C   UNL     1       9.231  -1.281   0.967  0.00  0.00    -0.059 C 
ATOM     14  N   UNL     1      10.101  -0.096   0.966  0.00  0.00    +0.384 N 
ATOM     15  C   UNL     1       9.783   0.786  -0.166  0.00  0.00    -0.059 C 
ATOM     16  C   UNL     1       8.321   1.230  -0.069  0.00  0.00    +0.088 C 
ATOM     17  H   UNL     1       9.915   0.463   1.894  0.00  0.00    -0.081 HD
ENDROOT
BRANCH  14  18
ATOM     18  C   UNL     1      11.518  -0.484   0.950  0.00  0.00    -0.068 C 
ATOM     19  C   UNL     1      11.829  -1.225  -0.352  0.00  0.00    -0.015 C 
ATOM     20  C   UNL     1      13.305  -1.628  -0.369  0.00  0.00    -0.002 C 
ATOM     21  C   UNL     1      13.597  -2.544   0.822  0.00  0.00    -0.000 C 
ATOM     22  C   UNL     1      13.285  -1.803   2.123  0.00  0.00    -0.002 C 
ATOM     23  C   UNL     1      11.809  -1.399   2.140  0.00  0.00    -0.015 C 
ENDBRANCH  14  18
BRANCH   1  24
ATOM     24  C   UNL     1       1.720   3.264   0.003  0.00  0.00    +0.135 C 
BRANCH  24  25
ATOM     25  N   UNL     1       1.998   3.687   1.382  0.00  0.00    -0.310 NA
ATOM     26  H   UNL     1       2.781   3.037   1.799  0.00  0.00    +0.122 HD
BRANCH  25  27
ATOM     27  C   UNL     1       2.446   5.085   1.424  0.00  0.00    +0.086 C 
BRANCH  27  28
ATOM     28  C   UNL     1       2.724   5.488   2.873  0.00  0.00    +0.050 C 
BRANCH  28  33
ATOM     29  C   UNL     1       4.490  10.988   3.039  0.00  0.00    +0.044 C 
ATOM     30  C   UNL     1       4.029   9.554   2.996  0.00  0.00    -0.050 A 
ATOM     31  C   UNL     1       2.683   9.257   3.093  0.00  0.00    +0.003 A 
ATOM     32  C   UNL     1       2.260   7.941   3.053  0.00  0.00    +0.004 A 
ATOM     33  C   UNL     1       3.185   6.922   2.916  0.00  0.00    -0.046 A 
ATOM     34  C   UNL     1       4.532   7.219   2.824  0.00  0.00    +0.004 A 
ATOM     35  C   UNL     1       4.954   8.535   2.859  0.00  0.00    +0.003 A 
ENDBRANCH  28  33
ENDBRANCH  27  28
ENDBRANCH  25  27
ENDBRANCH  24  25
ENDBRANCH   1  24
TORSDOF 6
