REMARK  Name = ZINC05883867
REMARK  10 active torsions:
REMARK  status: ('A' for Active; 'I' for Inactive)
REMARK    1  A    between atoms: C_1  and  C_2
REMARK    2  A    between atoms: C_2  and  C_3
REMARK    3  A    between atoms: C_3  and  O_4
REMARK    4  A    between atoms: O_4  and  C_5
REMARK    5  A    between atoms: C_8  and  C_11
REMARK    6  A    between atoms: C_14  and  C_25
REMARK    7  A    between atoms: C_20  and  N_24
REMARK    8  A    between atoms: C_21  and  C_22
REMARK    9  A    between atoms: C_29  and  O_31
REMARK   10  A    between atoms: O_31  and  C_32
REMARK                            x       y       z     vdW  Elec       q    Type
REMARK                         _______ _______ _______ _____ _____    ______ ____
ROOT
ATOM      1  C   UNL     1       3.405  -4.490   5.659  0.00  0.00    +0.102 C 
ATOM      2  C   UNL     1       4.423  -5.432   5.069  0.00  0.00    +0.054 A 
ATOM      3  C   UNL     1       5.633  -5.142   4.434  0.00  0.00    +0.100 A 
ATOM      4  N   UNL     1       6.190  -6.285   4.080  0.00  0.00    -0.171 NA
ATOM      5  N   UNL     1       5.346  -7.331   4.482  0.00  0.00    -0.246 N 
ATOM      6  H   UNL     1       5.509  -8.278   4.349  0.00  0.00    +0.192 HD
ATOM      7  C   UNL     1       4.269  -6.788   5.087  0.00  0.00    +0.223 A 
ATOM      8  O   UNL     1       3.190  -7.396   5.640  0.00  0.00    -0.423 OA
ATOM      9  C   UNL     1       2.385  -6.649   6.423  0.00  0.00    +0.200 C 
ATOM     10  C   UNL     1       2.434  -5.299   6.483  0.00  0.00    +0.098 C 
ENDROOT
BRANCH   1  14
ATOM     11  C   UNL     1       1.312  -2.481   2.522  0.00  0.00    +0.121 A 
ATOM     12  C   UNL     1       1.968  -1.748   3.500  0.00  0.00    +0.046 A 
ATOM     13  C   UNL     1       2.644  -2.399   4.513  0.00  0.00    +0.008 A 
ATOM     14  C   UNL     1       2.667  -3.781   4.553  0.00  0.00    -0.034 A 
ATOM     15  C   UNL     1       2.014  -4.514   3.579  0.00  0.00    +0.008 A 
ATOM     16  C   UNL     1       1.332  -3.867   2.567  0.00  0.00    +0.046 A 
BRANCH  11  17
ATOM     17  O   UNL     1       0.646  -1.841   1.524  0.00  0.00    -0.492 OA
BRANCH  17  18
ATOM     18  C   UNL     1       0.668  -0.413   1.541  0.00  0.00    +0.229 C 
BRANCH  18  20
ATOM     19  C   UNL     1      -0.105   1.653   0.368  0.00  0.00    +0.007 C 
ATOM     20  C   UNL     1      -0.129   0.123   0.350  0.00  0.00    +0.038 C 
ENDBRANCH  18  20
ENDBRANCH  17  18
ENDBRANCH  11  17
ENDBRANCH   1  14
BRANCH   3  21
ATOM     21  C   UNL     1       6.194  -3.788   4.199  0.00  0.00    +0.006 A 
ATOM     22  C   UNL     1       6.131  -2.822   5.202  0.00  0.00    +0.010 A 
ATOM     23  C   UNL     1       6.653  -1.563   4.981  0.00  0.00    +0.004 A 
ATOM     24  C   UNL     1       7.239  -1.257   3.767  0.00  0.00    +0.045 A 
ATOM     25  C   UNL     1       7.304  -2.213   2.763  0.00  0.00    +0.121 A 
ATOM     26  C   UNL     1       6.788  -3.481   2.978  0.00  0.00    +0.055 A 
BRANCH  25  27
ATOM     27  O   UNL     1       7.880  -1.907   1.570  0.00  0.00    -0.495 OA
ATOM     28  C   UNL     1       8.396  -0.584   1.419  0.00  0.00    +0.277 C 
ENDBRANCH  25  27
ENDBRANCH   3  21
BRANCH   9  29
ATOM     29  N   UNL     1       1.463  -7.297   7.207  0.00  0.00    -0.328 N 
ATOM     30  H   UNL     1       1.404  -8.265   7.187  0.00  0.00    +0.145 HD
ATOM     31  H   UNL     1       0.870  -6.787   7.781  0.00  0.00    +0.145 HD
ENDBRANCH   9  29
BRANCH  10  32
ATOM     32  C   UNL     1       1.532  -4.612   7.358  0.00  0.00    +0.101 C 
ATOM     33  N   UNL     1       0.817  -4.067   8.052  0.00  0.00    -0.191 NA
ENDBRANCH  10  32
TORSDOF 8
