REMARK  Name = ZINC59153065
REMARK  4 active torsions:
REMARK  status: ('A' for Active; 'I' for Inactive)
REMARK    1  A    between atoms: C_10  and  C_11
REMARK    2  A    between atoms: C_11  and  N_12
REMARK    3  A    between atoms: N_20  and  N_21
REMARK    4  A    between atoms: C_22  and  C_24
REMARK                            x       y       z     vdW  Elec       q    Type
REMARK                         _______ _______ _______ _____ _____    ______ ____
ROOT
ATOM      1  N   UNL     1       5.328   0.507   1.329  0.00  0.00    -0.261 N 
ATOM      2  C   UNL     1       4.903   1.656   1.988  0.00  0.00    +0.046 A 
ATOM      3  C   UNL     1       4.088   2.707   1.580  0.00  0.00    +0.024 A 
ATOM      4  C   UNL     1       3.816   3.748   2.444  0.00  0.00    +0.002 A 
ATOM      5  C   UNL     1       4.347   3.760   3.723  0.00  0.00    +0.001 A 
ATOM      6  C   UNL     1       5.158   2.726   4.146  0.00  0.00    +0.012 A 
ATOM      7  C   UNL     1       5.438   1.672   3.282  0.00  0.00    +0.028 A 
ATOM      8  C   UNL     1       6.248   0.440   3.416  0.00  0.00    +0.153 C 
ATOM      9  N   UNL     1       6.931   0.042   4.462  0.00  0.00    -0.174 NA
ATOM     10  C   UNL     1       6.114  -0.248   2.116  0.00  0.00    +0.272 C 
ATOM     11  O   UNL     1       6.626  -1.308   1.810  0.00  0.00    -0.268 OA
ENDROOT
BRANCH   9  12
ATOM     12  N   UNL     1       7.648  -1.161   4.416  0.00  0.00    -0.201 N 
ATOM     13  C   UNL     1       8.350  -1.569   5.492  0.00  0.00    +0.288 C 
ATOM     14  O   UNL     1       8.361  -0.894   6.502  0.00  0.00    -0.266 OA
ATOM     15  H   UNL     1       7.638  -1.700   3.610  0.00  0.00    +0.178 HD
BRANCH  13  16
ATOM     16  C   UNL     1       9.105  -2.837   5.442  0.00  0.00    +0.166 A 
ATOM     17  N   UNL     1       9.218  -3.693   4.450  0.00  0.00    -0.234 NA
ATOM     18  C   UNL     1       9.940  -4.814   4.540  0.00  0.00    +0.079 A 
ATOM     19  C   UNL     1      10.140  -5.810   3.550  0.00  0.00    +0.029 A 
ATOM     20  C   UNL     1      10.910  -6.899   3.804  0.00  0.00    +0.002 A 
ATOM     21  C   UNL     1      11.531  -7.085   5.034  0.00  0.00    +0.001 A 
ATOM     22  C   UNL     1      11.365  -6.140   6.027  0.00  0.00    +0.017 A 
ATOM     23  C   UNL     1      10.587  -5.032   5.783  0.00  0.00    +0.040 A 
ATOM     24  S   UNL     1      10.105  -3.598   6.714  0.00  0.00    -0.063 S 
ENDBRANCH  13  16
ENDBRANCH   9  12
BRANCH   1  25
ATOM     25  C   UNL     1       4.960   0.161  -0.046  0.00  0.00    +0.149 C 
BRANCH  25  35
ATOM     26  C   UNL     1       5.885  -0.287  -5.060  0.00  0.00    +0.001 A 
ATOM     27  C   UNL     1       4.885  -0.743  -4.203  0.00  0.00    +0.001 A 
ATOM     28  C   UNL     1       4.914  -0.451  -2.874  0.00  0.00    +0.009 A 
ATOM     29  C   UNL     1       5.968   0.321  -2.355  0.00  0.00    -0.013 A 
ATOM     30  C   UNL     1       6.986   0.783  -3.227  0.00  0.00    -0.018 A 
ATOM     31  C   UNL     1       6.921   0.462  -4.593  0.00  0.00    +0.008 A 
ATOM     32  C   UNL     1       8.039   1.554  -2.708  0.00  0.00    +0.008 A 
ATOM     33  C   UNL     1       8.069   1.846  -1.378  0.00  0.00    +0.001 A 
ATOM     34  C   UNL     1       7.069   1.391  -0.522  0.00  0.00    +0.006 A 
ATOM     35  C   UNL     1       6.033   0.642  -0.989  0.00  0.00    -0.022 A 
ENDBRANCH  25  35
ENDBRANCH   1  25
TORSDOF 4
