REMARK  Name = ZINC20410746
REMARK  7 active torsions:
REMARK  status: ('A' for Active; 'I' for Inactive)
REMARK    1  A    between atoms: C_1  and  N_2
REMARK    2  A    between atoms: C_9  and  O_32
REMARK    3  A    between atoms: C_11  and  C_13
REMARK    4  A    between atoms: C_13  and  N_14
REMARK    5  A    between atoms: N_14  and  C_15
REMARK    6  A    between atoms: N_22  and  C_25
REMARK    7  A    between atoms: O_32  and  C_33
REMARK                            x       y       z     vdW  Elec       q    Type
REMARK                         _______ _______ _______ _____ _____    ______ ____
ROOT
ATOM      1  N   UNL     1      -1.205  -0.670   2.496  0.00  0.00    -0.347 N 
ATOM      2  H   UNL     1      -1.524  -1.250   1.787  0.00  0.00    +0.146 HD
ENDROOT
BRANCH   1   3
ATOM      3  C   UNL     1      -2.006  -0.381   3.542  0.00  0.00    +0.086 C 
ATOM      4  C   UNL     1      -3.314  -0.824   3.554  0.00  0.00    +0.113 C 
ATOM      5  C   UNL     1      -4.256  -0.415   4.612  0.00  0.00    +0.256 C 
ATOM      6  O   UNL     1      -3.904   0.329   5.508  0.00  0.00    -0.270 OA
ATOM      7  N   UNL     1      -5.518  -0.887   4.559  0.00  0.00    -0.263 N 
ATOM      8  C   UNL     1      -5.920  -1.706   3.578  0.00  0.00    +0.151 C 
ATOM      9  S   UNL     1      -7.541  -2.255   3.592  0.00  0.00    -0.018 S 
ATOM     10  N   UNL     1      -5.119  -2.119   2.585  0.00  0.00    -0.215 N 
ATOM     11  C   UNL     1      -3.832  -1.722   2.506  0.00  0.00    +0.263 C 
ATOM     12  O   UNL     1      -3.116  -2.100   1.597  0.00  0.00    -0.269 OA
ATOM     13  H   UNL     1      -6.150  -0.627   5.248  0.00  0.00    +0.157 HD
BRANCH  10  14
ATOM     14  C   UNL     1      -5.632  -2.978   1.603  0.00  0.00    +0.078 A 
ATOM     15  C   UNL     1      -6.209  -2.454   0.454  0.00  0.00    +0.027 A 
ATOM     16  C   UNL     1      -6.714  -3.302  -0.512  0.00  0.00    +0.002 A 
ATOM     17  C   UNL     1      -6.646  -4.672  -0.337  0.00  0.00    +0.003 A 
ATOM     18  C   UNL     1      -6.073  -5.199   0.806  0.00  0.00    +0.040 A 
ATOM     19  C   UNL     1      -5.559  -4.355   1.774  0.00  0.00    +0.145 A 
ATOM     20  F   UNL     1      -4.993  -4.869   2.888  0.00  0.00    -0.204 F 
ENDBRANCH  10  14
ENDBRANCH   1   3
BRANCH   1  21
ATOM     21  C   UNL     1       0.146  -0.107   2.430  0.00  0.00    +0.124 C 
BRANCH  21  32
ATOM     22  C   UNL     1      -0.079   1.494   0.014  0.00  0.00    +0.105 C 
ATOM     23  N   UNL     1      -0.033   0.026  -0.004  0.00  0.00    -0.297 NA
ATOM     24  C   UNL     1       0.473  -0.470  -1.293  0.00  0.00    +0.089 C 
ATOM     25  C   UNL     1       0.160  -1.963  -1.396  0.00  0.00    +0.051 C 
ATOM     26  C   UNL     1       0.624  -2.673  -0.150  0.00  0.00    -0.034 A 
ATOM     27  C   UNL     1       0.759  -4.053  -0.189  0.00  0.00    +0.053 A 
ATOM     28  C   UNL     1       1.179  -4.750   0.931  0.00  0.00    +0.170 A 
ATOM     29  C   UNL     1       1.467  -4.061   2.104  0.00  0.00    +0.208 A 
ATOM     30  C   UNL     1       1.332  -2.680   2.140  0.00  0.00    +0.170 A 
ATOM     31  C   UNL     1       0.913  -1.985   1.010  0.00  0.00    +0.020 A 
ATOM     32  C   UNL     1       0.791  -0.486   1.095  0.00  0.00    +0.107 C 
ATOM     33  O   UNL     1       1.855  -4.961   3.056  0.00  0.00    -0.449 OA
ATOM     34  C   UNL     1       1.411  -6.243   2.575  0.00  0.00    +0.467 C 
ATOM     35  O   UNL     1       1.388  -6.082   1.145  0.00  0.00    -0.452 OA
BRANCH  30  36
ATOM     36  O   UNL     1       1.613  -2.003   3.285  0.00  0.00    -0.491 OA
ATOM     37  C   UNL     1       2.958  -1.552   3.459  0.00  0.00    +0.277 C 
ENDBRANCH  30  36
ENDBRANCH  21  32
ENDBRANCH   1  21
TORSDOF 5
