REMARK  Name = ZINC65562154
REMARK  7 active torsions:
REMARK  status: ('A' for Active; 'I' for Inactive)
REMARK    1  A    between atoms: C_5  and  C_7
REMARK    2  A    between atoms: C_10  and  C_12
REMARK    3  A    between atoms: N_14  and  C_15
REMARK    4  A    between atoms: C_15  and  C_16
REMARK    5  A    between atoms: C_16  and  C_17
REMARK    6  A    between atoms: C_17  and  S_18
REMARK    7  A    between atoms: S_18  and  N_21
REMARK                            x       y       z     vdW  Elec       q    Type
REMARK                         _______ _______ _______ _____ _____    ______ ____
ROOT
ATOM      1  C   UNL     1       1.955  -6.173  -0.805  0.00  0.00    +0.251 C 
ATOM      2  O   UNL     1       1.477  -7.123  -0.214  0.00  0.00    -0.270 OA
ATOM      3  N   UNL     1       2.809  -6.376  -1.829  0.00  0.00    -0.311 N 
ATOM      4  H   UNL     1       3.190  -5.619  -2.300  0.00  0.00    +0.149 HD
ENDROOT
BRANCH   1   8
ATOM      5  C   UNL     1       1.249  -2.160  -0.022  0.00  0.00    +0.023 A 
ATOM      6  C   UNL     1       0.576  -3.048   0.802  0.00  0.00    +0.017 A 
ATOM      7  C   UNL     1       0.755  -4.389   0.609  0.00  0.00    +0.021 A 
ATOM      8  C   UNL     1       1.604  -4.808  -0.405  0.00  0.00    +0.074 A 
ATOM      9  S   UNL     1       2.151  -3.259  -1.102  0.00  0.00    -0.084 S 
BRANCH   5  14
ATOM     10  C   UNL     1      -0.017   1.375   0.010  0.00  0.00    +0.001 A 
ATOM     11  C   UNL     1       1.170   2.087   0.002  0.00  0.00    +0.003 A 
ATOM     12  C   UNL     1       2.383   1.424  -0.013  0.00  0.00    +0.039 A 
ATOM     13  C   UNL     1       2.417   0.042  -0.021  0.00  0.00    +0.132 A 
ATOM     14  C   UNL     1       1.222  -0.683  -0.013  0.00  0.00    +0.024 A 
ATOM     15  C   UNL     1       0.002  -0.004   0.002  0.00  0.00    +0.012 A 
ATOM     16  F   UNL     1       3.603  -0.606  -0.037  0.00  0.00    -0.205 F 
ENDBRANCH   5  14
ENDBRANCH   1   8
BRANCH   3  17
ATOM     17  C   UNL     1       3.160  -7.741  -2.229  0.00  0.00    +0.106 C 
BRANCH  17  18
ATOM     18  C   UNL     1       4.137  -7.691  -3.406  0.00  0.00    +0.043 C 
BRANCH  18  19
ATOM     19  C   UNL     1       4.504  -9.116  -3.824  0.00  0.00    +0.186 C 
BRANCH  19  20
ATOM     20  S   UNL     1       5.663  -9.058  -5.219  0.00  0.00    +0.027 S 
ATOM     21  O   UNL     1       5.011  -8.550  -6.375  0.00  0.00    -0.158 OA
ATOM     22  O   UNL     1       6.910  -8.524  -4.797  0.00  0.00    -0.158 OA
BRANCH  20  23
ATOM     23  N   UNL     1       5.980 -10.643  -5.575  0.00  0.00    -0.208 NA
ATOM     24  H   UNL     1       6.194 -10.903  -6.485  0.00  0.00    +0.144 HD
ATOM     25  H   UNL     1       5.953 -11.313  -4.873  0.00  0.00    +0.144 HD
ENDBRANCH  20  23
ENDBRANCH  19  20
ENDBRANCH  18  19
ENDBRANCH  17  18
ENDBRANCH   3  17
TORSDOF 7
