REMARK  Name = ZINC11866662
REMARK  6 active torsions:
REMARK  status: ('A' for Active; 'I' for Inactive)
REMARK    1  A    between atoms: C_3  and  C_8
REMARK    2  A    between atoms: N_12  and  C_16
REMARK    3  A    between atoms: C_16  and  C_17
REMARK    4  A    between atoms: N_19  and  C_20
REMARK    5  A    between atoms: C_23  and  N_27
REMARK    6  A    between atoms: C_25  and  O_26
REMARK                            x       y       z     vdW  Elec       q    Type
REMARK                         _______ _______ _______ _____ _____    ______ ____
ROOT
ATOM      1  C   UNL     1      -5.663   4.917   0.344  0.00  0.00    +0.211 C 
ENDROOT
BRANCH   1   6
ATOM      2  C   UNL     1      -2.980   0.752   0.083  0.00  0.00    +0.028 C 
ATOM      3  C   UNL     1      -4.095   1.516   0.198  0.00  0.00    +0.077 C 
ATOM      4  C   UNL     1      -4.233   2.988   0.203  0.00  0.00    +0.259 C 
ATOM      5  O   UNL     1      -3.268   3.721   0.095  0.00  0.00    -0.269 OA
ATOM      6  N   UNL     1      -5.459   3.466   0.331  0.00  0.00    -0.246 N 
ATOM      7  C   UNL     1      -6.525   2.650   0.451  0.00  0.00    +0.121 C 
ATOM      8  S   UNL     1      -8.175   3.075   0.624  0.00  0.00    -0.027 S 
ATOM      9  S   UNL     1      -5.803   1.019   0.376  0.00  0.00    -0.061 S 
BRANCH   2  12
ATOM     10  C   UNL     1       0.618   1.490  -0.674  0.00  0.00    +0.002 A 
ATOM     11  C   UNL     1      -0.624   0.890  -0.701  0.00  0.00    +0.008 A 
ATOM     12  C   UNL     1      -1.652   1.382   0.111  0.00  0.00    -0.023 A 
ATOM     13  C   UNL     1      -1.408   2.474   0.951  0.00  0.00    +0.023 A 
ATOM     14  C   UNL     1      -0.161   3.062   0.967  0.00  0.00    +0.018 A 
ATOM     15  C   UNL     1       0.850   2.572   0.157  0.00  0.00    +0.015 A 
ATOM     16 BR   UNL     1       0.170   4.543   2.096  0.00  0.00    -0.050 Br
ENDBRANCH   2  12
ENDBRANCH   1   6
BRANCH   1  17
ATOM     17  C   UNL     1      -5.884   5.406  -1.064  0.00  0.00    +0.235 C 
ATOM     18  O   UNL     1      -5.872   4.620  -1.988  0.00  0.00    -0.274 OA
ATOM     19  N   UNL     1      -6.095   6.717  -1.297  0.00  0.00    -0.281 N 
ATOM     20  H   UNL     1      -6.019   7.356  -0.572  0.00  0.00    +0.155 HD
BRANCH  19  21
ATOM     21  C   UNL     1      -6.423   7.155  -2.587  0.00  0.00    +0.076 A 
ATOM     22  C   UNL     1      -6.923   6.259  -3.519  0.00  0.00    +0.029 A 
ATOM     23  C   UNL     1      -7.250   6.694  -4.790  0.00  0.00    +0.035 A 
ATOM     24  C   UNL     1      -7.071   8.021  -5.137  0.00  0.00    +0.130 A 
ATOM     25  C   UNL     1      -6.568   8.919  -4.214  0.00  0.00    +0.080 A 
ATOM     26  C   UNL     1      -6.242   8.491  -2.937  0.00  0.00    +0.140 A 
BRANCH  24  27
ATOM     27  N   UNL     1      -7.418   8.480  -6.500  0.00  0.00    +0.057 N 
ATOM     28  O   UNL     1      -7.260   9.648  -6.808  0.00  0.00    -0.126 OA
ATOM     29  O   UNL     1      -7.862   7.690  -7.315  0.00  0.00    -0.126 OA
ENDBRANCH  24  27
BRANCH  26  30
ATOM     30  O   UNL     1      -5.746   9.373  -2.029  0.00  0.00    -0.505 OA
ATOM     31  H   UNL     1      -4.782   9.446  -2.037  0.00  0.00    +0.292 HD
ENDBRANCH  26  30
ENDBRANCH  19  21
ENDBRANCH   1  17
TORSDOF 6
