REMARK  Name = ZINC01374905
REMARK  16 active torsions:
REMARK  status: ('A' for Active; 'I' for Inactive)
REMARK    1  A    between atoms: C_1  and  C_2
REMARK    2  A    between atoms: C_2  and  C_3
REMARK    3  A    between atoms: C_3  and  C_5
REMARK    4  A    between atoms: C_3  and  N_14
REMARK    5  A    between atoms: N_9  and  C_10
REMARK    6  A    between atoms: C_10  and  C_11
REMARK    7  A    between atoms: C_10  and  C_12
REMARK    8  A    between atoms: C_10  and  C_13
REMARK    9  A    between atoms: N_14  and  C_15
REMARK   10  A    between atoms: N_14  and  C_22
REMARK   11  A    between atoms: C_15  and  C_16
REMARK   12  A    between atoms: C_22  and  C_23
REMARK   13  A    between atoms: C_27  and  O_37
REMARK   14  A    between atoms: C_28  and  O_35
REMARK   15  A    between atoms: O_35  and  C_36
REMARK   16  A    between atoms: O_37  and  C_38
REMARK                            x       y       z     vdW  Elec       q    Type
REMARK                         _______ _______ _______ _____ _____    ______ ____
ROOT
ATOM      1  N   UNL     1       2.214   0.458  -1.668  0.00  0.00    -0.284 NA
ENDROOT
BRANCH   1   2
ATOM      2  C   UNL     1       0.901   0.141  -1.091  0.00  0.00    +0.127 C 
BRANCH   2   3
ATOM      3  C   UNL     1      -0.137   1.072  -1.663  0.00  0.00    +0.169 A 
ATOM      4  N   UNL     1      -0.209   1.498  -2.900  0.00  0.00    -0.112 NA
ATOM      5  N   UNL     1      -1.233   2.274  -2.995  0.00  0.00    -0.023 NA
ATOM      6  N   UNL     1      -1.816   2.354  -1.850  0.00  0.00    -0.043 NA
ATOM      7  N   UNL     1      -1.173   1.622  -1.004  0.00  0.00    -0.222 N 
BRANCH   7   8
ATOM      8  C   UNL     1      -1.507   1.430   0.410  0.00  0.00    +0.059 C 
ATOM      9  C   UNL     1      -0.424   2.070   1.281  0.00  0.00    +0.036 C 
ATOM     10  C   UNL     1      -2.856   2.086   0.710  0.00  0.00    +0.036 C 
ATOM     11  C   UNL     1      -1.588  -0.067   0.715  0.00  0.00    +0.036 C 
ENDBRANCH   7   8
ENDBRANCH   2   3
BRANCH   2  13
ATOM     12  C   UNL     1       1.542  -2.254  -0.782  0.00  0.00    +0.006 C 
ATOM     13  C   UNL     1       0.531  -1.305  -1.428  0.00  0.00    +0.023 C 
ENDBRANCH   2  13
ENDBRANCH   1   2
BRANCH   1  14
ATOM     14  C   UNL     1       2.427  -0.272  -2.925  0.00  0.00    +0.120 C 
BRANCH  14  15
ATOM     15  C   UNL     1       1.614   0.367  -4.021  0.00  0.00    -0.033 A 
ATOM     16  C   UNL     1       0.562  -0.323  -4.594  0.00  0.00    +0.005 A 
ATOM     17  C   UNL     1      -0.184   0.264  -5.599  0.00  0.00    +0.000 A 
ATOM     18  C   UNL     1       0.122   1.541  -6.031  0.00  0.00    +0.000 A 
ATOM     19  C   UNL     1       1.173   2.231  -5.457  0.00  0.00    +0.000 A 
ATOM     20  C   UNL     1       1.916   1.646  -4.449  0.00  0.00    +0.005 A 
ENDBRANCH  14  15
ENDBRANCH   1  14
BRANCH   1  21
ATOM     21  C   UNL     1       3.292   0.179  -0.709  0.00  0.00    +0.126 C 
BRANCH  21  22
ATOM     22  C   UNL     1       3.288   1.232   0.370  0.00  0.00    +0.031 A 
ATOM     23  C   UNL     1       2.680   0.981   1.557  0.00  0.00    +0.020 A 
ATOM     24  C   UNL     1       2.694   2.022   2.584  0.00  0.00    +0.003 A 
ATOM     25  C   UNL     1       2.082   1.817   3.828  0.00  0.00    +0.059 A 
ATOM     26  C   UNL     1       2.113   2.817   4.774  0.00  0.00    +0.162 A 
ATOM     27  C   UNL     1       2.751   4.031   4.498  0.00  0.00    +0.163 A 
ATOM     28  C   UNL     1       3.357   4.243   3.274  0.00  0.00    +0.075 A 
ATOM     29  C   UNL     1       3.335   3.244   2.308  0.00  0.00    +0.053 A 
ATOM     30  N   UNL     1       3.936   3.436   1.080  0.00  0.00    -0.322 N 
ATOM     31  H   UNL     1       4.377   4.279   0.890  0.00  0.00    +0.169 HD
ATOM     32  C   UNL     1       3.921   2.470   0.144  0.00  0.00    +0.254 A 
ATOM     33  O   UNL     1       4.466   2.673  -0.927  0.00  0.00    -0.268 OA
BRANCH  27  34
ATOM     34  O   UNL     1       2.774   5.010   5.439  0.00  0.00    -0.491 OA
ATOM     35  C   UNL     1       3.441   6.226   5.095  0.00  0.00    +0.277 C 
ENDBRANCH  27  34
BRANCH  26  36
ATOM     36  O   UNL     1       1.520   2.624   5.983  0.00  0.00    -0.491 OA
ATOM     37  C   UNL     1       0.886   1.362   6.200  0.00  0.00    +0.277 C 
ENDBRANCH  26  36
ENDBRANCH  21  22
ENDBRANCH   1  21
TORSDOF 10
