REMARK  Name = ZINC14984227
REMARK  8 active torsions:
REMARK  status: ('A' for Active; 'I' for Inactive)
REMARK    1  A    between atoms: C_1  and  N_2
REMARK    2  A    between atoms: N_2  and  C_3
REMARK    3  A    between atoms: N_2  and  C_4
REMARK    4  A    between atoms: C_4  and  C_5
REMARK    5  A    between atoms: C_5  and  N_6
REMARK    6  A    between atoms: C_17  and  N_21
REMARK    7  A    between atoms: N_21  and  C_22
REMARK    8  A    between atoms: C_22  and  C_23
REMARK                            x       y       z     vdW  Elec       q    Type
REMARK                         _______ _______ _______ _____ _____    ______ ____
ROOT
ATOM      1  N   UNL     1       1.434   5.617  -1.115  0.00  0.00    -0.301 N 
ATOM      2  C   UNL     1       2.769   5.837  -1.045  0.00  0.00    +0.203 A 
ATOM      3  N   UNL     1       3.628   4.915  -0.667  0.00  0.00    -0.230 NA
ATOM      4  C   UNL     1       3.140   3.721  -0.346  0.00  0.00    +0.116 A 
ATOM      5  C   UNL     1       1.767   3.394  -0.387  0.00  0.00    +0.076 A 
ATOM      6  C   UNL     1       0.863   4.429  -0.805  0.00  0.00    +0.262 A 
ATOM      7  O   UNL     1      -0.340   4.250  -0.874  0.00  0.00    -0.267 OA
ATOM      8  C   UNL     1       1.418   2.039  -0.001  0.00  0.00    -0.023 A 
ATOM      9  C   UNL     1       2.442   1.228   0.358  0.00  0.00    -0.003 A 
ATOM     10  S   UNL     1       3.902   2.225   0.199  0.00  0.00    -0.073 S 
ATOM     11  C   UNL     1       2.356  -0.202   0.795  0.00  0.00    +0.061 C 
ATOM     12  C   UNL     1       0.893  -0.519   1.137  0.00  0.00    +0.059 C 
ATOM     13  C   UNL     1       0.002  -0.004   0.002  0.00  0.00    +0.024 C 
ATOM     14  C   UNL     1      -0.019   1.524   0.010  0.00  0.00    +0.038 C 
ENDROOT
BRANCH  12  15
ATOM     15  N   UNL     1       0.723  -1.971   1.277  0.00  0.00    -0.309 NA
ATOM     16  H   UNL     1      -0.322  -2.241   1.060  0.00  0.00    +0.123 HD
BRANCH  15  17
ATOM     17  C   UNL     1       1.049  -2.410   2.640  0.00  0.00    +0.116 C 
BRANCH  17  18
ATOM     18  C   UNL     1       0.864  -3.902   2.745  0.00  0.00    -0.031 A 
ATOM     19  C   UNL     1       1.919  -4.751   2.467  0.00  0.00    +0.008 A 
ATOM     20  C   UNL     1       1.752  -6.119   2.563  0.00  0.00    +0.041 A 
ATOM     21  C   UNL     1       0.526  -6.641   2.939  0.00  0.00    +0.158 A 
ATOM     22  C   UNL     1      -0.532  -5.791   3.217  0.00  0.00    +0.159 A 
ATOM     23  C   UNL     1      -0.360  -4.420   3.125  0.00  0.00    +0.046 A 
ATOM     24  F   UNL     1      -1.730  -6.298   3.584  0.00  0.00    -0.202 F 
ATOM     25  F   UNL     1       0.361  -7.979   3.033  0.00  0.00    -0.202 F 
ENDBRANCH  17  18
ENDBRANCH  15  17
ENDBRANCH  12  15
BRANCH   1  26
ATOM     26  C   UNL     1       0.568   6.716  -1.548  0.00  0.00    +0.108 C 
BRANCH  26  27
ATOM     27  C   UNL     1       0.409   6.671  -3.069  0.00  0.00    -0.058 C 
BRANCH  27  29
ATOM     28  C   UNL     1       0.176   9.074  -3.257  0.00  0.00    -0.097 C 
ATOM     29  N   UNL     1      -0.460   7.773  -3.504  0.00  0.00    +0.377 N 
ATOM     30  C   UNL     1      -0.828   7.627  -4.918  0.00  0.00    -0.097 C 
ATOM     31  H   UNL     1      -1.383   7.730  -2.908  0.00  0.00    -0.083 HD
ENDBRANCH  27  29
ENDBRANCH  26  27
ENDBRANCH   1  26
TORSDOF 6
