REMARK  Name = ZINC19867009
REMARK  8 active torsions:
REMARK  status: ('A' for Active; 'I' for Inactive)
REMARK    1  A    between atoms: C_1  and  C_2
REMARK    2  A    between atoms: C_3  and  C_21
REMARK    3  A    between atoms: C_4  and  C_16
REMARK    4  A    between atoms: C_10  and  C_14
REMARK    5  A    between atoms: C_10  and  C_15
REMARK    6  A    between atoms: C_21  and  O_23
REMARK    7  A    between atoms: O_23  and  C_24
REMARK    8  A    between atoms: C_24  and  C_25
REMARK                            x       y       z     vdW  Elec       q    Type
REMARK                         _______ _______ _______ _____ _____    ______ ____
ROOT
ATOM      1  C   UNL     1      -2.461   0.912  -0.420  0.00  0.00    +0.061 C 
ATOM      2  C   UNL     1      -1.208   1.627   0.017  0.00  0.00    +0.016 C 
ATOM      3  C   UNL     1      -1.272   2.909   0.419  0.00  0.00    +0.066 C 
ATOM      4  C   UNL     1      -0.045   3.650   0.862  0.00  0.00    +0.099 C 
ATOM      5  C   UNL     1       1.208   2.950   0.398  0.00  0.00    +0.024 C 
ATOM      6  C   UNL     1       1.169   1.660  -0.000  0.00  0.00    +0.016 C 
ATOM      7  N   UNL     1      -0.011   0.966   0.007  0.00  0.00    -0.321 N 
ATOM      8  C   UNL     1       2.417   0.953  -0.466  0.00  0.00    +0.058 C 
ATOM      9  C   UNL     1       3.636   1.531   0.258  0.00  0.00    -0.023 C 
ATOM     10  C   UNL     1       3.705   3.034  -0.032  0.00  0.00    +0.086 C 
ATOM     11  C   UNL     1       2.412   3.674   0.395  0.00  0.00    +0.162 C 
ATOM     12  O   UNL     1       2.409   4.839   0.742  0.00  0.00    -0.292 OA
ATOM     13  C   UNL     1       3.495   1.303   1.764  0.00  0.00    +0.011 C 
ATOM     14  C   UNL     1       4.907   0.846  -0.249  0.00  0.00    +0.011 C 
ATOM     15  H   UNL     1       0.010  -0.134   0.006  0.00  0.00    +0.152 HD
ENDROOT
BRANCH   4  16
ATOM     16  C   UNL     1      -0.035   3.735   2.367  0.00  0.00    +0.002 A 
ATOM     17  C   UNL     1      -0.062   4.833   3.160  0.00  0.00    +0.012 A 
ATOM     18  C   UNL     1      -0.046   4.670   4.533  0.00  0.00    +0.008 A 
ATOM     19  C   UNL     1      -0.004   3.415   5.045  0.00  0.00    +0.045 A 
ATOM     20  S   UNL     1       0.008   2.413   3.567  0.00  0.00    -0.101 S 
ENDBRANCH   4  16
BRANCH   3  21
ATOM     21  C   UNL     1      -2.521   3.574   0.417  0.00  0.00    +0.338 C 
ATOM     22  O   UNL     1      -3.523   2.985   0.060  0.00  0.00    -0.245 OA
BRANCH  21  23
ATOM     23  O   UNL     1      -2.600   4.862   0.812  0.00  0.00    -0.457 OA
BRANCH  23  24
ATOM     24  C   UNL     1      -3.892   5.471   0.785  0.00  0.00    +0.268 C 
BRANCH  24  25
ATOM     25  C   UNL     1      -3.785   6.898   1.257  0.00  0.00    -0.010 A 
ATOM     26  C   UNL     1      -3.934   7.196   2.598  0.00  0.00    +0.007 A 
ATOM     27  C   UNL     1      -3.831   8.505   3.031  0.00  0.00    +0.000 A 
ATOM     28  C   UNL     1      -3.590   9.517   2.121  0.00  0.00    +0.000 A 
ATOM     29  C   UNL     1      -3.447   9.220   0.778  0.00  0.00    +0.000 A 
ATOM     30  C   UNL     1      -3.545   7.910   0.346  0.00  0.00    +0.007 A 
ENDBRANCH  24  25
ENDBRANCH  23  24
ENDBRANCH  21  23
ENDBRANCH   3  21
TORSDOF 5
