REMARK  Name = ZINC02407313
REMARK  7 active torsions:
REMARK  status: ('A' for Active; 'I' for Inactive)
REMARK    1  A    between atoms: C_4  and  C_7
REMARK    2  A    between atoms: C_7  and  N_52
REMARK    3  A    between atoms: C_13  and  N_17
REMARK    4  A    between atoms: C_14  and  C_15
REMARK    5  A    between atoms: C_18  and  C_20
REMARK    6  A    between atoms: C_20  and  S_21
REMARK    7  A    between atoms: S_21  and  C_22
REMARK                            x       y       z     vdW  Elec       q    Type
REMARK                         _______ _______ _______ _____ _____    ______ ____
ROOT
ATOM      1  C   UNL     1       0.002  -0.004   0.002  0.00  0.00    -0.073 C 
ATOM      2  C   UNL     1      -0.019   1.527   0.010  0.00  0.00    +0.019 C 
ATOM      3  C   UNL     1       1.423   2.022  -0.001  0.00  0.00    -0.022 A 
ATOM      4  C   UNL     1       2.430   1.184   0.338  0.00  0.00    -0.021 A 
ATOM      5  S   UNL     1       3.898   2.160   0.185  0.00  0.00    -0.079 S 
ATOM      6  C   UNL     1       3.186   3.658  -0.319  0.00  0.00    +0.090 A 
ATOM      7  C   UNL     1       1.830   3.367  -0.357  0.00  0.00    +0.083 A 
ATOM      8  C   UNL     1       2.295  -0.249   0.747  0.00  0.00    -0.035 C 
ATOM      9  N   UNL     1       0.872  -0.489   1.093  0.00  0.00    +0.386 N 
ATOM     10  H   UNL     1       0.647   0.024   1.953  0.00  0.00    -0.081 HD
ENDROOT
BRANCH   6  11
ATOM     11  N   UNL     1       3.820   4.857  -0.612  0.00  0.00    -0.278 N 
ATOM     12  C   UNL     1       5.161   4.952  -0.518  0.00  0.00    +0.228 C 
ATOM     13  O   UNL     1       5.814   3.989  -0.176  0.00  0.00    -0.275 OA
ATOM     14  H   UNL     1       3.297   5.628  -0.885  0.00  0.00    +0.155 HD
BRANCH  12  15
ATOM     15  C   UNL     1       5.848   6.255  -0.836  0.00  0.00    +0.172 C 
BRANCH  15  16
ATOM     16  S   UNL     1       7.635   6.063  -0.617  0.00  0.00    -0.089 S 
BRANCH  16  17
ATOM     17  C   UNL     1       8.171   7.686  -1.043  0.00  0.00    +0.136 A 
ATOM     18  N   UNL     1       9.393   8.169  -1.073  0.00  0.00    -0.233 NA
ATOM     19  C   UNL     1       9.659   9.447  -1.424  0.00  0.00    +0.079 A 
ATOM     20  C   UNL     1      10.918  10.087  -1.497  0.00  0.00    +0.029 A 
ATOM     21  C   UNL     1      11.014  11.402  -1.874  0.00  0.00    +0.002 A 
ATOM     22  C   UNL     1       9.889  12.147  -2.195  0.00  0.00    +0.001 A 
ATOM     23  C   UNL     1       8.642  11.553  -2.134  0.00  0.00    +0.017 A 
ATOM     24  C   UNL     1       8.536  10.237  -1.758  0.00  0.00    +0.040 A 
ATOM     25  S   UNL     1       7.193   9.093  -1.552  0.00  0.00    -0.061 S 
ENDBRANCH  16  17
ENDBRANCH  15  16
ENDBRANCH  12  15
ENDBRANCH   6  11
BRANCH   7  26
ATOM     26  C   UNL     1       0.868   4.359  -0.735  0.00  0.00    +0.102 C 
ATOM     27  N   UNL     1       0.105   5.145  -1.034  0.00  0.00    -0.191 NA
ENDBRANCH   7  26
BRANCH   9  28
ATOM     28  C   UNL     1       0.643  -1.932   1.320  0.00  0.00    -0.043 C 
BRANCH  28  32
ATOM     29  C   UNL     1       2.705  -3.118   4.868  0.00  0.00    +0.000 A 
ATOM     30  C   UNL     1       1.405  -2.654   4.946  0.00  0.00    +0.000 A 
ATOM     31  C   UNL     1       0.738  -2.270   3.798  0.00  0.00    +0.002 A 
ATOM     32  C   UNL     1       1.371  -2.350   2.571  0.00  0.00    -0.064 A 
ATOM     33  C   UNL     1       2.669  -2.820   2.493  0.00  0.00    +0.002 A 
ATOM     34  C   UNL     1       3.337  -3.199   3.642  0.00  0.00    +0.000 A 
ENDBRANCH  28  32
ENDBRANCH   9  28
TORSDOF 7
