REMARK  Name = ZINC05648307
REMARK  12 active torsions:
REMARK  status: ('A' for Active; 'I' for Inactive)
REMARK    1  A    between atoms: C_1  and  C_2
REMARK    2  A    between atoms: C_2  and  N_58
REMARK    3  A    between atoms: C_3  and  C_4
REMARK    4  A    between atoms: C_3  and  N_58
REMARK    5  A    between atoms: C_5  and  C_6
REMARK    6  A    between atoms: C_5  and  N_58
REMARK    7  A    between atoms: C_6  and  C_7
REMARK    8  A    between atoms: C_7  and  C_8
REMARK    9  A    between atoms: C_8  and  C_10
REMARK   10  A    between atoms: C_8  and  N_11
REMARK   11  A    between atoms: C_12  and  C_14
REMARK   12  A    between atoms: C_19  and  O_20
REMARK                            x       y       z     vdW  Elec       q    Type
REMARK                         _______ _______ _______ _____ _____    ______ ____
ROOT
ATOM      1  C   UNL     1       1.388   1.324  -0.869  0.00  0.00    +0.079 A 
ATOM      2  C   UNL     1       2.505   2.108  -1.155  0.00  0.00    +0.017 A 
ATOM      3  C   UNL     1       3.695   1.518  -1.538  0.00  0.00    +0.013 A 
ATOM      4  C   UNL     1       3.791   0.133  -1.642  0.00  0.00    +0.037 A 
ATOM      5  C   UNL     1       2.673  -0.671  -1.357  0.00  0.00    +0.075 A 
ATOM      6  C   UNL     1       1.468  -0.074  -0.970  0.00  0.00    +0.140 A 
ATOM      7  C   UNL     1       2.770  -2.138  -1.466  0.00  0.00    +0.198 C 
ATOM      8  O   UNL     1       1.802  -2.831  -1.219  0.00  0.00    -0.286 OA
ATOM      9  C   UNL     1       4.044  -2.765  -1.875  0.00  0.00    +0.033 A 
ATOM     10  C   UNL     1       4.143  -4.150  -1.979  0.00  0.00    +0.012 A 
ATOM     11  C   UNL     1       5.340  -4.729  -2.362  0.00  0.00    +0.001 A 
ATOM     12  C   UNL     1       6.441  -3.941  -2.643  0.00  0.00    +0.001 A 
ATOM     13  C   UNL     1       6.361  -2.563  -2.545  0.00  0.00    +0.012 A 
ATOM     14  C   UNL     1       5.164  -1.964  -2.161  0.00  0.00    +0.033 A 
ATOM     15  C   UNL     1       5.067  -0.494  -2.052  0.00  0.00    +0.195 C 
ATOM     16  O   UNL     1       6.034   0.199  -2.299  0.00  0.00    -0.287 OA
ENDROOT
BRANCH   1  18
ATOM     17  N   UNL     1       0.042   3.306  -0.370  0.00  0.00    -0.309 N 
ATOM     18  C   UNL     1       0.119   1.964  -0.467  0.00  0.00    +0.248 C 
ATOM     19  O   UNL     1      -0.856   1.280  -0.223  0.00  0.00    -0.270 OA
ATOM     20  H   UNL     1       0.820   3.852  -0.565  0.00  0.00    +0.149 HD
BRANCH  17  21
ATOM     21  C   UNL     1      -1.216   3.941   0.029  0.00  0.00    +0.070 C 
ATOM     22  C   UNL     1      -1.310   3.973   1.556  0.00  0.00    +0.028 C 
BRANCH  21  23
ATOM     23  C   UNL     1      -1.261   5.371  -0.515  0.00  0.00    +0.020 C 
BRANCH  23  24
ATOM     24  C   UNL     1      -1.293   5.334  -2.044  0.00  0.00    -0.017 C 
BRANCH  24  25
ATOM     25  C   UNL     1      -1.338   6.764  -2.587  0.00  0.00    -0.079 C 
BRANCH  25  26
ATOM     26  N   UNL     1      -1.347   6.712  -4.064  0.00  0.00    +0.379 N 
ATOM     27  H   UNL     1      -0.571   6.121  -4.382  0.00  0.00    -0.082 HD
BRANCH  26  29
ATOM     28  C   UNL     1      -3.806   6.971  -4.066  0.00  0.00    -0.017 C 
ATOM     29  C   UNL     1      -2.620   6.130  -4.542  0.00  0.00    -0.082 C 
ENDBRANCH  26  29
BRANCH  26  30
ATOM     30  C   UNL     1      -1.174   8.071  -4.619  0.00  0.00    -0.082 C 
ATOM     31  C   UNL     1      -0.823   7.956  -6.103  0.00  0.00    -0.017 C 
ENDBRANCH  26  30
ENDBRANCH  25  26
ENDBRANCH  24  25
ENDBRANCH  23  24
ENDBRANCH  21  23
ENDBRANCH  17  21
ENDBRANCH   1  18
BRANCH   6  32
ATOM     32  O   UNL     1       0.387  -0.840  -0.694  0.00  0.00    -0.505 OA
ATOM     33  H   UNL     1      -0.176  -1.015  -1.460  0.00  0.00    +0.292 HD
ENDBRANCH   6  32
TORSDOF 9
