REMARK  Name = ZINC35523319
REMARK  7 active torsions:
REMARK  status: ('A' for Active; 'I' for Inactive)
REMARK    1  A    between atoms: C_1  and  C_2
REMARK    2  A    between atoms: C_7  and  C_9
REMARK    3  A    between atoms: C_7  and  C_10
REMARK    4  A    between atoms: C_13  and  C_15
REMARK    5  A    between atoms: C_18  and  C_20
REMARK    6  A    between atoms: C_20  and  N_21
REMARK    7  A    between atoms: C_29  and  C_31
REMARK                            x       y       z     vdW  Elec       q    Type
REMARK                         _______ _______ _______ _____ _____    ______ ____
ROOT
ATOM      1  C   UNL     1       1.275  -2.378  -3.526  0.00  0.00    +0.190 A 
ATOM      2  C   UNL     1       1.644  -3.138  -4.598  0.00  0.00    +0.055 A 
ATOM      3  C   UNL     1       2.691  -2.455  -5.237  0.00  0.00    +0.043 A 
ATOM      4  C   UNL     1       2.913  -1.322  -4.535  0.00  0.00    +0.090 A 
ATOM      5  O   UNL     1       2.054  -1.276  -3.508  0.00  0.00    -0.457 OA
ENDROOT
BRANCH   1  17
ATOM      6  C   UNL     1      -0.019   1.532   0.011  0.00  0.00    +0.013 C 
ATOM      7  C   UNL     1       0.002  -0.004   0.002  0.00  0.00    -0.014 C 
ATOM      8  C   UNL     1      -1.427  -0.614  -0.023  0.00  0.00    +0.030 C 
ATOM      9  C   UNL     1      -1.088  -2.044  -0.513  0.00  0.00    +0.078 C 
ATOM     10  C   UNL     1      -0.480  -2.795   0.669  0.00  0.00    +0.029 C 
ATOM     11  C   UNL     1       0.726  -2.106   1.280  0.00  0.00    -0.033 C 
ATOM     12  C   UNL     1       0.726  -0.590   1.212  0.00  0.00    +0.014 C 
ATOM     13  C   UNL     1       2.015  -2.662   0.657  0.00  0.00    +0.011 C 
ATOM     14  C   UNL     1       0.763  -2.497   2.779  0.00  0.00    +0.011 C 
ATOM     15  N   UNL     1      -0.055  -1.854  -1.550  0.00  0.00    -0.291 N 
ATOM     16  C   UNL     1       0.625  -0.576  -1.291  0.00  0.00    +0.115 C 
ATOM     17  C   UNL     1       0.214  -2.699  -2.566  0.00  0.00    +0.282 C 
ATOM     18  O   UNL     1      -0.425  -3.728  -2.687  0.00  0.00    -0.267 OA
ENDBRANCH   1  17
BRANCH   4  19
ATOM     19  C   UNL     1       3.951  -0.279  -4.857  0.00  0.00    -0.002 C 
BRANCH  19  20
ATOM     20  N   UNL     1       3.370   0.730  -5.753  0.00  0.00    +0.394 N 
ATOM     21  C   UNL     1       2.293   1.442  -5.053  0.00  0.00    -0.055 C 
ATOM     22  C   UNL     1       1.476   2.266  -6.056  0.00  0.00    +0.103 C 
ATOM     23  N   UNL     1       2.411   3.071  -6.852  0.00  0.00    -0.353 N 
ATOM     24  C   UNL     1       2.139   4.147  -7.633  0.00  0.00    +0.086 A 
ATOM     25  C   UNL     1       3.300   4.578  -8.173  0.00  0.00    +0.019 A 
ATOM     26  C   UNL     1       4.326   3.729  -7.707  0.00  0.00    +0.021 A 
ATOM     27  C   UNL     1       3.757   2.817  -6.905  0.00  0.00    +0.009 A 
ATOM     28  C   UNL     1       4.418   1.681  -6.163  0.00  0.00    +0.012 C 
ATOM     29  H   UNL     1       2.993   0.274  -6.571  0.00  0.00    -0.080 HD
BRANCH  28  30
ATOM     30  C   UNL     1       5.407   0.991  -7.066  0.00  0.00    -0.037 A 
ATOM     31  C   UNL     1       5.019  -0.115  -7.800  0.00  0.00    +0.004 A 
ATOM     32  C   UNL     1       5.926  -0.748  -8.628  0.00  0.00    +0.000 A 
ATOM     33  C   UNL     1       7.222  -0.277  -8.723  0.00  0.00    +0.001 A 
ATOM     34  C   UNL     1       7.612   0.828  -7.990  0.00  0.00    +0.020 A 
ATOM     35  C   UNL     1       6.702   1.466  -7.165  0.00  0.00    +0.043 A 
ATOM     36 CL   UNL     1       7.189   2.858  -6.248  0.00  0.00    -0.083 Cl
ENDBRANCH  28  30
ENDBRANCH  19  20
ENDBRANCH   4  19
TORSDOF 4
