REMARK  Name = ZINC20503586
REMARK  7 active torsions:
REMARK  status: ('A' for Active; 'I' for Inactive)
REMARK    1  A    between atoms: C_1  and  N_2
REMARK    2  A    between atoms: C_5  and  N_8
REMARK    3  A    between atoms: C_19  and  N_24
REMARK    4  A    between atoms: N_24  and  S_25
REMARK    5  A    between atoms: S_25  and  C_28
REMARK    6  A    between atoms: C_31  and  O_34
REMARK    7  A    between atoms: O_34  and  C_35
REMARK                            x       y       z     vdW  Elec       q    Type
REMARK                         _______ _______ _______ _____ _____    ______ ____
ROOT
ATOM      1  N   UNL     1       1.705   0.852   2.167  0.00  0.00    -0.299 NA
ATOM      2  C   UNL     1       1.525  -0.549   1.770  0.00  0.00    +0.090 C 
ATOM      3  C   UNL     1       1.217  -0.663   0.285  0.00  0.00    +0.024 C 
ATOM      4  C   UNL     1       2.300   0.026  -0.550  0.00  0.00    +0.017 C 
ATOM      5  C   UNL     1       2.387   1.483  -0.083  0.00  0.00    +0.050 C 
ATOM      6  C   UNL     1       2.790   1.484   1.401  0.00  0.00    +0.094 C 
ATOM      7  C   UNL     1       1.018   2.120  -0.182  0.00  0.00    +0.026 A 
ATOM      8  C   UNL     1       0.968   3.467  -0.346  0.00  0.00    +0.024 A 
ATOM      9  C   UNL     1      -0.260   4.140  -0.348  0.00  0.00    +0.031 A 
ATOM     10  C   UNL     1      -1.408   3.418  -0.169  0.00  0.00    +0.112 A 
ATOM     11  C   UNL     1      -1.320   2.021  -0.014  0.00  0.00    +0.274 A 
ATOM     12  O   UNL     1      -2.334   1.371   0.185  0.00  0.00    -0.266 OA
ATOM     13  N   UNL     1      -0.121   1.391  -0.083  0.00  0.00    -0.310 N 
ATOM     14  C   UNL     1      -0.140  -0.071  -0.059  0.00  0.00    +0.130 C 
ENDROOT
BRANCH   1  19
ATOM     15  C   UNL     1       1.226   2.206   7.639  0.00  0.00    -0.096 C 
ATOM     16  N   UNL     1       1.141   1.988   6.188  0.00  0.00    +0.378 N 
ATOM     17  C   UNL     1       2.311   2.552   5.503  0.00  0.00    -0.078 C 
ATOM     18  C   UNL     1       2.121   2.437   3.989  0.00  0.00    +0.000 C 
ATOM     19  C   UNL     1       1.946   0.963   3.611  0.00  0.00    +0.053 C 
ATOM     20  C   UNL     1       0.751   0.386   4.376  0.00  0.00    +0.000 C 
ATOM     21  C   UNL     1       0.980   0.562   5.879  0.00  0.00    -0.078 C 
ATOM     22  H   UNL     1       0.250   2.514   5.817  0.00  0.00    -0.082 HD
ENDBRANCH   1  19
BRANCH  10  23
ATOM     23  N   UNL     1      -2.653   4.059  -0.141  0.00  0.00    -0.211 N 
ATOM     24  H   UNL     1      -3.577   3.464  -0.085  0.00  0.00    +0.174 HD
BRANCH  23  25
ATOM     25  S   UNL     1      -2.735   5.712  -0.194  0.00  0.00    +0.073 S 
ATOM     26  O   UNL     1      -1.913   6.125  -1.278  0.00  0.00    -0.150 OA
ATOM     27  O   UNL     1      -4.111   6.054  -0.108  0.00  0.00    -0.150 OA
BRANCH  25  28
ATOM     28  C   UNL     1      -1.973   6.319   1.274  0.00  0.00    +0.109 A 
ATOM     29  C   UNL     1      -2.700   6.396   2.447  0.00  0.00    +0.032 A 
ATOM     30  C   UNL     1      -2.103   6.866   3.601  0.00  0.00    +0.047 A 
ATOM     31  C   UNL     1      -0.776   7.270   3.580  0.00  0.00    +0.120 A 
ATOM     32  C   UNL     1      -0.050   7.197   2.400  0.00  0.00    +0.047 A 
ATOM     33  C   UNL     1      -0.650   6.721   1.250  0.00  0.00    +0.032 A 
BRANCH  31  34
ATOM     34  O   UNL     1      -0.189   7.738   4.712  0.00  0.00    -0.495 OA
ATOM     35  C   UNL     1      -0.996   7.786   5.890  0.00  0.00    +0.277 C 
ENDBRANCH  31  34
ENDBRANCH  25  28
ENDBRANCH  23  25
ENDBRANCH  10  23
TORSDOF 5
