REMARK  Name = ZINC66753204
REMARK  11 active torsions:
REMARK  status: ('A' for Active; 'I' for Inactive)
REMARK    1  A    between atoms: C_1  and  C_2
REMARK    2  A    between atoms: C_2  and  C_4
REMARK    3  A    between atoms: C_2  and  N_16
REMARK    4  A    between atoms: C_8  and  S_10
REMARK    5  A    between atoms: S_10  and  N_13
REMARK    6  A    between atoms: N_13  and  C_14
REMARK    7  A    between atoms: N_13  and  C_15
REMARK    8  A    between atoms: C_17  and  C_19
REMARK    9  A    between atoms: C_20  and  C_24
REMARK   10  A    between atoms: C_24  and  C_25
REMARK   11  A    between atoms: C_24  and  C_26
REMARK                            x       y       z     vdW  Elec       q    Type
REMARK                         _______ _______ _______ _____ _____    ______ ____
ROOT
ATOM      1  C   UNL     1      -0.019   1.526   0.010  0.00  0.00    +0.033 C 
ATOM      2  C   UNL     1       0.002  -0.004   0.002  0.00  0.00    +0.100 C 
ENDROOT
BRANCH   2   3
ATOM      3  C   UNL     1       0.731  -0.503   1.223  0.00  0.00    -0.026 A 
ATOM      4  C   UNL     1       2.113  -0.514   1.247  0.00  0.00    +0.005 A 
ATOM      5  C   UNL     1       2.782  -0.972   2.366  0.00  0.00    +0.002 A 
ATOM      6  C   UNL     1       2.068  -1.419   3.463  0.00  0.00    +0.028 A 
ATOM      7  C   UNL     1       0.686  -1.407   3.439  0.00  0.00    +0.106 A 
ATOM      8  C   UNL     1       0.018  -0.945   2.321  0.00  0.00    +0.034 A 
BRANCH   7   9
ATOM      9  S   UNL     1      -0.223  -1.978   4.837  0.00  0.00    +0.060 S 
ATOM     10  O   UNL     1      -1.500  -2.374   4.356  0.00  0.00    -0.153 OA
ATOM     11  O   UNL     1       0.633  -2.864   5.545  0.00  0.00    -0.153 OA
BRANCH   9  12
ATOM     12  N   UNL     1      -0.474  -0.672   5.824  0.00  0.00    -0.183 NA
ATOM     13  C   UNL     1      -1.672   0.155   5.655  0.00  0.00    +0.131 C 
ATOM     14  C   UNL     1       0.502  -0.343   6.866  0.00  0.00    +0.131 C 
ENDBRANCH   9  12
ENDBRANCH   7   9
ENDBRANCH   2   3
BRANCH   2  15
ATOM     15  N   UNL     1       0.688  -0.476  -1.203  0.00  0.00    -0.304 N 
ATOM     16  C   UNL     1       0.006  -0.608  -2.358  0.00  0.00    +0.251 C 
ATOM     17  O   UNL     1      -1.179  -0.335  -2.400  0.00  0.00    -0.270 OA
ATOM     18  H   UNL     1       1.632  -0.695  -1.170  0.00  0.00    +0.150 HD
BRANCH  16  19
ATOM     19  C   UNL     1       0.692  -1.081  -3.564  0.00  0.00    +0.077 A 
ATOM     20  C   UNL     1       0.183  -1.278  -4.839  0.00  0.00    -0.026 A 
ATOM     21  C   UNL     1       1.079  -1.734  -5.776  0.00  0.00    +0.012 A 
ATOM     22  C   UNL     1       2.365  -1.956  -5.405  0.00  0.00    +0.046 A 
ATOM     23  S   UNL     1       2.401  -1.544  -3.777  0.00  0.00    -0.092 S 
BRANCH  20  24
ATOM     24  C   UNL     1      -1.261  -1.010  -5.176  0.00  0.00    +0.014 C 
ATOM     25  C   UNL     1      -1.341   0.057  -6.269  0.00  0.00    +0.012 C 
ATOM     26  C   UNL     1      -1.917  -2.300  -5.673  0.00  0.00    +0.012 C 
ENDBRANCH  20  24
ENDBRANCH  16  19
ENDBRANCH   2  15
TORSDOF 6
