REMARK  Name = ZINC41017067
REMARK  15 active torsions:
REMARK  status: ('A' for Active; 'I' for Inactive)
REMARK    1  A    between atoms: C_1  and  C_2
REMARK    2  A    between atoms: C_2  and  C_3
REMARK    3  A    between atoms: C_2  and  C_4
REMARK    4  A    between atoms: C_4  and  C_5
REMARK    5  A    between atoms: C_5  and  O_6
REMARK    6  A    between atoms: O_6  and  C_7
REMARK    7  A    between atoms: C_10  and  C_15
REMARK    8  A    between atoms: C_12  and  O_13
REMARK    9  A    between atoms: O_13  and  C_14
REMARK   10  A    between atoms: C_16  and  C_17
REMARK   11  A    between atoms: N_19  and  C_20
REMARK   12  A    between atoms: C_21  and  C_35
REMARK   13  A    between atoms: C_22  and  C_25
REMARK   14  A    between atoms: C_35  and  O_37
REMARK   15  A    between atoms: O_37  and  C_38
REMARK                            x       y       z     vdW  Elec       q    Type
REMARK                         _______ _______ _______ _____ _____    ______ ____
ROOT
ATOM      1  C   UNL     1      -6.934   1.501  -7.966  0.00  0.00    +0.241 C 
ATOM      2  O   UNL     1      -8.086   1.111  -8.016  0.00  0.00    -0.270 OA
ATOM      3  N   UNL     1      -6.416   2.204  -8.992  0.00  0.00    -0.276 N 
ATOM      4  H   UNL     1      -5.498   2.515  -8.953  0.00  0.00    +0.156 HD
ENDROOT
BRANCH   3   5
ATOM      5  C   UNL     1      -7.194   2.484 -10.102  0.00  0.00    +0.087 A 
ATOM      6  C   UNL     1      -6.827   3.183 -11.242  0.00  0.00    +0.095 A 
ATOM      7  C   UNL     1      -7.846   3.335 -12.266  0.00  0.00    +0.005 A 
ATOM      8  C   UNL     1      -9.047   2.767 -11.982  0.00  0.00    +0.056 A 
ATOM      9  S   UNL     1      -8.790   2.047 -10.376  0.00  0.00    -0.080 S 
BRANCH   7  10
ATOM     10  C   UNL     1      -7.593   4.059 -13.534  0.00  0.00    -0.016 A 
ATOM     11  C   UNL     1      -7.021   5.330 -13.515  0.00  0.00    +0.009 A 
ATOM     12  C   UNL     1      -6.793   5.993 -14.700  0.00  0.00    +0.004 A 
ATOM     13  C   UNL     1      -7.127   5.407 -15.917  0.00  0.00    -0.044 A 
ATOM     14  C   UNL     1      -7.689   4.149 -15.942  0.00  0.00    -0.044 A 
ATOM     15  C   UNL     1      -7.920   3.473 -14.753  0.00  0.00    +0.012 A 
ATOM     16  C   UNL     1      -8.058   3.452 -17.226  0.00  0.00    +0.035 C 
ATOM     17  C   UNL     1      -8.145   4.453 -18.375  0.00  0.00    +0.005 C 
ATOM     18  C   UNL     1      -6.856   5.283 -18.393  0.00  0.00    +0.005 C 
ATOM     19  C   UNL     1      -6.855   6.198 -17.170  0.00  0.00    +0.035 C 
ENDBRANCH   7  10
BRANCH   6  20
ATOM     20  C   UNL     1      -5.485   3.741 -11.405  0.00  0.00    +0.342 C 
ATOM     21  O   UNL     1      -4.608   3.074 -11.922  0.00  0.00    -0.245 OA
BRANCH  20  22
ATOM     22  O   UNL     1      -5.219   4.994 -10.981  0.00  0.00    -0.464 OA
ATOM     23  C   UNL     1      -3.886   5.474 -11.172  0.00  0.00    +0.280 C 
ENDBRANCH  20  22
ENDBRANCH   6  20
ENDBRANCH   3   5
BRANCH   1  25
ATOM     24  C   UNL     1      -6.632   0.500  -5.766  0.00  0.00    +0.013 C 
ATOM     25  C   UNL     1      -6.112   1.205  -6.794  0.00  0.00    +0.068 C 
BRANCH  24  29
ATOM     26  C   UNL     1      -4.242  -0.354  -2.364  0.00  0.00    +0.162 A 
ATOM     27  C   UNL     1      -3.709   0.371  -3.422  0.00  0.00    +0.050 A 
ATOM     28  C   UNL     1      -4.481   0.650  -4.528  0.00  0.00    +0.012 A 
ATOM     29  C   UNL     1      -5.806   0.203  -4.587  0.00  0.00    -0.021 A 
ATOM     30  C   UNL     1      -6.342  -0.527  -3.520  0.00  0.00    +0.057 A 
ATOM     31  C   UNL     1      -5.559  -0.807  -2.417  0.00  0.00    +0.162 A 
BRANCH  31  32
ATOM     32  O   UNL     1      -6.075  -1.522  -1.382  0.00  0.00    -0.491 OA
ATOM     33  C   UNL     1      -7.431  -1.955  -1.504  0.00  0.00    +0.277 C 
ENDBRANCH  31  32
BRANCH  26  34
ATOM     34  O   UNL     1      -3.476  -0.626  -1.276  0.00  0.00    -0.488 OA
BRANCH  34  35
ATOM     35  C   UNL     1      -2.135  -0.131  -1.286  0.00  0.00    +0.229 C 
BRANCH  35  36
ATOM     36  C   UNL     1      -1.433  -0.534   0.013  0.00  0.00    +0.044 C 
BRANCH  36  38
ATOM     37  C   UNL     1      -0.019   1.526   0.010  0.00  0.00    +0.007 C 
ATOM     38  C   UNL     1       0.002  -0.004   0.002  0.00  0.00    -0.014 C 
ATOM     39  C   UNL     1       0.742  -0.511   1.242  0.00  0.00    +0.007 C 
ENDBRANCH  36  38
ENDBRANCH  35  36
ENDBRANCH  34  35
ENDBRANCH  26  34
ENDBRANCH  24  29
ENDBRANCH   1  25
TORSDOF 11
