REMARK  Name = ZINC13445611
REMARK  7 active torsions:
REMARK  status: ('A' for Active; 'I' for Inactive)
REMARK    1  A    between atoms: C_1  and  C_2
REMARK    2  A    between atoms: C_2  and  C_4
REMARK    3  A    between atoms: C_2  and  N_6
REMARK    4  A    between atoms: C_16  and  S_17
REMARK    5  A    between atoms: S_17  and  C_18
REMARK    6  A    between atoms: C_18  and  C_19
REMARK    7  A    between atoms: N_21  and  C_22
REMARK                            x       y       z     vdW  Elec       q    Type
REMARK                         _______ _______ _______ _____ _____    ______ ____
ROOT
ATOM      1  C   UNL     1      -0.018   1.503   0.010  0.00  0.00    +0.173 C 
ENDROOT
BRANCH   1   2
ATOM      2  C   UNL     1       0.002  -0.004   0.002  0.00  0.00    +0.224 C 
ATOM      3  O   UNL     1       1.060  -0.596  -0.011  0.00  0.00    -0.275 OA
ATOM      4  N   UNL     1      -1.156  -0.694   0.009  0.00  0.00    -0.304 N 
ATOM      5  H   UNL     1      -2.002  -0.220   0.020  0.00  0.00    +0.150 HD
BRANCH   4   6
ATOM      6  C   UNL     1      -1.136  -2.159   0.001  0.00  0.00    +0.135 C 
ATOM      7  C   UNL     1      -1.103  -2.670  -1.418  0.00  0.00    -0.015 A 
ATOM      8  C   UNL     1      -0.193  -2.503  -2.441  0.00  0.00    +0.006 A 
ATOM      9  C   UNL     1      -0.417  -3.098  -3.670  0.00  0.00    +0.000 A 
ATOM     10  C   UNL     1      -1.552  -3.862  -3.875  0.00  0.00    +0.001 A 
ATOM     11  C   UNL     1      -2.467  -4.033  -2.858  0.00  0.00    +0.009 A 
ATOM     12  C   UNL     1      -2.248  -3.436  -1.615  0.00  0.00    -0.012 A 
ATOM     13  C   UNL     1      -3.051  -3.454  -0.367  0.00  0.00    -0.012 A 
ATOM     14  C   UNL     1      -2.407  -2.699   0.609  0.00  0.00    -0.015 A 
ATOM     15  C   UNL     1      -2.963  -2.564   1.864  0.00  0.00    +0.006 A 
ATOM     16  C   UNL     1      -4.167  -3.181   2.158  0.00  0.00    +0.000 A 
ATOM     17  C   UNL     1      -4.814  -3.933   1.194  0.00  0.00    +0.001 A 
ATOM     18  C   UNL     1      -4.265  -4.073  -0.064  0.00  0.00    +0.009 A 
ENDBRANCH   4   6
ENDBRANCH   1   2
BRANCH   1  19
ATOM     19  S   UNL     1       1.680   2.129  -0.003  0.00  0.00    -0.078 S 
BRANCH  19  30
ATOM     20  N   UNL     1       2.432   4.717   0.004  0.00  0.00    -0.273 N 
ATOM     21  C   UNL     1       2.237   6.057   0.013  0.00  0.00    +0.263 A 
ATOM     22  O   UNL     1       3.176   6.831   0.007  0.00  0.00    -0.267 OA
ATOM     23  C   UNL     1       0.850   6.541   0.028  0.00  0.00    +0.065 A 
ATOM     24  C   UNL     1       0.545   7.901   0.037  0.00  0.00    +0.015 A 
ATOM     25  C   UNL     1      -0.764   8.297   0.051  0.00  0.00    +0.001 A 
ATOM     26  C   UNL     1      -1.790   7.360   0.056  0.00  0.00    +0.002 A 
ATOM     27  C   UNL     1      -1.518   6.021   0.047  0.00  0.00    +0.028 A 
ATOM     28  C   UNL     1      -0.191   5.584   0.033  0.00  0.00    +0.079 A 
ATOM     29  N   UNL     1       0.122   4.273   0.018  0.00  0.00    -0.223 NA
ATOM     30  C   UNL     1       1.366   3.863   0.010  0.00  0.00    +0.173 A 
BRANCH  20  32
ATOM     31  C   UNL     1       4.545   4.658   1.233  0.00  0.00    +0.043 C 
ATOM     32  C   UNL     1       3.795   4.180  -0.012  0.00  0.00    +0.202 C 
BRANCH  32  33
ATOM     33  C   UNL     1       4.511   4.663  -1.246  0.00  0.00    +0.378 C 
ATOM     34  O   UNL     1       4.108   5.639  -1.836  0.00  0.00    -0.244 OA
ATOM     35  O   UNL     1       5.596   4.011  -1.692  0.00  0.00    -0.244 OA
ENDBRANCH  32  33
ENDBRANCH  20  32
ENDBRANCH  19  30
ENDBRANCH   1  19
TORSDOF 6
