REMARK  Name = ZINC63001865
REMARK  4 active torsions:
REMARK  status: ('A' for Active; 'I' for Inactive)
REMARK    1  A    between atoms: C_1  and  O_2
REMARK    2  A    between atoms: O_2  and  C_3
REMARK    3  A    between atoms: C_6  and  N_10
REMARK    4  A    between atoms: C_13  and  C_17
REMARK                            x       y       z     vdW  Elec       q    Type
REMARK                         _______ _______ _______ _____ _____    ______ ____
ROOT
ATOM      1  N   UNL     1      -4.868  -2.568   0.034  0.00  0.00    -0.226 NA
ATOM      2  C   UNL     1      -5.082  -3.584  -0.770  0.00  0.00    +0.155 C 
ATOM      3  N   UNL     1      -6.228  -4.332  -0.901  0.00  0.00    -0.316 N 
ATOM      4  C   UNL     1      -6.164  -5.622  -1.561  0.00  0.00    +0.113 C 
ATOM      5  C   UNL     1      -4.747  -5.966  -2.076  0.00  0.00    +0.104 C 
ATOM      6  S   UNL     1      -3.952  -4.306  -1.951  0.00  0.00    -0.088 S 
ATOM      7  H   UNL     1      -7.071  -4.001  -0.555  0.00  0.00    +0.149 HD
ENDROOT
BRANCH   1  11
ATOM      8  C   UNL     1      -1.202  -0.638   0.010  0.00  0.00    +0.155 A 
ATOM      9  C   UNL     1      -2.374   0.103   0.019  0.00  0.00    +0.050 A 
ATOM     10  C   UNL     1      -3.597  -0.535   0.027  0.00  0.00    +0.031 A 
ATOM     11  C   UNL     1      -3.655  -1.930   0.026  0.00  0.00    +0.069 A 
ATOM     12  C   UNL     1      -2.474  -2.674   0.016  0.00  0.00    +0.070 A 
ATOM     13  C   UNL     1      -1.253  -2.027   0.003  0.00  0.00    +0.167 A 
ATOM     14  F   UNL     1      -0.109  -2.745  -0.012  0.00  0.00    -0.202 F 
BRANCH   8  16
ATOM     15  C   UNL     1      -0.017   1.425   0.010  0.00  0.00    +0.277 C 
ATOM     16  O   UNL     1       0.002  -0.004   0.002  0.00  0.00    -0.492 OA
ENDBRANCH   8  16
ENDBRANCH   1  11
BRANCH   4  17
ATOM     17  C   UNL     1      -6.595  -6.688  -0.587  0.00  0.00    -0.026 A 
ATOM     18  C   UNL     1      -6.226  -6.600   0.742  0.00  0.00    +0.005 A 
ATOM     19  C   UNL     1      -6.621  -7.578   1.636  0.00  0.00    +0.000 A 
ATOM     20  C   UNL     1      -7.387  -8.643   1.200  0.00  0.00    +0.000 A 
ATOM     21  C   UNL     1      -7.757  -8.731  -0.129  0.00  0.00    +0.000 A 
ATOM     22  C   UNL     1      -7.365  -7.751  -1.021  0.00  0.00    +0.005 A 
ENDBRANCH   4  17
TORSDOF 3
