REMARK  Name = ZINC01085018
REMARK  12 active torsions:
REMARK  status: ('A' for Active; 'I' for Inactive)
REMARK    1  A    between atoms: C_1  and  C_2
REMARK    2  A    between atoms: C_2  and  O_3
REMARK    3  A    between atoms: O_3  and  C_4
REMARK    4  A    between atoms: C_4  and  C_6
REMARK    5  A    between atoms: C_7  and  C_34
REMARK    6  A    between atoms: C_9  and  N_33
REMARK    7  A    between atoms: C_10  and  C_31
REMARK    8  A    between atoms: C_11  and  C_13
REMARK    9  A    between atoms: C_16  and  O_22
REMARK   10  A    between atoms: C_17  and  N_19
REMARK   11  A    between atoms: O_22  and  C_23
REMARK   12  A    between atoms: C_23  and  C_24
REMARK                            x       y       z     vdW  Elec       q    Type
REMARK                         _______ _______ _______ _____ _____    ______ ____
ROOT
ATOM      1  C   UNL     1      -0.671   1.470   1.241  0.00  0.00    -0.032 A 
ATOM      2  C   UNL     1      -0.657   2.801   1.616  0.00  0.00    +0.008 A 
ATOM      3  C   UNL     1      -1.201   3.185   2.826  0.00  0.00    +0.048 A 
ATOM      4  C   UNL     1      -1.752   2.232   3.671  0.00  0.00    +0.151 A 
ATOM      5  C   UNL     1      -1.759   0.897   3.296  0.00  0.00    +0.168 A 
ATOM      6  C   UNL     1      -1.219   0.519   2.082  0.00  0.00    +0.041 A 
ENDROOT
BRANCH   1  12
ATOM      7  C   UNL     1       1.372   1.433  -0.124  0.00  0.00    +0.087 C 
ATOM      8  C   UNL     1       1.791   2.495  -0.823  0.00  0.00    +0.115 C 
ATOM      9  O   UNL     1       0.948   3.274  -1.517  0.00  0.00    -0.445 OA
ATOM     10  C   UNL     1      -0.269   2.803  -1.841  0.00  0.00    +0.198 C 
ATOM     11  C   UNL     1      -0.821   1.748  -1.196  0.00  0.00    +0.098 C 
ATOM     12  C   UNL     1      -0.083   1.055  -0.083  0.00  0.00    +0.105 C 
ATOM     13  C   UNL     1       3.261   2.827  -0.831  0.00  0.00    +0.087 C 
BRANCH  10  14
ATOM     14  N   UNL     1      -0.970   3.408  -2.854  0.00  0.00    -0.328 N 
ATOM     15  H   UNL     1      -0.587   4.164  -3.325  0.00  0.00    +0.145 HD
ATOM     16  H   UNL     1      -1.849   3.079  -3.099  0.00  0.00    +0.145 HD
ENDBRANCH  10  14
BRANCH   7  17
ATOM     17  C   UNL     1       2.316   0.652   0.589  0.00  0.00    +0.339 C 
ATOM     18  O   UNL     1       2.728  -0.388   0.111  0.00  0.00    -0.245 OA
BRANCH  17  19
ATOM     19  O   UNL     1       2.756   1.062   1.796  0.00  0.00    -0.462 OA
BRANCH  19  21
ATOM     20  C   UNL     1       4.085   0.849   3.803  0.00  0.00    +0.048 C 
ATOM     21  C   UNL     1       3.706   0.226   2.458  0.00  0.00    +0.229 C 
ENDBRANCH  19  21
ENDBRANCH  17  19
ENDBRANCH   7  17
BRANCH  11  22
ATOM     22  C   UNL     1      -2.122   1.286  -1.579  0.00  0.00    +0.101 C 
ATOM     23  N   UNL     1      -3.153   0.920  -1.882  0.00  0.00    -0.191 NA
ENDBRANCH  11  22
ENDBRANCH   1  12
BRANCH   5  24
ATOM     24  N   UNL     1      -2.346  -0.122   4.195  0.00  0.00    +0.060 N 
ATOM     25  O   UNL     1      -2.353  -1.294   3.865  0.00  0.00    -0.126 OA
ATOM     26  O   UNL     1      -2.822   0.212   5.265  0.00  0.00    -0.126 OA
ENDBRANCH   5  24
BRANCH   4  27
ATOM     27  O   UNL     1      -2.282   2.607   4.865  0.00  0.00    -0.485 OA
BRANCH  27  28
ATOM     28  C   UNL     1      -2.239   3.998   5.186  0.00  0.00    +0.264 C 
BRANCH  28  29
ATOM     29  C   UNL     1      -2.868   4.222   6.538  0.00  0.00    -0.010 A 
ATOM     30  C   UNL     1      -4.222   4.483   6.635  0.00  0.00    +0.008 A 
ATOM     31  C   UNL     1      -4.800   4.682   7.875  0.00  0.00    +0.020 A 
ATOM     32  C   UNL     1      -4.021   4.632   9.017  0.00  0.00    +0.041 A 
ATOM     33  C   UNL     1      -2.665   4.376   8.918  0.00  0.00    +0.020 A 
ATOM     34  C   UNL     1      -2.089   4.171   7.679  0.00  0.00    +0.008 A 
ATOM     35 CL   UNL     1      -4.746   4.889  10.574  0.00  0.00    -0.084 Cl
ENDBRANCH  28  29
ENDBRANCH  27  28
ENDBRANCH   4  27
TORSDOF 10
