REMARK  Name = ZINC62486388
REMARK  12 active torsions:
REMARK  status: ('A' for Active; 'I' for Inactive)
REMARK    1  A    between atoms: C_1  and  C_2
REMARK    2  A    between atoms: C_2  and  N_3
REMARK    3  A    between atoms: C_11  and  C_12
REMARK    4  A    between atoms: C_12  and  N_13
REMARK    5  A    between atoms: N_13  and  C_14
REMARK    6  A    between atoms: N_17  and  C_18
REMARK    7  A    between atoms: C_18  and  C_19
REMARK    8  A    between atoms: C_19  and  C_20
REMARK    9  A    between atoms: C_20  and  C_21
REMARK   10  A    between atoms: C_21  and  N_22
REMARK   11  A    between atoms: C_24  and  C_29
REMARK   12  A    between atoms: C_26  and  C_28
REMARK                            x       y       z     vdW  Elec       q    Type
REMARK                         _______ _______ _______ _____ _____    ______ ____
ROOT
ATOM      1  N   UNL     1      -1.394  -1.707  -3.150  0.00  0.00    -0.281 N 
ATOM      2  C   UNL     1      -2.347  -2.596  -3.819  0.00  0.00    +0.134 C 
ATOM      3  C   UNL     1      -0.101  -2.067  -3.038  0.00  0.00    +0.302 C 
ATOM      4  O   UNL     1       0.695  -1.319  -2.504  0.00  0.00    -0.253 OA
ATOM      5  N   UNL     1       0.311  -3.257  -3.519  0.00  0.00    -0.299 N 
ATOM      6  H   UNL     1      -0.323  -3.854  -3.945  0.00  0.00    +0.150 HD
ENDROOT
BRANCH   1   7
ATOM      7  C   UNL     1      -1.848  -0.426  -2.602  0.00  0.00    +0.183 C 
BRANCH   7  16
ATOM      8  N   UNL     1      -1.743  -0.524  -0.062  0.00  0.00    -0.327 N 
ATOM      9  C   UNL     1      -2.626  -0.796   0.964  0.00  0.00    +0.069 A 
ATOM     10  C   UNL     1      -2.519  -0.828   2.348  0.00  0.00    +0.028 A 
ATOM     11  C   UNL     1      -3.623  -1.145   3.110  0.00  0.00    +0.002 A 
ATOM     12  C   UNL     1      -4.838  -1.432   2.504  0.00  0.00    +0.002 A 
ATOM     13  C   UNL     1      -4.961  -1.406   1.144  0.00  0.00    +0.030 A 
ATOM     14  C   UNL     1      -3.856  -1.086   0.351  0.00  0.00    +0.089 A 
ATOM     15  N   UNL     1      -3.665  -0.979  -0.990  0.00  0.00    -0.231 NA
ATOM     16  C   UNL     1      -2.431  -0.644  -1.230  0.00  0.00    +0.128 A 
BRANCH   8  18
ATOM     17  C   UNL     1      -0.188   1.357   0.091  0.00  0.00    +0.027 C 
ATOM     18  C   UNL     1      -0.330  -0.166   0.080  0.00  0.00    +0.120 C 
ENDBRANCH   8  18
ENDBRANCH   7  16
ENDBRANCH   1   7
BRANCH   5  19
ATOM     19  C   UNL     1       1.718  -3.649  -3.398  0.00  0.00    +0.105 C 
BRANCH  19  20
ATOM     20  C   UNL     1       1.917  -5.033  -4.019  0.00  0.00    +0.017 C 
BRANCH  20  21
ATOM     21  C   UNL     1       3.386  -5.442  -3.892  0.00  0.00    -0.017 C 
BRANCH  21  22
ATOM     22  C   UNL     1       3.585  -6.827  -4.513  0.00  0.00    -0.079 C 
BRANCH  22  23
ATOM     23  N   UNL     1       4.995  -7.220  -4.391  0.00  0.00    +0.380 N 
ATOM     24  C   UNL     1       5.339  -7.368  -2.972  0.00  0.00    -0.076 C 
ATOM     25  C   UNL     1       6.827  -7.698  -2.836  0.00  0.00    -0.031 C 
ATOM     26  C   UNL     1       7.124  -9.007  -3.575  0.00  0.00    +0.003 C 
ATOM     27  C   UNL     1       6.692  -8.865  -5.037  0.00  0.00    -0.031 C 
ATOM     28  C   UNL     1       5.209  -8.492  -5.091  0.00  0.00    -0.076 C 
ATOM     29  C   UNL     1       6.912 -10.192  -5.765  0.00  0.00    +0.005 C 
ATOM     30  C   UNL     1       7.183  -7.855  -1.356  0.00  0.00    +0.005 C 
ATOM     31  H   UNL     1       5.578  -6.507  -4.804  0.00  0.00    -0.082 HD
ENDBRANCH  22  23
ENDBRANCH  21  22
ENDBRANCH  20  21
ENDBRANCH  19  20
ENDBRANCH   5  19
TORSDOF 8
