REMARK  Name = ZINC04302849
REMARK  5 active torsions:
REMARK  status: ('A' for Active; 'I' for Inactive)
REMARK    1  A    between atoms: C_1  and  C_2
REMARK    2  A    between atoms: C_5  and  S_8
REMARK    3  A    between atoms: S_8  and  C_9
REMARK    4  A    between atoms: C_9  and  C_10
REMARK    5  A    between atoms: N_12  and  C_13
REMARK                            x       y       z     vdW  Elec       q    Type
REMARK                         _______ _______ _______ _____ _____    ______ ____
ROOT
ATOM      1  C   UNL     1      -0.718   1.572   1.248  0.00  0.00    +0.224 C 
ATOM      2  O   UNL     1      -1.714   2.256   1.150  0.00  0.00    -0.275 OA
ATOM      3  N   UNL     1      -0.242   1.246   2.466  0.00  0.00    -0.309 N 
ATOM      4  H   UNL     1       0.555   0.699   2.544  0.00  0.00    +0.149 HD
ENDROOT
BRANCH   3   5
ATOM      5  C   UNL     1      -0.927   1.718   3.671  0.00  0.00    +0.035 C 
ATOM      6  C   UNL     1      -0.948   3.248   3.679  0.00  0.00    +0.029 C 
ATOM      7  C   UNL     1      -1.664   3.742   4.938  0.00  0.00    -0.008 C 
ATOM      8  C   UNL     1      -0.924   3.235   6.178  0.00  0.00    +0.007 C 
ATOM      9  C   UNL     1      -0.903   1.705   6.169  0.00  0.00    -0.008 C 
ATOM     10  C   UNL     1      -0.187   1.212   4.911  0.00  0.00    +0.029 C 
ATOM     11  C   UNL     1      -2.339   1.175   6.180  0.00  0.00    +0.007 C 
ATOM     12  C   UNL     1      -3.079   1.682   4.941  0.00  0.00    -0.008 C 
ATOM     13  C   UNL     1      -3.100   3.212   4.949  0.00  0.00    +0.007 C 
ATOM     14  C   UNL     1      -2.363   1.189   3.682  0.00  0.00    +0.029 C 
ENDBRANCH   3   5
BRANCH   1  15
ATOM     15  C   UNL     1      -0.013   1.086   0.008  0.00  0.00    +0.170 C 
BRANCH  15  16
ATOM     16  S   UNL     1      -0.890   1.687  -1.462  0.00  0.00    -0.116 S 
BRANCH  16  21
ATOM     17  C   UNL     1       2.313  -0.518  -6.078  0.00  0.00    +0.044 C 
ATOM     18  C   UNL     1       1.513   0.032  -4.926  0.00  0.00    -0.050 A 
ATOM     19  C   UNL     1       0.391   0.802  -5.170  0.00  0.00    +0.004 A 
ATOM     20  C   UNL     1      -0.344   1.308  -4.117  0.00  0.00    +0.015 A 
ATOM     21  C   UNL     1       0.045   1.043  -2.809  0.00  0.00    +0.008 A 
ATOM     22  C   UNL     1       1.176   0.273  -2.567  0.00  0.00    +0.015 A 
ATOM     23  C   UNL     1       1.903  -0.235  -3.626  0.00  0.00    +0.004 A 
ENDBRANCH  16  21
ENDBRANCH  15  16
ENDBRANCH   1  15
TORSDOF 4
