REMARK  Name = ZINC29763990
REMARK  4 active torsions:
REMARK  status: ('A' for Active; 'I' for Inactive)
REMARK    1  A    between atoms: C_1  and  N_2
REMARK    2  A    between atoms: N_2  and  C_3
REMARK    3  A    between atoms: N_2  and  C_4
REMARK    4  A    between atoms: N_8  and  C_11
REMARK                            x       y       z     vdW  Elec       q    Type
REMARK                         _______ _______ _______ _____ _____    ______ ____
ROOT
ATOM      1  C   UNL     1      -2.434   1.464  -0.233  0.00  0.00    +0.078 C 
ATOM      2  C   UNL     1      -1.180   1.960  -0.203  0.00  0.00    +0.030 C 
ATOM      3  C   UNL     1      -0.645   3.097  -1.048  0.00  0.00    +0.061 C 
ATOM      4  C   UNL     1       0.823   3.226  -0.605  0.00  0.00    +0.119 C 
ATOM      5  N   UNL     1       1.008   2.197   0.424  0.00  0.00    -0.267 N 
ATOM      6  C   UNL     1      -0.127   1.516   0.622  0.00  0.00    +0.248 C 
ATOM      7  O   UNL     1      -0.236   0.608   1.426  0.00  0.00    -0.270 OA
ENDROOT
BRANCH   5   8
ATOM      8  C   UNL     1       2.207   1.960   1.104  0.00  0.00    +0.037 A 
ATOM      9  C   UNL     1       3.362   2.636   0.734  0.00  0.00    +0.024 A 
ATOM     10  C   UNL     1       4.544   2.403   1.411  0.00  0.00    +0.017 A 
ATOM     11  C   UNL     1       4.579   1.489   2.449  0.00  0.00    +0.018 A 
ATOM     12  C   UNL     1       3.431   0.809   2.816  0.00  0.00    +0.017 A 
ATOM     13  C   UNL     1       2.246   1.042   2.146  0.00  0.00    +0.024 A 
ATOM     14 BR   UNL     1       6.200   1.168   3.368  0.00  0.00    -0.050 Br
ENDBRANCH   5   8
BRANCH   1  16
ATOM     15  C   UNL     1      -1.524  -0.756   0.277  0.00  0.00    +0.128 C 
ATOM     16  N   UNL     1      -2.657   0.149   0.068  0.00  0.00    -0.341 N 
ATOM     17  C   UNL     1      -4.028  -0.354   0.181  0.00  0.00    +0.128 C 
ENDBRANCH   1  16
TORSDOF 2
