REMARK  Name = ZINC14460307
REMARK  3 active torsions:
REMARK  status: ('A' for Active; 'I' for Inactive)
REMARK    1  A    between atoms: C_3  and  C_8
REMARK    2  A    between atoms: C_19  and  S_24
REMARK    3  A    between atoms: S_24  and  N_27
REMARK                            x       y       z     vdW  Elec       q    Type
REMARK                         _______ _______ _______ _____ _____    ______ ____
ROOT
ATOM      1  C   UNL     1       2.317   1.323   0.931  0.00  0.00    +0.105 C 
ATOM      2  C   UNL     1       1.631   2.395   0.079  0.00  0.00    +0.029 C 
ATOM      3  C   UNL     1       1.644   3.718   0.901  0.00  0.00    +0.033 C 
ATOM      4  C   UNL     1       0.451   3.568   1.826  0.00  0.00    -0.030 C 
ATOM      5  C   UNL     1      -0.398   2.695   1.342  0.00  0.00    -0.023 C 
ATOM      6  C   UNL     1       0.113   2.138   0.034  0.00  0.00    +0.049 C 
ATOM      7  C   UNL     1      -0.231   0.690  -0.114  0.00  0.00    -0.018 A 
ATOM      8  C   UNL     1      -1.540   0.343  -0.417  0.00  0.00    +0.034 A 
ATOM      9  C   UNL     1      -1.900  -0.981  -0.562  0.00  0.00    +0.106 A 
ATOM     10  C   UNL     1      -0.957  -1.981  -0.407  0.00  0.00    +0.030 A 
ATOM     11  C   UNL     1       0.349  -1.649  -0.106  0.00  0.00    +0.025 A 
ATOM     12  C   UNL     1       0.711  -0.315   0.042  0.00  0.00    +0.031 A 
ATOM     13  N   UNL     1       2.037   0.005   0.352  0.00  0.00    -0.336 N 
ATOM     14  H   UNL     1       2.753  -0.628   0.188  0.00  0.00    +0.147 HD
ENDROOT
BRANCH   1  17
ATOM     15  C   UNL     1       1.915   2.231   4.573  0.00  0.00    +0.002 A 
ATOM     16  C   UNL     1       2.406   2.175   3.282  0.00  0.00    +0.005 A 
ATOM     17  C   UNL     1       1.784   1.380   2.339  0.00  0.00    -0.026 A 
ATOM     18  C   UNL     1       0.675   0.631   2.689  0.00  0.00    +0.025 A 
ATOM     19  C   UNL     1       0.186   0.683   3.982  0.00  0.00    +0.041 A 
ATOM     20  C   UNL     1       0.807   1.484   4.924  0.00  0.00    +0.020 A 
ATOM     21 CL   UNL     1      -1.206  -0.257   4.421  0.00  0.00    -0.084 Cl
ENDBRANCH   1  17
BRANCH   9  22
ATOM     22  S   UNL     1      -3.567  -1.400  -0.948  0.00  0.00    +0.061 S 
ATOM     23  O   UNL     1      -4.137  -0.262  -1.579  0.00  0.00    -0.153 OA
ATOM     24  O   UNL     1      -3.531  -2.678  -1.570  0.00  0.00    -0.153 OA
BRANCH  22  25
ATOM     25  N   UNL     1      -4.367  -1.595   0.488  0.00  0.00    -0.177 NA
ATOM     26  C   UNL     1      -4.497  -2.856   1.233  0.00  0.00    +0.109 C 
ATOM     27  C   UNL     1      -5.341  -2.562   2.490  0.00  0.00    +0.018 C 
ATOM     28  C   UNL     1      -6.123  -1.282   2.090  0.00  0.00    +0.018 C 
ATOM     29  C   UNL     1      -5.074  -0.534   1.229  0.00  0.00    +0.109 C 
ENDBRANCH  22  25
ENDBRANCH   9  22
TORSDOF 3
