REMARK  Name = ZINC20910773
REMARK  5 active torsions:
REMARK  status: ('A' for Active; 'I' for Inactive)
REMARK    1  A    between atoms: C_1  and  C_2
REMARK    2  A    between atoms: N_4  and  C_5
REMARK    3  A    between atoms: C_8  and  C_10
REMARK    4  A    between atoms: C_10  and  N_11
REMARK    5  A    between atoms: C_24  and  C_26
REMARK                            x       y       z     vdW  Elec       q    Type
REMARK                         _______ _______ _______ _____ _____    ______ ____
ROOT
ATOM      1  N   UNL     1      -0.701   1.560   1.217  0.00  0.00    -0.285 NA
ATOM      2  C   UNL     1      -0.013   1.086   0.008  0.00  0.00    +0.090 C 
ATOM      3  C   UNL     1      -0.755   1.594  -1.235  0.00  0.00    +0.053 C 
ATOM      4  C   UNL     1      -2.222   1.290  -1.060  0.00  0.00    -0.016 A 
ATOM      5  C   UNL     1      -3.281   1.281  -2.044  0.00  0.00    +0.003 A 
ATOM      6  C   UNL     1      -3.304   1.540  -3.418  0.00  0.00    +0.010 A 
ATOM      7  C   UNL     1      -4.519   1.434  -4.049  0.00  0.00    +0.001 A 
ATOM      8  C   UNL     1      -5.675   1.089  -3.369  0.00  0.00    +0.002 A 
ATOM      9  C   UNL     1      -5.681   0.827  -2.010  0.00  0.00    +0.026 A 
ATOM     10  C   UNL     1      -4.462   0.926  -1.342  0.00  0.00    +0.047 A 
ATOM     11  N   UNL     1      -4.118   0.740  -0.033  0.00  0.00    -0.356 N 
ATOM     12  H   UNL     1      -4.886   0.456   0.702  0.00  0.00    +0.166 HD
ATOM     13  C   UNL     1      -2.778   0.960   0.129  0.00  0.00    +0.042 A 
ATOM     14  C   UNL     1      -1.985   0.867   1.411  0.00  0.00    +0.137 C 
ENDROOT
BRANCH  14  15
ATOM     15  C   UNL     1      -2.754   1.520   2.530  0.00  0.00    +0.011 A 
ATOM     16  C   UNL     1      -2.502   2.837   2.866  0.00  0.00    +0.008 A 
ATOM     17  C   UNL     1      -3.211   3.438   3.889  0.00  0.00    +0.000 A 
ATOM     18  C   UNL     1      -4.165   2.719   4.585  0.00  0.00    +0.003 A 
ATOM     19  C   UNL     1      -4.415   1.401   4.255  0.00  0.00    +0.039 A 
ATOM     20  C   UNL     1      -3.709   0.799   3.227  0.00  0.00    +0.128 A 
ATOM     21  F   UNL     1      -3.952  -0.489   2.903  0.00  0.00    -0.205 F 
ENDBRANCH  14  15
BRANCH   1  22
ATOM     22  C   UNL     1       0.158   1.419   2.401  0.00  0.00    +0.127 C 
BRANCH  22  26
ATOM     23  C   UNL     1       3.671   3.632   1.838  0.00  0.00    +0.072 A 
ATOM     24  C   UNL     1       2.659   4.292   2.468  0.00  0.00    +0.031 A 
ATOM     25  C   UNL     1       1.465   3.629   2.685  0.00  0.00    +0.014 A 
ATOM     26  C   UNL     1       1.341   2.344   2.276  0.00  0.00    +0.006 A 
ATOM     27  S   UNL     1       2.939   2.030   1.544  0.00  0.00    -0.077 S 
BRANCH  23  31
ATOM     28  C   UNL     1       7.194   3.766   0.521  0.00  0.00    +0.109 C 
ATOM     29  C   UNL     1       5.815   3.272   0.877  0.00  0.00    +0.214 C 
ATOM     30  O   UNL     1       5.485   2.139   0.596  0.00  0.00    -0.276 OA
ATOM     31  N   UNL     1       4.949   4.090   1.508  0.00  0.00    -0.280 N 
ATOM     32  H   UNL     1       5.248   5.117   1.763  0.00  0.00    +0.155 HD
ENDBRANCH  23  31
ENDBRANCH  22  26
ENDBRANCH   1  22
TORSDOF 4
