REMARK  Name = ZINC13321848
REMARK  8 active torsions:
REMARK  status: ('A' for Active; 'I' for Inactive)
REMARK    1  A    between atoms: C_1  and  C_2
REMARK    2  A    between atoms: C_2  and  C_4
REMARK    3  A    between atoms: C_2  and  S_17
REMARK    4  A    between atoms: N_6  and  N_7
REMARK    5  A    between atoms: C_8  and  C_9
REMARK    6  A    between atoms: C_8  and  C_10
REMARK    7  A    between atoms: C_13  and  O_16
REMARK    8  A    between atoms: S_17  and  C_18
REMARK                            x       y       z     vdW  Elec       q    Type
REMARK                         _______ _______ _______ _____ _____    ______ ____
ROOT
ATOM      1  C   UNL     1       4.912   9.153  -1.423  0.00  0.00    +0.245 C 
ATOM      2  O   UNL     1       4.391  10.155  -1.866  0.00  0.00    -0.273 OA
ATOM      3  N   UNL     1       5.749   9.237  -0.371  0.00  0.00    -0.206 N 
ATOM      4  H   UNL     1       6.166   8.435  -0.018  0.00  0.00    +0.177 HD
ENDROOT
BRANCH   3   5
ATOM      5  N   UNL     1       6.019  10.482   0.212  0.00  0.00    -0.185 NA
ATOM      6  C   UNL     1       6.911  10.580   1.150  0.00  0.00    +0.063 C 
ATOM      7  C   UNL     1       7.072  11.874   1.904  0.00  0.00    +0.068 C 
BRANCH   6   8
ATOM      8  C   UNL     1       7.767   9.425   1.477  0.00  0.00    -0.002 A 
ATOM      9  C   UNL     1       8.134   9.178   2.802  0.00  0.00    +0.013 A 
ATOM     10  C   UNL     1       8.930   8.094   3.103  0.00  0.00    +0.046 A 
ATOM     11  C   UNL     1       9.375   7.253   2.091  0.00  0.00    +0.117 A 
ATOM     12  C   UNL     1       9.017   7.498   0.772  0.00  0.00    +0.046 A 
ATOM     13  C   UNL     1       8.217   8.576   0.461  0.00  0.00    +0.013 A 
BRANCH  11  14
ATOM     14  O   UNL     1      10.163   6.189   2.393  0.00  0.00    -0.507 OA
ATOM     15  H   UNL     1      11.110   6.384   2.378  0.00  0.00    +0.292 HD
ENDBRANCH  11  14
ENDBRANCH   6   8
ENDBRANCH   3   5
BRANCH   1  17
ATOM     16  C   UNL     1       5.771   7.428  -2.984  0.00  0.00    +0.029 C 
ATOM     17  C   UNL     1       4.622   7.814  -2.051  0.00  0.00    +0.138 C 
BRANCH  17  18
ATOM     18  S   UNL     1       3.083   7.912  -2.998  0.00  0.00    -0.086 S 
BRANCH  18  19
ATOM     19  C   UNL     1       2.911   6.225  -3.479  0.00  0.00    +0.136 A 
ATOM     20  N   UNL     1       1.965   5.665  -4.199  0.00  0.00    -0.233 NA
ATOM     21  C   UNL     1       1.962   4.347  -4.493  0.00  0.00    +0.079 A 
ATOM     22  C   UNL     1       1.011   3.624  -5.250  0.00  0.00    +0.029 A 
ATOM     23  C   UNL     1       1.161   2.278  -5.461  0.00  0.00    +0.002 A 
ATOM     24  C   UNL     1       2.236   1.577  -4.934  0.00  0.00    +0.001 A 
ATOM     25  C   UNL     1       3.184   2.253  -4.187  0.00  0.00    +0.017 A 
ATOM     26  C   UNL     1       3.045   3.601  -3.976  0.00  0.00    +0.040 A 
ATOM     27  S   UNL     1       3.981   4.841  -3.113  0.00  0.00    -0.061 S 
ENDBRANCH  18  19
ENDBRANCH  17  18
ENDBRANCH   1  17
TORSDOF 6
