REMARK  Name = ZINC04813986
REMARK  3 active torsions:
REMARK  status: ('A' for Active; 'I' for Inactive)
REMARK    1  A    between atoms: C_6  and  C_7
REMARK    2  A    between atoms: N_9  and  N_10
REMARK    3  A    between atoms: C_11  and  C_12
REMARK                            x       y       z     vdW  Elec       q    Type
REMARK                         _______ _______ _______ _____ _____    ______ ____
ROOT
ATOM      1  C   UNL     1       0.422  -4.048  -0.325  0.00  0.00    +0.263 C 
ATOM      2  O   UNL     1      -0.551  -4.757  -0.502  0.00  0.00    -0.268 OA
ATOM      3  N   UNL     1       0.263  -2.726  -0.114  0.00  0.00    -0.203 N 
ATOM      4  H   UNL     1       1.038  -2.161   0.028  0.00  0.00    +0.178 HD
ENDROOT
BRANCH   1  10
ATOM      5  C   UNL     1       2.895  -3.822  -0.145  0.00  0.00    +0.016 A 
ATOM      6  C   UNL     1       4.157  -4.377  -0.155  0.00  0.00    +0.039 A 
ATOM      7  C   UNL     1       4.318  -5.737  -0.373  0.00  0.00    +0.123 A 
ATOM      8  C   UNL     1       3.211  -6.547  -0.575  0.00  0.00    +0.039 A 
ATOM      9  C   UNL     1       1.944  -6.005  -0.561  0.00  0.00    +0.016 A 
ATOM     10  C   UNL     1       1.776  -4.635  -0.342  0.00  0.00    +0.039 A 
ATOM     11  F   UNL     1       5.557  -6.274  -0.388  0.00  0.00    -0.205 F 
ENDBRANCH   1  10
BRANCH   3  12
ATOM     12  N   UNL     1      -1.023  -2.169  -0.098  0.00  0.00    -0.184 NA
ATOM     13  C   UNL     1      -1.181  -0.906   0.172  0.00  0.00    +0.176 C 
BRANCH  13  14
ATOM     14  C   UNL     1      -0.037  -0.102   0.610  0.00  0.00    +0.149 A 
ATOM     15  C   UNL     1      -0.036   1.249   0.810  0.00  0.00    +0.052 A 
ATOM     16  C   UNL     1       1.262   1.596   1.225  0.00  0.00    +0.056 A 
ATOM     17  C   UNL     1       1.986   0.457   1.258  0.00  0.00    +0.165 A 
ATOM     18  O   UNL     1       1.198  -0.566   0.887  0.00  0.00    -0.448 OA
ATOM     19  I   UNL     1       4.004   0.308   1.800  0.00  0.00    -0.001 I 
ENDBRANCH  13  14
ENDBRANCH   3  12
TORSDOF 3
