REMARK  Name = ZINC36591373
REMARK  18 active torsions:
REMARK  status: ('A' for Active; 'I' for Inactive)
REMARK    1  A    between atoms: C_1  and  C_2
REMARK    2  A    between atoms: C_2  and  C_3
REMARK    3  A    between atoms: C_2  and  C_4
REMARK    4  A    between atoms: C_2  and  C_5
REMARK    5  A    between atoms: C_5  and  C_6
REMARK    6  A    between atoms: C_6  and  C_7
REMARK    7  A    between atoms: C_6  and  C_8
REMARK    8  A    between atoms: C_6  and  N_9
REMARK    9  A    between atoms: C_10  and  C_12
REMARK   10  A    between atoms: C_12  and  C_14
REMARK   11  A    between atoms: C_12  and  N_27
REMARK   12  A    between atoms: C_14  and  C_15
REMARK   13  A    between atoms: C_14  and  C_21
REMARK   14  A    between atoms: N_27  and  C_37
REMARK   15  A    between atoms: C_28  and  C_30
REMARK   16  A    between atoms: C_37  and  C_38
REMARK   17  A    between atoms: C_37  and  C_39
REMARK   18  A    between atoms: C_37  and  C_40
REMARK                            x       y       z     vdW  Elec       q    Type
REMARK                         _______ _______ _______ _____ _____    ______ ____
ROOT
ATOM      1  C   UNL     1       4.589   1.303  -3.928  0.00  0.00    +0.174 C 
ENDROOT
BRANCH   1   3
ATOM      2  N   UNL     1       2.508   0.406  -2.936  0.00  0.00    -0.309 N 
ATOM      3  C   UNL     1       3.756   0.877  -2.746  0.00  0.00    +0.235 C 
ATOM      4  O   UNL     1       4.210   0.959  -1.624  0.00  0.00    -0.274 OA
ATOM      5  H   UNL     1       2.149   0.332  -3.834  0.00  0.00    +0.149 HD
BRANCH   2   6
ATOM      6  C   UNL     1       1.694   0.004  -1.786  0.00  0.00    +0.030 C 
ATOM      7  C   UNL     1       1.637   1.152  -0.776  0.00  0.00    +0.031 C 
ATOM      8  C   UNL     1       2.317  -1.227  -1.125  0.00  0.00    +0.031 C 
BRANCH   6   9
ATOM      9  C   UNL     1       0.277  -0.331  -2.256  0.00  0.00    +0.031 C 
BRANCH   9  11
ATOM     10  C   UNL     1       0.217   0.690  -4.536  0.00  0.00    +0.010 C 
ATOM     11  C   UNL     1      -0.271   0.828  -3.092  0.00  0.00    -0.036 C 
ATOM     12  C   UNL     1       0.224   2.154  -2.511  0.00  0.00    +0.010 C 
ATOM     13  C   UNL     1      -1.800   0.797  -3.065  0.00  0.00    +0.010 C 
ENDBRANCH   9  11
ENDBRANCH   6   9
ENDBRANCH   2   6
ENDBRANCH   1   3
BRANCH   1  14
ATOM     14  N   UNL     1       5.912   1.729  -3.465  0.00  0.00    -0.282 N 
ATOM     15  C   UNL     1       6.335   2.987  -3.700  0.00  0.00    +0.237 C 
ATOM     16  O   UNL     1       5.602   3.780  -4.252  0.00  0.00    -0.274 OA
BRANCH  15  17
ATOM     17  C   UNL     1       7.718   3.408  -3.276  0.00  0.00    +0.159 C 
ATOM     18  C   UNL     1       7.658   4.168  -1.932  0.00  0.00    +0.041 C 
ATOM     19  C   UNL     1       7.571   5.637  -2.405  0.00  0.00    +0.098 C 
ATOM     20  C   UNL     1       8.202   5.623  -3.780  0.00  0.00    +0.214 C 
ATOM     21  O   UNL     1       8.585   6.605  -4.378  0.00  0.00    -0.276 OA
ATOM     22  N   UNL     1       8.278   4.361  -4.242  0.00  0.00    -0.304 N 
ATOM     23  H   UNL     1       8.653   4.112  -5.101  0.00  0.00    +0.149 HD
ENDBRANCH  15  17
BRANCH  14  24
ATOM     24  C   UNL     1       6.776   0.787  -2.748  0.00  0.00    +0.030 C 
ATOM     25  C   UNL     1       7.846   0.250  -3.700  0.00  0.00    +0.031 C 
ATOM     26  C   UNL     1       7.449   1.504  -1.576  0.00  0.00    +0.031 C 
ATOM     27  C   UNL     1       5.934  -0.376  -2.219  0.00  0.00    +0.031 C 
ENDBRANCH  14  24
ENDBRANCH   1  14
BRANCH   1  28
ATOM     28  C   UNL     1       4.741   0.126  -4.895  0.00  0.00    +0.078 C 
BRANCH  28  29
ATOM     29  C   UNL     1       3.428  -0.125  -5.591  0.00  0.00    -0.038 A 
ATOM     30  C   UNL     1       2.822   0.888  -6.310  0.00  0.00    +0.004 A 
ATOM     31  C   UNL     1       1.618   0.657  -6.949  0.00  0.00    +0.000 A 
ATOM     32  C   UNL     1       1.020  -0.586  -6.867  0.00  0.00    +0.000 A 
ATOM     33  C   UNL     1       1.626  -1.599  -6.149  0.00  0.00    +0.000 A 
ATOM     34  C   UNL     1       2.832  -1.370  -5.514  0.00  0.00    +0.004 A 
ENDBRANCH  28  29
BRANCH  28  35
ATOM     35  C   UNL     1       5.798   0.451  -5.919  0.00  0.00    -0.038 A 
ATOM     36  C   UNL     1       6.479  -0.569  -6.556  0.00  0.00    +0.004 A 
ATOM     37  C   UNL     1       7.449  -0.271  -7.495  0.00  0.00    +0.000 A 
ATOM     38  C   UNL     1       7.737   1.047  -7.797  0.00  0.00    +0.000 A 
ATOM     39  C   UNL     1       7.055   2.067  -7.160  0.00  0.00    +0.000 A 
ATOM     40  C   UNL     1       6.082   1.769  -6.224  0.00  0.00    +0.004 A 
ENDBRANCH  28  35
ENDBRANCH   1  28
TORSDOF 10
