REMARK  Name = ZINC63806690
REMARK  6 active torsions:
REMARK  status: ('A' for Active; 'I' for Inactive)
REMARK    1  A    between atoms: C_7  and  C_10
REMARK    2  A    between atoms: C_10  and  C_12
REMARK    3  A    between atoms: C_10  and  C_28
REMARK    4  A    between atoms: C_12  and  N_13
REMARK    5  A    between atoms: C_14  and  C_16
REMARK    6  A    between atoms: C_16  and  N_17
REMARK                            x       y       z     vdW  Elec       q    Type
REMARK                         _______ _______ _______ _____ _____    ______ ____
ROOT
ATOM      1  C   UNL     1       0.691  -3.186  -0.024  0.00  0.00    +0.066 C 
ENDROOT
BRANCH   1   8
ATOM      2  C   UNL     1      -0.016   1.348   0.009  0.00  0.00    +0.001 A 
ATOM      3  C   UNL     1       1.166   2.101   0.002  0.00  0.00    +0.002 A 
ATOM      4  C   UNL     1       2.391   1.535  -0.013  0.00  0.00    +0.026 A 
ATOM      5  C   UNL     1       2.529   0.120  -0.022  0.00  0.00    +0.043 A 
ATOM      6  N   UNL     1       3.587  -0.654  -0.037  0.00  0.00    -0.380 N 
ATOM      7  C   UNL     1       3.143  -2.053  -0.041  0.00  0.00    +0.145 C 
ATOM      8  C   UNL     1       1.631  -2.008  -0.025  0.00  0.00    -0.033 C 
ATOM      9  C   UNL     1       1.295  -0.698  -0.014  0.00  0.00    -0.000 A 
ATOM     10  C   UNL     1       0.002  -0.004   0.002  0.00  0.00    +0.010 A 
ATOM     11  H   UNL     1       4.509  -0.353  -0.045  0.00  0.00    +0.160 HD
ENDBRANCH   1   8
BRANCH   1  12
ATOM     12  C   UNL     1       0.944  -4.029   1.199  0.00  0.00    -0.020 A 
ATOM     13  C   UNL     1       2.189  -4.591   1.405  0.00  0.00    +0.006 A 
ATOM     14  C   UNL     1       2.422  -5.365   2.527  0.00  0.00    +0.000 A 
ATOM     15  C   UNL     1       1.408  -5.577   3.443  0.00  0.00    +0.001 A 
ATOM     16  C   UNL     1       0.162  -5.016   3.238  0.00  0.00    +0.020 A 
ATOM     17  C   UNL     1      -0.069  -4.237   2.118  0.00  0.00    +0.045 A 
ATOM     18 CL   UNL     1      -1.632  -3.525   1.863  0.00  0.00    -0.083 Cl
ENDBRANCH   1  12
BRANCH   1  19
ATOM     19  C   UNL     1       0.923  -4.026  -1.281  0.00  0.00    +0.116 C 
BRANCH  19  20
ATOM     20  N   UNL     1      -0.070  -5.102  -1.340  0.00  0.00    -0.313 N 
ATOM     21  C   UNL     1      -0.058  -5.974  -2.367  0.00  0.00    +0.231 C 
ATOM     22  O   UNL     1       0.774  -5.869  -3.243  0.00  0.00    -0.274 OA
ATOM     23  H   UNL     1      -0.735  -5.186  -0.639  0.00  0.00    +0.149 HD
BRANCH  21  24
ATOM     24  C   UNL     1      -1.080  -7.080  -2.428  0.00  0.00    +0.213 C 
BRANCH  24  25
ATOM     25  N   UNL     1      -0.857  -7.886  -3.631  0.00  0.00    -0.215 N 
ATOM     26  C   UNL     1      -1.425  -7.633  -4.830  0.00  0.00    +0.247 C 
ATOM     27  O   UNL     1      -2.188  -6.732  -5.107  0.00  0.00    -0.273 OA
ATOM     28  C   UNL     1      -0.908  -8.709  -5.750  0.00  0.00    +0.113 C 
ATOM     29  C   UNL     1      -0.136  -8.103  -6.929  0.00  0.00    +0.035 C 
ATOM     30  C   UNL     1      -0.464  -9.045  -8.116  0.00  0.00    +0.003 C 
ATOM     31  C   UNL     1      -1.949  -9.411  -7.866  0.00  0.00    +0.003 C 
ATOM     32  C   UNL     1      -2.054  -9.541  -6.330  0.00  0.00    +0.035 C 
ATOM     33  N   UNL     1      -0.031  -9.523  -4.906  0.00  0.00    -0.285 N 
ATOM     34  C   UNL     1      -0.059  -8.960  -3.681  0.00  0.00    +0.310 C 
ATOM     35  O   UNL     1       0.566  -9.383  -2.728  0.00  0.00    -0.252 OA
ATOM     36  H   UNL     1       0.472 -10.307  -5.175  0.00  0.00    +0.151 HD
ENDBRANCH  24  25
ENDBRANCH  21  24
ENDBRANCH  19  20
ENDBRANCH   1  19
TORSDOF 6
