REMARK  Name = ZINC39446160
REMARK  13 active torsions:
REMARK  status: ('A' for Active; 'I' for Inactive)
REMARK    1  A    between atoms: C_1  and  C_2
REMARK    2  A    between atoms: C_7  and  O_16
REMARK    3  A    between atoms: C_13  and  C_15
REMARK    4  A    between atoms: O_16  and  C_17
REMARK    5  A    between atoms: C_17  and  C_19
REMARK    6  A    between atoms: C_19  and  C_21
REMARK    7  A    between atoms: C_19  and  N_31
REMARK    8  A    between atoms: C_21  and  C_22
REMARK    9  A    between atoms: C_32  and  O_34
REMARK   10  A    between atoms: O_34  and  C_35
REMARK   11  A    between atoms: C_35  and  C_36
REMARK   12  A    between atoms: C_35  and  C_37
REMARK   13  A    between atoms: C_35  and  C_38
REMARK                            x       y       z     vdW  Elec       q    Type
REMARK                         _______ _______ _______ _____ _____    ______ ____
ROOT
ATOM      1  C   UNL     1       2.769  -1.613  -7.182  0.00  0.00    +0.189 C 
ENDROOT
BRANCH   1   2
ATOM      2  N   UNL     1       1.928  -1.132  -8.281  0.00  0.00    -0.268 N 
ATOM      3  C   UNL     1       1.763   0.191  -8.474  0.00  0.00    +0.401 C 
ATOM      4  O   UNL     1       2.312   0.986  -7.737  0.00  0.00    -0.226 OA
ATOM      5  H   UNL     1       1.490  -1.767  -8.870  0.00  0.00    +0.153 HD
BRANCH   3   6
ATOM      6  O   UNL     1       0.990   0.633  -9.484  0.00  0.00    -0.445 OA
BRANCH   6   7
ATOM      7  C   UNL     1       0.860   2.048  -9.631  0.00  0.00    +0.107 C 
ATOM      8  C   UNL     1       2.239   2.666  -9.869  0.00  0.00    +0.055 C 
ATOM      9  C   UNL     1      -0.049   2.356 -10.822  0.00  0.00    +0.055 C 
ATOM     10  C   UNL     1       0.250   2.638  -8.358  0.00  0.00    +0.055 C 
ENDBRANCH   6   7
ENDBRANCH   3   6
ENDBRANCH   1   2
BRANCH   1  11
ATOM     11  C   UNL     1       2.213  -1.120  -5.871  0.00  0.00    +0.333 C 
ATOM     12  O   UNL     1       1.464  -0.172  -5.851  0.00  0.00    -0.248 OA
BRANCH  11  13
ATOM     13  O   UNL     1       2.550  -1.734  -4.726  0.00  0.00    -0.424 OA
BRANCH  13  19
ATOM     14  C   UNL     1       1.000  -0.246   1.194  0.00  0.00    +0.013 C 
ATOM     15  C   UNL     1       0.031  -0.035   0.029  0.00  0.00    +0.033 C 
ATOM     16  C   UNL     1       0.674  -0.510  -1.250  0.00  0.00    -0.001 A 
ATOM     17  C   UNL     1       2.021  -0.248  -1.448  0.00  0.00    +0.011 A 
ATOM     18  C   UNL     1       2.651  -0.656  -2.606  0.00  0.00    +0.047 A 
ATOM     19  C   UNL     1       1.934  -1.334  -3.582  0.00  0.00    +0.135 A 
ATOM     20  C   UNL     1       0.589  -1.600  -3.388  0.00  0.00    +0.093 A 
ATOM     21  C   UNL     1      -0.043  -1.191  -2.219  0.00  0.00    +0.139 A 
ATOM     22  O   UNL     1      -1.361  -1.489  -2.059  0.00  0.00    -0.425 OA
ATOM     23  C   UNL     1      -2.009  -0.916  -1.025  0.00  0.00    +0.316 C 
ATOM     24  O   UNL     1      -3.136  -0.496  -1.139  0.00  0.00    -0.250 OA
ATOM     25  C   UNL     1      -1.255  -0.826   0.287  0.00  0.00    +0.102 C 
ATOM     26  C   UNL     1      -0.910  -2.230   0.787  0.00  0.00    +0.020 C 
ENDBRANCH  13  19
ENDBRANCH  11  13
ENDBRANCH   1  11
BRANCH   1  27
ATOM     27  C   UNL     1       4.194  -1.085  -7.362  0.00  0.00    +0.071 C 
BRANCH  27  28
ATOM     28  C   UNL     1       4.795  -1.676  -8.612  0.00  0.00    -0.020 A 
ATOM     29  C   UNL     1       4.642  -1.167  -9.977  0.00  0.00    +0.003 A 
ATOM     30  C   UNL     1       3.966  -0.083 -10.538  0.00  0.00    +0.010 A 
ATOM     31  C   UNL     1       4.021   0.127 -11.887  0.00  0.00    +0.001 A 
ATOM     32  C   UNL     1       4.743  -0.731 -12.705  0.00  0.00    +0.002 A 
ATOM     33  C   UNL     1       5.418  -1.808 -12.172  0.00  0.00    +0.026 A 
ATOM     34  C   UNL     1       5.376  -2.040 -10.801  0.00  0.00    +0.047 A 
ATOM     35  N   UNL     1       5.928  -3.001  -9.985  0.00  0.00    -0.360 N 
ATOM     36  C   UNL     1       5.576  -2.765  -8.684  0.00  0.00    +0.087 A 
ATOM     37  H   UNL     1       6.487  -3.735 -10.287  0.00  0.00    +0.165 HD
ENDBRANCH  27  28
ENDBRANCH   1  27
TORSDOF 8
