REMARK  Name = ZINC24073411
REMARK  7 active torsions:
REMARK  status: ('A' for Active; 'I' for Inactive)
REMARK    1  A    between atoms: C_1  and  C_2
REMARK    2  A    between atoms: C_2  and  C_4
REMARK    3  A    between atoms: C_2  and  S_20
REMARK    4  A    between atoms: N_9  and  C_10
REMARK    5  A    between atoms: S_20  and  C_21
REMARK    6  A    between atoms: C_24  and  C_27
REMARK    7  A    between atoms: N_25  and  N_26
REMARK                            x       y       z     vdW  Elec       q    Type
REMARK                         _______ _______ _______ _____ _____    ______ ____
ROOT
ATOM      1  C   UNL     1       0.370  -4.436   0.099  0.00  0.00    +0.234 C 
ATOM      2  O   UNL     1       1.441  -4.923  -0.193  0.00  0.00    -0.274 OA
ATOM      3  N   UNL     1      -0.636  -5.225   0.526  0.00  0.00    -0.239 N 
ATOM      4  C   UNL     1      -0.452  -6.556   0.628  0.00  0.00    +0.306 C 
ATOM      5  O   UNL     1       0.622  -7.045   0.335  0.00  0.00    -0.252 OA
ATOM      6  N   UNL     1      -1.457  -7.346   1.054  0.00  0.00    -0.294 N 
ATOM      7  H   UNL     1      -1.608  -4.783   0.790  0.00  0.00    +0.159 HD
ATOM      8  H   UNL     1      -2.429  -6.903   1.319  0.00  0.00    +0.151 HD
ENDROOT
BRANCH   6   9
ATOM      9  C   UNL     1      -1.256  -8.792   1.165  0.00  0.00    +0.037 C 
ATOM     10  C   UNL     1      -0.895  -9.364  -0.207  0.00  0.00    +0.029 C 
ATOM     11  C   UNL     1      -0.685 -10.875  -0.091  0.00  0.00    -0.008 C 
ATOM     12  C   UNL     1      -1.972 -11.532   0.411  0.00  0.00    +0.007 C 
ATOM     13  C   UNL     1      -2.334 -10.960   1.784  0.00  0.00    -0.008 C 
ATOM     14  C   UNL     1      -2.544  -9.449   1.668  0.00  0.00    +0.029 C 
ATOM     15  C   UNL     1      -1.199 -11.243   2.770  0.00  0.00    +0.007 C 
ATOM     16  C   UNL     1       0.089 -10.587   2.267  0.00  0.00    -0.008 C 
ATOM     17  C   UNL     1       0.451 -11.158   0.895  0.00  0.00    +0.007 C 
ATOM     18  C   UNL     1      -0.121  -9.075   2.151  0.00  0.00    +0.029 C 
ENDBRANCH   6   9
BRANCH   1  20
ATOM     19  C   UNL     1      -0.583  -2.634  -1.314  0.00  0.00    +0.029 C 
ATOM     20  C   UNL     1       0.163  -2.948  -0.015  0.00  0.00    +0.137 C 
BRANCH  20  21
ATOM     21  S   UNL     1       1.770  -2.114  -0.026  0.00  0.00    -0.072 S 
BRANCH  21  22
ATOM     22  C   UNL     1       1.243  -0.433  -0.012  0.00  0.00    +0.209 A 
ATOM     23  N   UNL     1       0.002  -0.004   0.002  0.00  0.00    -0.121 NA
ATOM     24  N   UNL     1      -0.015   1.281   0.009  0.00  0.00    -0.132 NA
ATOM     25  C   UNL     1       1.202   1.745   0.000  0.00  0.00    +0.154 A 
ATOM     26  N   UNL     1       2.047   0.670  -0.014  0.00  0.00    -0.228 N 
BRANCH  25  27
ATOM     27  C   UNL     1       1.605   3.197   0.004  0.00  0.00    +0.059 C 
ATOM     28  C   UNL     1       1.058   3.875   1.262  0.00  0.00    +0.011 C 
ATOM     29  C   UNL     1       1.466   5.349   1.265  0.00  0.00    +0.001 C 
ATOM     30  C   UNL     1       0.895   6.040   0.025  0.00  0.00    +0.000 C 
ATOM     31  C   UNL     1       1.442   5.362  -1.233  0.00  0.00    +0.001 C 
ATOM     32  C   UNL     1       1.033   3.888  -1.237  0.00  0.00    +0.011 C 
ENDBRANCH  25  27
BRANCH  26  33
ATOM     33  N   UNL     1       3.413   0.695  -0.027  0.00  0.00    -0.295 N 
ATOM     34  H   UNL     1       3.946   1.657  -0.027  0.00  0.00    +0.163 HD
ATOM     35  H   UNL     1       3.980  -0.248  -0.037  0.00  0.00    +0.163 HD
ENDBRANCH  26  33
ENDBRANCH  21  22
ENDBRANCH  20  21
ENDBRANCH   1  20
TORSDOF 6
