REMARK  Name = ZINC05632599
REMARK  13 active torsions:
REMARK  status: ('A' for Active; 'I' for Inactive)
REMARK    1  A    between atoms: C_1  and  C_2
REMARK    2  A    between atoms: C_2  and  C_3
REMARK    3  A    between atoms: C_2  and  C_4
REMARK    4  A    between atoms: C_2  and  C_5
REMARK    5  A    between atoms: C_8  and  C_11
REMARK    6  A    between atoms: C_14  and  C_16
REMARK    7  A    between atoms: N_18  and  N_19
REMARK    8  A    between atoms: C_20  and  C_21
REMARK    9  A    between atoms: C_23  and  C_28
REMARK   10  A    between atoms: C_26  and  O_27
REMARK   11  A    between atoms: C_28  and  C_29
REMARK   12  A    between atoms: C_28  and  C_30
REMARK   13  A    between atoms: C_28  and  C_31
REMARK                            x       y       z     vdW  Elec       q    Type
REMARK                         _______ _______ _______ _____ _____    ______ ____
ROOT
ATOM      1  C   UNL     1      -2.280   4.174   0.556  0.00  0.00    +0.236 C 
ATOM      2  O   UNL     1      -2.282   5.387   0.562  0.00  0.00    -0.274 OA
ATOM      3  N   UNL     1      -1.131   3.504   0.340  0.00  0.00    -0.207 N 
ATOM      4  H   UNL     1      -1.129   2.534   0.335  0.00  0.00    +0.177 HD
ENDROOT
BRANCH   1   7
ATOM      5  C   UNL     1      -4.831   4.235   1.031  0.00  0.00    +0.032 C 
ATOM      6  C   UNL     1      -4.637   3.495  -0.294  0.00  0.00    +0.022 C 
ATOM      7  C   UNL     1      -3.561   3.417   0.791  0.00  0.00    +0.085 C 
BRANCH   5  11
ATOM      8  C   UNL     1      -4.474   8.492   0.984  0.00  0.00    -0.042 A 
ATOM      9  C   UNL     1      -4.928   7.849   2.120  0.00  0.00    +0.004 A 
ATOM     10  C   UNL     1      -5.044   6.471   2.135  0.00  0.00    +0.004 A 
ATOM     11  C   UNL     1      -4.705   5.737   1.014  0.00  0.00    -0.044 A 
ATOM     12  C   UNL     1      -4.245   6.379  -0.120  0.00  0.00    +0.004 A 
ATOM     13  C   UNL     1      -4.135   7.757  -0.137  0.00  0.00    +0.004 A 
BRANCH   8  15
ATOM     14  C   UNL     1      -3.371  10.435   2.058  0.00  0.00    +0.015 C 
ATOM     15  C   UNL     1      -4.348   9.993   0.967  0.00  0.00    -0.013 C 
ATOM     16  C   UNL     1      -3.827  10.446  -0.398  0.00  0.00    +0.015 C 
ATOM     17  C   UNL     1      -5.719  10.623   1.224  0.00  0.00    +0.015 C 
ENDBRANCH   8  15
ENDBRANCH   5  11
ENDBRANCH   1   7
BRANCH   3  18
ATOM     18  N   UNL     1       0.061   4.208   0.121  0.00  0.00    -0.188 NA
ATOM     19  C   UNL     1       1.145   3.567  -0.193  0.00  0.00    +0.142 C 
BRANCH  19  20
ATOM     20  C   UNL     1       1.077   2.144  -0.570  0.00  0.00    +0.036 A 
ATOM     21  C   UNL     1      -0.098   1.616  -1.109  0.00  0.00    +0.017 A 
ATOM     22  C   UNL     1      -0.155   0.283  -1.459  0.00  0.00    -0.041 A 
ATOM     23  C   UNL     1       0.947  -0.534  -1.278  0.00  0.00    +0.008 A 
ATOM     24  C   UNL     1       2.116  -0.023  -0.746  0.00  0.00    +0.046 A 
ATOM     25  C   UNL     1       2.191   1.313  -0.389  0.00  0.00    +0.125 A 
BRANCH  22  26
ATOM     26  C   UNL     1      -1.424  -0.286  -2.040  0.00  0.00    -0.013 C 
ATOM     27  C   UNL     1      -1.226  -1.774  -2.338  0.00  0.00    +0.015 C 
ATOM     28  C   UNL     1      -2.566  -0.116  -1.036  0.00  0.00    +0.015 C 
ATOM     29  C   UNL     1      -1.768   0.452  -3.335  0.00  0.00    +0.015 C 
ENDBRANCH  22  26
BRANCH  25  30
ATOM     30  O   UNL     1       3.337   1.815   0.139  0.00  0.00    -0.506 OA
ATOM     31  H   UNL     1       3.987   2.090  -0.521  0.00  0.00    +0.292 HD
ENDBRANCH  25  30
ENDBRANCH  19  20
ENDBRANCH   3  18
TORSDOF 7
