REMARK  Name = ZINC12642153
REMARK  6 active torsions:
REMARK  status: ('A' for Active; 'I' for Inactive)
REMARK    1  A    between atoms: C_1  and  C_2
REMARK    2  A    between atoms: C_9  and  C_11
REMARK    3  A    between atoms: N_13  and  C_14
REMARK    4  A    between atoms: N_22  and  C_34
REMARK    5  A    between atoms: C_23  and  C_25
REMARK    6  A    between atoms: N_27  and  C_28
REMARK                            x       y       z     vdW  Elec       q    Type
REMARK                         _______ _______ _______ _____ _____    ______ ____
ROOT
ATOM      1  C   UNL     1      -0.149   1.654  -0.382  0.00  0.00    +0.047 C 
ATOM      2  C   UNL     1      -0.098   0.140  -0.164  0.00  0.00    +0.098 C 
ATOM      3  C   UNL     1      -1.459  -0.556  -0.056  0.00  0.00    +0.007 C 
ATOM      4  C   UNL     1      -1.271  -1.695   0.623  0.00  0.00    +0.009 C 
ATOM      5  C   UNL     1       0.192  -1.710   0.888  0.00  0.00    +0.128 C 
ATOM      6  O   UNL     1       0.530  -0.311   1.090  0.00  0.00    -0.355 OA
ATOM      7  C   UNL     1       0.909  -2.025  -0.476  0.00  0.00    +0.128 C 
ATOM      8  C   UNL     1       0.760  -0.660  -1.198  0.00  0.00    +0.125 C 
ATOM      9  C   UNL     1       2.299  -2.342  -0.001  0.00  0.00    +0.228 C 
ATOM     10  O   UNL     1       3.310  -2.225  -0.660  0.00  0.00    -0.275 OA
ATOM     11  N   UNL     1       2.245  -2.778   1.283  0.00  0.00    -0.255 N 
ATOM     12  C   UNL     1       0.878  -2.655   1.824  0.00  0.00    +0.203 C 
ENDROOT
BRANCH  11  13
ATOM     13  C   UNL     1       3.341  -3.268   2.003  0.00  0.00    +0.055 A 
ATOM     14  C   UNL     1       4.601  -3.331   1.415  0.00  0.00    +0.026 A 
ATOM     15  C   UNL     1       5.655  -3.823   2.167  0.00  0.00    +0.021 A 
ATOM     16  C   UNL     1       5.423  -4.233   3.467  0.00  0.00    +0.111 A 
ATOM     17  N   UNL     1       4.216  -4.161   3.995  0.00  0.00    -0.261 NA
ATOM     18  C   UNL     1       3.188  -3.694   3.316  0.00  0.00    +0.134 A 
ENDBRANCH  11  13
BRANCH   8  19
ATOM     19  C   UNL     1       2.093   0.006  -1.422  0.00  0.00    +0.220 C 
ATOM     20  O   UNL     1       2.649   0.574  -0.506  0.00  0.00    -0.275 OA
ATOM     21  N   UNL     1       2.668  -0.030  -2.640  0.00  0.00    -0.312 N 
ATOM     22  H   UNL     1       2.223  -0.485  -3.373  0.00  0.00    +0.149 HD
BRANCH  21  23
ATOM     23  C   UNL     1       3.964   0.617  -2.858  0.00  0.00    +0.073 C 
ATOM     24  C   UNL     1       3.748   2.100  -3.166  0.00  0.00    +0.022 C 
ATOM     25  C   UNL     1       5.101   2.776  -3.394  0.00  0.00    +0.002 C 
ATOM     26  C   UNL     1       5.813   2.109  -4.573  0.00  0.00    +0.000 C 
ATOM     27  C   UNL     1       6.028   0.626  -4.265  0.00  0.00    +0.002 C 
ATOM     28  C   UNL     1       4.675  -0.050  -4.038  0.00  0.00    +0.022 C 
ENDBRANCH  21  23
ENDBRANCH   8  19
BRANCH  12  29
ATOM     29  C   UNL     1       0.202  -4.002   1.804  0.00  0.00    +0.237 C 
ATOM     30  O   UNL     1       0.676  -4.909   1.153  0.00  0.00    -0.274 OA
ATOM     31  N   UNL     1      -0.929  -4.198   2.510  0.00  0.00    -0.311 N 
ATOM     32  H   UNL     1      -1.308  -3.473   3.030  0.00  0.00    +0.149 HD
BRANCH  31  33
ATOM     33  C   UNL     1      -1.586  -5.508   2.490  0.00  0.00    +0.073 C 
ATOM     34  C   UNL     1      -2.505  -5.599   1.271  0.00  0.00    +0.022 C 
ATOM     35  C   UNL     1      -3.191  -6.966   1.251  0.00  0.00    +0.002 C 
ATOM     36  C   UNL     1      -4.018  -7.141   2.526  0.00  0.00    +0.000 C 
ATOM     37  C   UNL     1      -3.099  -7.049   3.746  0.00  0.00    +0.002 C 
ATOM     38  C   UNL     1      -2.413  -5.682   3.766  0.00  0.00    +0.022 C 
ENDBRANCH  31  33
ENDBRANCH  12  29
TORSDOF 5
