REMARK  Name = ZINC02380489
REMARK  11 active torsions:
REMARK  status: ('A' for Active; 'I' for Inactive)
REMARK    1  A    between atoms: C_1  and  C_2
REMARK    2  A    between atoms: N_13  and  C_18
REMARK    3  A    between atoms: C_15  and  C_16
REMARK    4  A    between atoms: C_18  and  C_19
REMARK    5  A    between atoms: C_19  and  C_21
REMARK    6  A    between atoms: C_19  and  O_32
REMARK    7  A    between atoms: C_21  and  N_22
REMARK    8  A    between atoms: N_22  and  C_23
REMARK    9  A    between atoms: C_26  and  C_29
REMARK   10  A    between atoms: C_29  and  C_30
REMARK   11  A    between atoms: C_29  and  C_31
REMARK                            x       y       z     vdW  Elec       q    Type
REMARK                         _______ _______ _______ _____ _____    ______ ____
ROOT
ATOM      1  C   UNL     1       1.873   4.371   3.687  0.00  0.00    +0.045 C 
ATOM      2  C   UNL     1       0.960   3.186   3.869  0.00  0.00    -0.024 A 
ATOM      3  C   UNL     1       0.078   3.146   4.910  0.00  0.00    +0.075 A 
ATOM      4  C   UNL     1      -0.770   2.044   5.064  0.00  0.00    +0.258 A 
ATOM      5  O   UNL     1      -1.555   2.015   5.999  0.00  0.00    -0.267 OA
ATOM      6  N   UNL     1      -0.723   1.008   4.204  0.00  0.00    -0.260 N 
ATOM      7  C   UNL     1      -1.445  -0.184   4.163  0.00  0.00    +0.075 A 
ATOM      8  C   UNL     1      -2.442  -0.714   4.971  0.00  0.00    +0.028 A 
ATOM      9  C   UNL     1      -2.983  -1.948   4.676  0.00  0.00    +0.002 A 
ATOM     10  C   UNL     1      -2.535  -2.663   3.577  0.00  0.00    +0.002 A 
ATOM     11  C   UNL     1      -1.545  -2.146   2.767  0.00  0.00    +0.028 A 
ATOM     12  C   UNL     1      -0.994  -0.904   3.055  0.00  0.00    +0.068 A 
ATOM     13  N   UNL     1      -0.008  -0.140   2.444  0.00  0.00    -0.322 N 
ATOM     14  C   UNL     1       0.146   1.013   3.159  0.00  0.00    +0.140 A 
ATOM     15  C   UNL     1       1.005   2.105   2.968  0.00  0.00    +0.096 A 
ENDROOT
BRANCH  15  16
ATOM     16  C   UNL     1       1.921   2.120   1.868  0.00  0.00    +0.103 C 
ATOM     17  N   UNL     1       2.647   2.132   0.995  0.00  0.00    -0.191 NA
ENDBRANCH  15  16
BRANCH  13  18
ATOM     18  C   UNL     1       0.742  -0.511   1.242  0.00  0.00    +0.156 C 
BRANCH  18  19
ATOM     19  C   UNL     1       0.002  -0.004   0.002  0.00  0.00    +0.151 C 
BRANCH  19  20
ATOM     20  O   UNL     1      -0.017   1.425   0.010  0.00  0.00    -0.388 OA
ATOM     21  H   UNL     1       0.861   1.830   0.004  0.00  0.00    +0.210 HD
ENDBRANCH  19  20
BRANCH  19  22
ATOM     22  C   UNL     1       0.718  -0.497  -1.257  0.00  0.00    +0.134 C 
BRANCH  22  23
ATOM     23  N   UNL     1       0.010  -0.012  -2.444  0.00  0.00    -0.341 N 
ATOM     24  H   UNL     1      -0.786   0.534  -2.344  0.00  0.00    +0.146 HD
BRANCH  23  25
ATOM     25  C   UNL     1       0.479  -0.336  -3.719  0.00  0.00    +0.027 A 
ATOM     26  C   UNL     1       1.621  -1.114  -3.863  0.00  0.00    +0.023 A 
ATOM     27  C   UNL     1       2.080  -1.436  -5.125  0.00  0.00    +0.006 A 
ATOM     28  C   UNL     1       1.410  -0.978  -6.244  0.00  0.00    -0.045 A 
ATOM     29  C   UNL     1       0.276  -0.199  -6.104  0.00  0.00    +0.006 A 
ATOM     30  C   UNL     1      -0.191   0.123  -4.845  0.00  0.00    +0.023 A 
BRANCH  28  31
ATOM     31  C   UNL     1       1.917  -1.327  -7.620  0.00  0.00    +0.013 C 
ATOM     32  C   UNL     1       3.338  -0.788  -7.792  0.00  0.00    +0.012 C 
ATOM     33  C   UNL     1       1.924  -2.848  -7.789  0.00  0.00    +0.012 C 
ENDBRANCH  28  31
ENDBRANCH  23  25
ENDBRANCH  22  23
ENDBRANCH  19  22
ENDBRANCH  18  19
ENDBRANCH  13  18
TORSDOF 8
