REMARK  Name = ZINC38684375
REMARK  10 active torsions:
REMARK  status: ('A' for Active; 'I' for Inactive)
REMARK    1  A    between atoms: C_1  and  C_2
REMARK    2  A    between atoms: C_2  and  C_3
REMARK    3  A    between atoms: C_3  and  O_4
REMARK    4  A    between atoms: O_4  and  C_5
REMARK    5  A    between atoms: C_9  and  C_11
REMARK    6  A    between atoms: C_16  and  O_25
REMARK    7  A    between atoms: C_20  and  N_24
REMARK    8  A    between atoms: C_21  and  C_22
REMARK    9  A    between atoms: O_25  and  C_26
REMARK   10  A    between atoms: C_26  and  C_28
REMARK                            x       y       z     vdW  Elec       q    Type
REMARK                         _______ _______ _______ _____ _____    ______ ____
ROOT
ATOM      1  C   UNL     1       2.143  -6.082   3.380  0.00  0.00    +0.098 C 
ATOM      2  C   UNL     1       3.586  -6.512   3.398  0.00  0.00    +0.008 A 
ATOM      3  C   UNL     1       4.291  -6.579   2.209  0.00  0.00    +0.012 A 
ATOM      4  C   UNL     1       5.615  -6.971   2.207  0.00  0.00    +0.047 A 
ATOM      5  C   UNL     1       6.243  -7.300   3.400  0.00  0.00    +0.135 A 
ATOM      6  C   UNL     1       5.540  -7.234   4.592  0.00  0.00    +0.093 A 
ATOM      7  C   UNL     1       4.208  -6.838   4.593  0.00  0.00    +0.138 A 
ATOM      8  O   UNL     1       3.534  -6.779   5.767  0.00  0.00    -0.441 OA
ATOM      9  C   UNL     1       2.191  -6.784   5.770  0.00  0.00    +0.199 C 
ATOM     10  C   UNL     1       1.474  -6.463   4.670  0.00  0.00    +0.098 C 
ENDROOT
BRANCH   1  15
ATOM     11  C   UNL     1       1.352  -2.679   1.940  0.00  0.00    +0.121 A 
ATOM     12  C   UNL     1       1.938  -1.841   2.878  0.00  0.00    +0.045 A 
ATOM     13  C   UNL     1       2.587  -2.379   3.973  0.00  0.00    +0.004 A 
ATOM     14  C   UNL     1       2.652  -3.751   4.135  0.00  0.00    +0.005 A 
ATOM     15  C   UNL     1       2.069  -4.588   3.201  0.00  0.00    -0.031 A 
ATOM     16  C   UNL     1       1.415  -4.054   2.107  0.00  0.00    +0.050 A 
BRANCH  11  17
ATOM     17  O   UNL     1       0.714  -2.152   0.862  0.00  0.00    -0.492 OA
BRANCH  17  18
ATOM     18  C   UNL     1       0.689  -0.728   0.755  0.00  0.00    +0.229 C 
BRANCH  18  20
ATOM     19  C   UNL     1      -0.095   1.201  -0.626  0.00  0.00    +0.007 C 
ATOM     20  C   UNL     1      -0.068  -0.324  -0.512  0.00  0.00    +0.038 C 
ENDBRANCH  18  20
ENDBRANCH  17  18
ENDBRANCH  11  17
ENDBRANCH   1  15
BRANCH   9  21
ATOM     21  N   UNL     1       1.528  -7.125   6.923  0.00  0.00    -0.328 N 
ATOM     22  H   UNL     1       2.029  -7.357   7.720  0.00  0.00    +0.145 HD
ATOM     23  H   UNL     1       0.558  -7.133   6.940  0.00  0.00    +0.145 HD
ENDBRANCH   9  21
BRANCH  10  24
ATOM     24  C   UNL     1       0.044  -6.486   4.739  0.00  0.00    +0.101 C 
ATOM     25  N   UNL     1      -1.091  -6.505   4.794  0.00  0.00    -0.191 NA
ENDBRANCH  10  24
BRANCH   5  26
ATOM     26  O   UNL     1       7.546  -7.686   3.400  0.00  0.00    -0.422 OA
BRANCH  26  27
ATOM     27  C   UNL     1       8.480  -6.761   3.107  0.00  0.00    +0.346 C 
ATOM     28  O   UNL     1       8.158  -5.599   2.958  0.00  0.00    -0.244 OA
BRANCH  27  29
ATOM     29  C   UNL     1       9.896  -7.158   2.969  0.00  0.00    +0.073 A 
ATOM     30  C   UNL     1      10.269  -8.494   3.135  0.00  0.00    +0.016 A 
ATOM     31  C   UNL     1      11.592  -8.858   3.004  0.00  0.00    +0.001 A 
ATOM     32  C   UNL     1      12.551  -7.904   2.709  0.00  0.00    +0.001 A 
ATOM     33  C   UNL     1      12.190  -6.580   2.544  0.00  0.00    +0.016 A 
ATOM     34  C   UNL     1      10.867  -6.201   2.666  0.00  0.00    +0.032 A 
ATOM     35 BR   UNL     1      10.374  -4.391   2.432  0.00  0.00    -0.049 Br
ENDBRANCH  27  29
ENDBRANCH  26  27
ENDBRANCH   5  26
TORSDOF 9
