REMARK  Name = ZINC34733399
REMARK  9 active torsions:
REMARK  status: ('A' for Active; 'I' for Inactive)
REMARK    1  A    between atoms: C_1  and  C_2
REMARK    2  A    between atoms: C_2  and  C_3
REMARK    3  A    between atoms: C_4  and  C_37
REMARK    4  A    between atoms: N_11  and  C_28
REMARK    5  A    between atoms: N_14  and  C_17
REMARK    6  A    between atoms: C_17  and  C_18
REMARK    7  A    between atoms: N_20  and  C_21
REMARK    8  A    between atoms: C_26  and  C_27
REMARK    9  A    between atoms: C_28  and  C_29
REMARK                            x       y       z     vdW  Elec       q    Type
REMARK                         _______ _______ _______ _____ _____    ______ ____
ROOT
ATOM      1  C   UNL     1       0.736  -0.522   1.195  0.00  0.00    -0.040 C 
ATOM      2  C   UNL     1       0.141  -0.888   2.315  0.00  0.00    -0.064 C 
ATOM      3  C   UNL     1       1.220  -1.327   3.279  0.00  0.00    +0.073 C 
ATOM      4  C   UNL     1       2.503  -1.149   2.526  0.00  0.00    +0.004 A 
ATOM      5  C   UNL     1       2.215  -0.676   1.284  0.00  0.00    +0.003 A 
ATOM      6  C   UNL     1       3.371  -0.445   0.391  0.00  0.00    +0.078 A 
ATOM      7  C   UNL     1       3.364   0.063  -0.996  0.00  0.00    +0.266 A 
ATOM      8  O   UNL     1       2.315   0.349  -1.543  0.00  0.00    -0.267 OA
ATOM      9  N   UNL     1       4.533   0.206  -1.647  0.00  0.00    -0.251 N 
ATOM     10  C   UNL     1       5.707  -0.101  -1.072  0.00  0.00    +0.334 A 
ATOM     11  O   UNL     1       6.736   0.045  -1.703  0.00  0.00    -0.246 OA
ATOM     12  N   UNL     1       5.768  -0.568   0.191  0.00  0.00    -0.278 N 
ATOM     13  C   UNL     1       4.624  -0.741   0.920  0.00  0.00    +0.098 A 
ATOM     14  S   UNL     1       4.268  -1.300   2.564  0.00  0.00    -0.074 S 
ATOM     15  C   UNL     1      -1.342  -0.872   2.584  0.00  0.00    +0.039 C 
ENDROOT
BRANCH   1  17
ATOM     16  C   UNL     1      -0.017   1.513  -0.005  0.00  0.00    +0.009 C 
ATOM     17  C   UNL     1       0.009  -0.017  -0.024  0.00  0.00    +0.032 C 
ENDBRANCH   1  17
BRANCH  12  18
ATOM     18  C   UNL     1       7.066  -0.892   0.786  0.00  0.00    +0.223 C 
BRANCH  18  19
ATOM     19  C   UNL     1       7.621   0.327   1.476  0.00  0.00    +0.237 C 
ATOM     20  O   UNL     1       6.994   1.365   1.472  0.00  0.00    -0.274 OA
ATOM     21  N   UNL     1       8.815   0.264   2.099  0.00  0.00    -0.284 N 
ATOM     22  H   UNL     1       9.280  -0.585   2.172  0.00  0.00    +0.155 HD
BRANCH  21  23
ATOM     23  C   UNL     1       9.384   1.422   2.640  0.00  0.00    +0.036 A 
ATOM     24  C   UNL     1       9.041   2.668   2.132  0.00  0.00    +0.023 A 
ATOM     25  C   UNL     1       9.604   3.810   2.667  0.00  0.00    +0.002 A 
ATOM     26  C   UNL     1      10.510   3.713   3.709  0.00  0.00    +0.000 A 
ATOM     27  C   UNL     1      10.853   2.474   4.216  0.00  0.00    +0.005 A 
ATOM     28  C   UNL     1      10.288   1.329   3.689  0.00  0.00    -0.029 A 
ATOM     29  C   UNL     1      10.658  -0.021   4.248  0.00  0.00    +0.045 C 
ENDBRANCH  21  23
ENDBRANCH  18  19
ENDBRANCH  12  18
BRANCH   9  30
ATOM     30  C   UNL     1       4.524   0.710  -3.023  0.00  0.00    +0.225 C 
BRANCH  30  31
ATOM     31  C   UNL     1       4.630   2.213  -3.008  0.00  0.00    +0.236 C 
ATOM     32  O   UNL     1       4.706   2.805  -1.952  0.00  0.00    -0.274 OA
ATOM     33  N   UNL     1       4.641   2.899  -4.168  0.00  0.00    -0.300 N 
ATOM     34  C   UNL     1       4.545   2.196  -5.454  0.00  0.00    +0.108 C 
ATOM     35  C   UNL     1       3.391   2.800  -6.261  0.00  0.00    +0.019 C 
ATOM     36  C   UNL     1       3.596   4.312  -6.384  0.00  0.00    +0.003 C 
ATOM     37  C   UNL     1       3.594   4.944  -4.990  0.00  0.00    +0.019 C 
ATOM     38  C   UNL     1       4.744   4.365  -4.169  0.00  0.00    +0.108 C 
ENDBRANCH  30  31
ENDBRANCH   9  30
TORSDOF 6
