REMARK  Name = ZINC40986800
REMARK  14 active torsions:
REMARK  status: ('A' for Active; 'I' for Inactive)
REMARK    1  A    between atoms: C_1  and  C_2
REMARK    2  A    between atoms: C_2  and  C_3
REMARK    3  A    between atoms: C_3  and  C_4
REMARK    4  A    between atoms: C_4  and  S_5
REMARK    5  A    between atoms: S_5  and  C_6
REMARK    6  A    between atoms: C_11  and  C_20
REMARK    7  A    between atoms: C_13  and  C_17
REMARK    8  A    between atoms: C_14  and  C_16
REMARK    9  A    between atoms: C_23  and  O_29
REMARK   10  A    between atoms: C_24  and  O_26
REMARK   11  A    between atoms: O_26  and  C_27
REMARK   12  A    between atoms: C_27  and  C_28
REMARK   13  A    between atoms: O_29  and  C_30
REMARK   14  A    between atoms: C_30  and  C_31
REMARK                            x       y       z     vdW  Elec       q    Type
REMARK                         _______ _______ _______ _____ _____    ______ ____
ROOT
ATOM      1  C   UNL     1       1.129  -4.404  -2.840  0.00  0.00    +0.210 A 
ATOM      2  N   UNL     1       0.609  -5.090  -1.812  0.00  0.00    -0.187 NA
ATOM      3  C   UNL     1       0.916  -6.353  -1.930  0.00  0.00    +0.219 A 
ATOM      4  N   UNL     1       1.658  -6.503  -3.055  0.00  0.00    -0.220 N 
ATOM      5  N   UNL     1       1.774  -5.237  -3.628  0.00  0.00    -0.141 NA
ATOM      6  C   UNL     1       2.192  -7.785  -3.507  0.00  0.00    +0.177 C 
ATOM      7  C   UNL     1       1.552  -8.899  -2.722  0.00  0.00    +0.060 C 
ATOM      8  C   UNL     1       0.824  -8.690  -1.615  0.00  0.00    +0.018 C 
ATOM      9  N   UNL     1       0.596  -7.431  -1.116  0.00  0.00    -0.287 N 
ATOM     10  C   UNL     1       0.237  -9.877  -0.895  0.00  0.00    +0.061 C 
ATOM     11  H   UNL     1       0.225  -7.300  -0.230  0.00  0.00    +0.155 HD
ENDROOT
BRANCH   6  12
ATOM     12  C   UNL     1       3.683  -7.811  -3.293  0.00  0.00    -0.015 A 
ATOM     13  C   UNL     1       4.200  -7.669  -2.018  0.00  0.00    +0.010 A 
ATOM     14  C   UNL     1       5.567  -7.692  -1.817  0.00  0.00    +0.050 A 
ATOM     15  C   UNL     1       6.424  -7.859  -2.893  0.00  0.00    +0.162 A 
ATOM     16  C   UNL     1       5.904  -8.003  -4.176  0.00  0.00    +0.162 A 
ATOM     17  C   UNL     1       4.532  -7.984  -4.371  0.00  0.00    +0.055 A 
BRANCH  16  18
ATOM     18  O   UNL     1       6.740  -8.168  -5.236  0.00  0.00    -0.489 OA
BRANCH  18  19
ATOM     19  C   UNL     1       6.136  -8.309  -6.523  0.00  0.00    +0.226 C 
ATOM     20  C   UNL     1       7.226  -8.482  -7.582  0.00  0.00    +0.048 C 
ENDBRANCH  18  19
ENDBRANCH  16  18
BRANCH  15  21
ATOM     21  O   UNL     1       7.769  -7.883  -2.697  0.00  0.00    -0.484 OA
BRANCH  21  22
ATOM     22  C   UNL     1       8.231  -7.729  -1.353  0.00  0.00    +0.264 C 
BRANCH  22  23
ATOM     23  C   UNL     1       9.737  -7.779  -1.331  0.00  0.00    -0.010 A 
ATOM     24  C   UNL     1      10.385  -8.990  -1.176  0.00  0.00    +0.008 A 
ATOM     25  C   UNL     1      11.767  -9.038  -1.156  0.00  0.00    +0.020 A 
ATOM     26  C   UNL     1      12.500  -7.873  -1.291  0.00  0.00    +0.041 A 
ATOM     27  C   UNL     1      11.851  -6.661  -1.446  0.00  0.00    +0.020 A 
ATOM     28  C   UNL     1      10.470  -6.615  -1.472  0.00  0.00    +0.008 A 
ATOM     29 CL   UNL     1      14.235  -7.931  -1.265  0.00  0.00    -0.084 Cl
ENDBRANCH  22  23
ENDBRANCH  21  22
ENDBRANCH  15  21
ENDBRANCH   6  12
BRANCH   7  30
ATOM     30  C   UNL     1       1.727 -10.229  -3.173  0.00  0.00    +0.241 C 
ATOM     31  O   UNL     1       1.122 -10.623  -4.153  0.00  0.00    -0.271 OA
ATOM     32  N   UNL     1       2.563 -11.058  -2.518  0.00  0.00    -0.325 N 
ATOM     33  H   UNL     1       3.046 -10.743  -1.737  0.00  0.00    +0.145 HD
ATOM     34  H   UNL     1       2.683 -11.969  -2.827  0.00  0.00    +0.145 HD
ENDBRANCH   7  30
BRANCH   1  35
ATOM     35  S   UNL     1       0.969  -2.668  -3.098  0.00  0.00    -0.084 S 
BRANCH  35  36
ATOM     36  C   UNL     1      -0.017  -2.104  -1.683  0.00  0.00    +0.077 C 
BRANCH  36  37
ATOM     37  C   UNL     1      -0.234  -0.593  -1.783  0.00  0.00    +0.011 C 
BRANCH  37  39
ATOM     38  C   UNL     1      -1.283   1.394  -0.690  0.00  0.00    +0.004 C 
ATOM     39  C   UNL     1      -1.065  -0.117  -0.590  0.00  0.00    -0.003 C 
ENDBRANCH  37  39
ENDBRANCH  36  37
ENDBRANCH  35  36
ENDBRANCH   1  35
TORSDOF 11
