REMARK  Name = ZINC33274067
REMARK  4 active torsions:
REMARK  status: ('A' for Active; 'I' for Inactive)
REMARK    1  A    between atoms: C_4  and  N_7
REMARK    2  A    between atoms: C_8  and  C_10
REMARK    3  A    between atoms: C_10  and  S_11
REMARK    4  A    between atoms: S_11  and  C_12
REMARK                            x       y       z     vdW  Elec       q    Type
REMARK                         _______ _______ _______ _____ _____    ______ ____
ROOT
ATOM      1  C   UNL     1       1.105   2.032  -0.011  0.00  0.00    +0.110 A 
ATOM      2  C   UNL     1       2.340   1.333  -0.027  0.00  0.00    +0.032 A 
ATOM      3  C   UNL     1       3.569   2.000  -0.025  0.00  0.00    +0.012 A 
ATOM      4  C   UNL     1       4.726   1.277  -0.040  0.00  0.00    +0.001 A 
ATOM      5  C   UNL     1       4.699  -0.114  -0.056  0.00  0.00    +0.002 A 
ATOM      6  C   UNL     1       3.517  -0.794  -0.058  0.00  0.00    +0.028 A 
ATOM      7  C   UNL     1       2.309  -0.082  -0.043  0.00  0.00    +0.077 A 
ATOM      8  N   UNL     1       1.120  -0.703  -0.043  0.00  0.00    -0.214 NA
ATOM      9  C   UNL     1       0.001  -0.004  -0.029  0.00  0.00    +0.220 A 
ATOM     10  N   UNL     1      -0.017   1.326  -0.013  0.00  0.00    -0.207 NA
ATOM     11  N   UNL     1      -1.204  -0.683  -0.029  0.00  0.00    -0.295 N 
ATOM     12  C   UNL     1      -2.338   0.255  -0.011  0.00  0.00    +0.113 C 
ATOM     13  C   UNL     1      -3.608  -0.511  -0.381  0.00  0.00    +0.054 C 
ATOM     14  C   UNL     1      -3.723  -1.754   0.465  0.00  0.00    -0.041 A 
ATOM     15  C   UNL     1      -4.953  -2.390   0.542  0.00  0.00    +0.004 A 
ATOM     16  C   UNL     1      -5.101  -3.532   1.303  0.00  0.00    +0.000 A 
ATOM     17  C   UNL     1      -4.017  -4.045   1.990  0.00  0.00    +0.000 A 
ATOM     18  C   UNL     1      -2.792  -3.413   1.915  0.00  0.00    +0.005 A 
ATOM     19  C   UNL     1      -2.643  -2.263   1.153  0.00  0.00    -0.027 A 
ATOM     20  C   UNL     1      -1.289  -1.603   1.109  0.00  0.00    +0.143 C 
ENDROOT
BRANCH   1  21
ATOM     21  S   UNL     1       1.064   3.793   0.009  0.00  0.00    -0.096 S 
BRANCH  21  22
ATOM     22  C   UNL     1      -0.725   4.066   0.023  0.00  0.00    +0.171 C 
BRANCH  22  24
ATOM     23  N   UNL     1      -2.280   5.989   0.054  0.00  0.00    -0.285 N 
ATOM     24  C   UNL     1      -1.007   5.546   0.042  0.00  0.00    +0.227 C 
ATOM     25  O   UNL     1      -0.089   6.339   0.045  0.00  0.00    -0.275 OA
ATOM     26  H   UNL     1      -3.112   5.274  -0.026  0.00  0.00    +0.155 HD
BRANCH  23  30
ATOM     27  C   UNL     1      -3.063  10.067   0.397  0.00  0.00    +0.000 A 
ATOM     28  C   UNL     1      -1.956   9.634  -0.310  0.00  0.00    +0.002 A 
ATOM     29  C   UNL     1      -1.694   8.283  -0.426  0.00  0.00    +0.023 A 
ATOM     30  C   UNL     1      -2.543   7.359   0.169  0.00  0.00    +0.033 A 
ATOM     31  C   UNL     1      -3.657   7.796   0.873  0.00  0.00    +0.023 A 
ATOM     32  C   UNL     1      -3.911   9.149   0.989  0.00  0.00    +0.002 A 
ENDBRANCH  23  30
ENDBRANCH  22  24
ENDBRANCH  21  22
ENDBRANCH   1  21
TORSDOF 4
