REMARK  Name = ZINC33936985
REMARK  14 active torsions:
REMARK  status: ('A' for Active; 'I' for Inactive)
REMARK    1  A    between atoms: C_1  and  C_2
REMARK    2  A    between atoms: C_2  and  C_3
REMARK    3  A    between atoms: C_3  and  C_5
REMARK    4  A    between atoms: C_3  and  N_17
REMARK    5  A    between atoms: N_9  and  C_10
REMARK    6  A    between atoms: C_10  and  C_11
REMARK    7  A    between atoms: N_17  and  C_18
REMARK    8  A    between atoms: N_17  and  C_27
REMARK    9  A    between atoms: C_18  and  C_19
REMARK   10  A    between atoms: C_22  and  O_25
REMARK   11  A    between atoms: O_25  and  C_26
REMARK   12  A    between atoms: C_27  and  C_28
REMARK   13  A    between atoms: C_32  and  O_40
REMARK   14  A    between atoms: O_40  and  C_41
REMARK                            x       y       z     vdW  Elec       q    Type
REMARK                         _______ _______ _______ _____ _____    ______ ____
ROOT
ATOM      1  N   UNL     1      -1.784  -0.705   2.442  0.00  0.00    +0.392 N 
ATOM      2  H   UNL     1      -1.025  -1.368   2.488  0.00  0.00    -0.080 HD
ENDROOT
BRANCH   1   3
ATOM      3  C   UNL     1      -1.534   0.253   1.356  0.00  0.00    +0.003 C 
BRANCH   3   4
ATOM      4  C   UNL     1      -2.632   1.284   1.333  0.00  0.00    +0.138 A 
ATOM      5  N   UNL     1      -3.920   1.059   1.426  0.00  0.00    -0.115 NA
ATOM      6  N   UNL     1      -4.528   2.193   1.365  0.00  0.00    -0.023 NA
ATOM      7  N   UNL     1      -3.661   3.136   1.236  0.00  0.00    -0.044 NA
ATOM      8  N   UNL     1      -2.480   2.617   1.217  0.00  0.00    -0.228 N 
BRANCH   8   9
ATOM      9  C   UNL     1      -1.213   3.341   1.091  0.00  0.00    +0.178 C 
BRANCH   9  10
ATOM     10  C   UNL     1      -0.905   3.575  -0.390  0.00  0.00    +0.140 C 
ATOM     11  C   UNL     1       0.385   4.419  -0.544  0.00  0.00    +0.035 C 
ATOM     12  C   UNL     1       0.847   3.994  -1.964  0.00  0.00    +0.031 C 
ATOM     13  C   UNL     1       0.410   2.514  -2.022  0.00  0.00    +0.160 C 
ATOM     14  O   UNL     1      -0.621   2.328  -1.043  0.00  0.00    -0.375 OA
ENDBRANCH   9  10
ENDBRANCH   8   9
ENDBRANCH   3   4
BRANCH   3  16
ATOM     15  C   UNL     1      -0.375  -1.524   0.036  0.00  0.00    +0.002 C 
ATOM     16  C   UNL     1      -1.502  -0.490   0.019  0.00  0.00    -0.011 C 
ENDBRANCH   3  16
ENDBRANCH   1   3
BRANCH   1  17
ATOM     17  C   UNL     1      -1.883   0.016   3.718  0.00  0.00    -0.042 C 
BRANCH  17  18
ATOM     18  C   UNL     1      -0.546   0.627   4.053  0.00  0.00    -0.064 A 
ATOM     19  C   UNL     1       0.422  -0.133   4.683  0.00  0.00    +0.005 A 
ATOM     20  C   UNL     1       1.647   0.425   4.992  0.00  0.00    +0.046 A 
ATOM     21  C   UNL     1       1.906   1.749   4.670  0.00  0.00    +0.120 A 
ATOM     22  C   UNL     1       0.933   2.510   4.038  0.00  0.00    +0.046 A 
ATOM     23  C   UNL     1      -0.289   1.946   3.726  0.00  0.00    +0.005 A 
BRANCH  21  24
ATOM     24  O   UNL     1       3.111   2.300   4.973  0.00  0.00    -0.495 OA
ATOM     25  C   UNL     1       3.308   3.669   4.612  0.00  0.00    +0.277 C 
ENDBRANCH  21  24
ENDBRANCH  17  18
ENDBRANCH   1  17
BRANCH   1  26
ATOM     26  C   UNL     1      -3.043  -1.418   2.185  0.00  0.00    -0.036 C 
BRANCH  26  27
ATOM     27  C   UNL     1      -2.744  -2.853   1.834  0.00  0.00    +0.001 A 
ATOM     28  C   UNL     1      -2.230  -3.685   2.773  0.00  0.00    +0.017 A 
ATOM     29  C   UNL     1      -1.950  -5.073   2.401  0.00  0.00    +0.002 A 
ATOM     30  C   UNL     1      -1.420  -5.976   3.328  0.00  0.00    +0.055 A 
ATOM     31  C   UNL     1      -1.169  -7.278   2.944  0.00  0.00    +0.121 A 
ATOM     32  C   UNL     1      -1.442  -7.692   1.642  0.00  0.00    +0.047 A 
ATOM     33  C   UNL     1      -1.964  -6.812   0.720  0.00  0.00    +0.030 A 
ATOM     34  C   UNL     1      -2.224  -5.496   1.087  0.00  0.00    +0.049 A 
ATOM     35  N   UNL     1      -2.748  -4.599   0.178  0.00  0.00    -0.322 N 
ATOM     36  H   UNL     1      -2.937  -4.891  -0.728  0.00  0.00    +0.169 HD
ATOM     37  C   UNL     1      -3.006  -3.328   0.531  0.00  0.00    +0.251 A 
ATOM     38  O   UNL     1      -3.474  -2.564  -0.296  0.00  0.00    -0.268 OA
BRANCH  31  39
ATOM     39  O   UNL     1      -0.653  -8.161   3.840  0.00  0.00    -0.495 OA
ATOM     40  C   UNL     1      -0.418  -9.492   3.378  0.00  0.00    +0.277 C 
ENDBRANCH  31  39
ENDBRANCH  26  27
ENDBRANCH   1  26
TORSDOF 11
