REMARK  Name = ZINC65528000
REMARK  7 active torsions:
REMARK  status: ('A' for Active; 'I' for Inactive)
REMARK    1  A    between atoms: C_1  and  C_2
REMARK    2  A    between atoms: C_5  and  C_10
REMARK    3  A    between atoms: C_7  and  O_8
REMARK    4  A    between atoms: O_8  and  C_9
REMARK    5  A    between atoms: C_12  and  C_24
REMARK    6  A    between atoms: N_16  and  C_17
REMARK    7  A    between atoms: C_17  and  C_18
REMARK                            x       y       z     vdW  Elec       q    Type
REMARK                         _______ _______ _______ _____ _____    ______ ____
ROOT
ATOM      1  C   UNL     1       0.058  -4.279  -0.027  0.00  0.00    +0.076 C 
ATOM      2  C   UNL     1       1.482  -4.790  -0.318  0.00  0.00    -0.017 C 
ATOM      3  N   UNL     1       1.377  -5.569  -1.575  0.00  0.00    +0.393 N 
ATOM      4  C   UNL     1      -0.050  -5.981  -1.638  0.00  0.00    +0.006 C 
ATOM      5  N   UNL     1      -0.786  -4.793  -1.131  0.00  0.00    -0.306 NA
ATOM      6  H   UNL     1       1.612  -4.992  -2.368  0.00  0.00    -0.083 HD
ATOM      7  H   UNL     1       1.976  -6.381  -1.538  0.00  0.00    -0.083 HD
ENDROOT
BRANCH   1  12
ATOM      8  C   UNL     1      -0.018   1.503   0.010  0.00  0.00    +0.047 C 
ATOM      9  C   UNL     1       0.002  -0.004   0.002  0.00  0.00    -0.009 A 
ATOM     10  C   UNL     1       0.006  -0.689  -1.198  0.00  0.00    +0.007 A 
ATOM     11  C   UNL     1       0.024  -2.071  -1.206  0.00  0.00    +0.005 A 
ATOM     12  C   UNL     1       0.039  -2.772  -0.014  0.00  0.00    -0.028 A 
ATOM     13  C   UNL     1       0.036  -2.092   1.188  0.00  0.00    +0.051 A 
ATOM     14  C   UNL     1       0.023  -0.705   1.199  0.00  0.00    +0.123 A 
BRANCH  14  15
ATOM     15  O   UNL     1       0.025  -0.033   2.381  0.00  0.00    -0.495 OA
ATOM     16  C   UNL     1       0.048  -0.820   3.574  0.00  0.00    +0.277 C 
ENDBRANCH  14  15
ENDBRANCH   1  12
BRANCH   2  17
ATOM     17  C   UNL     1       2.425  -3.630  -0.501  0.00  0.00    -0.060 A 
ATOM     18  C   UNL     1       2.464  -2.953  -1.705  0.00  0.00    +0.002 A 
ATOM     19  C   UNL     1       3.329  -1.888  -1.873  0.00  0.00    +0.000 A 
ATOM     20  C   UNL     1       4.156  -1.500  -0.835  0.00  0.00    +0.000 A 
ATOM     21  C   UNL     1       4.117  -2.176   0.370  0.00  0.00    +0.000 A 
ATOM     22  C   UNL     1       3.249  -3.238   0.539  0.00  0.00    +0.002 A 
ENDBRANCH   2  17
BRANCH   5  23
ATOM     23  C   UNL     1      -2.120  -5.167  -0.643  0.00  0.00    +0.161 C 
BRANCH  23  24
ATOM     24  C   UNL     1      -3.023  -5.449  -1.816  0.00  0.00    +0.165 A 
ATOM     25  H   UNL     1      -5.076  -4.874  -4.087  0.00  0.00    +0.190 HD
ATOM     26  N   UNL     1      -3.188  -6.636  -2.399  0.00  0.00    -0.218 NA
ATOM     27  C   UNL     1      -4.040  -6.531  -3.386  0.00  0.00    +0.216 A 
ATOM     28  N   UNL     1      -4.445  -5.251  -3.454  0.00  0.00    -0.265 N 
ATOM     29  N   UNL     1      -3.777  -4.570  -2.423  0.00  0.00    -0.156 NA
ENDBRANCH  23  24
ENDBRANCH   5  23
TORSDOF 5
