REMARK  Name = ZINC22932408
REMARK  8 active torsions:
REMARK  status: ('A' for Active; 'I' for Inactive)
REMARK    1  A    between atoms: C_1  and  C_2
REMARK    2  A    between atoms: C_7  and  C_8
REMARK    3  A    between atoms: C_8  and  N_9
REMARK    4  A    between atoms: N_12  and  C_15
REMARK    5  A    between atoms: C_15  and  C_17
REMARK    6  A    between atoms: C_15  and  C_18
REMARK    7  A    between atoms: N_20  and  C_21
REMARK    8  A    between atoms: C_22  and  C_26
REMARK                            x       y       z     vdW  Elec       q    Type
REMARK                         _______ _______ _______ _____ _____    ______ ____
ROOT
ATOM      1  C   UNL     1      -4.970   1.009   4.927  0.00  0.00    +0.140 C 
ATOM      2  C   UNL     1      -5.340   1.409   3.498  0.00  0.00    +0.034 C 
ENDROOT
BRANCH   1   6
ATOM      3  N   UNL     1      -0.859   0.692   3.994  0.00  0.00    +0.384 N 
ATOM      4  C   UNL     1      -1.655  -0.542   4.034  0.00  0.00    -0.063 C 
ATOM      5  C   UNL     1      -3.139  -0.196   3.896  0.00  0.00    +0.066 C 
ATOM      6  N   UNL     1      -3.535   0.699   4.992  0.00  0.00    -0.295 NA
ATOM      7  C   UNL     1      -2.729   1.928   4.980  0.00  0.00    +0.066 C 
ATOM      8  C   UNL     1      -1.248   1.565   5.109  0.00  0.00    -0.063 C 
ATOM      9  H   UNL     1      -1.024   1.169   3.120  0.00  0.00    -0.081 HD
BRANCH   3  10
ATOM     10  C   UNL     1       0.567   0.358   4.108  0.00  0.00    -0.043 C 
BRANCH  10  17
ATOM     11  C   UNL     1       1.157   1.713   1.625  0.00  0.00    +0.044 C 
ATOM     12  C   UNL     1       1.278   0.214   1.713  0.00  0.00    -0.049 A 
ATOM     13  C   UNL     1       1.677  -0.513   0.606  0.00  0.00    +0.003 A 
ATOM     14  C   UNL     1       1.788  -1.888   0.686  0.00  0.00    +0.000 A 
ATOM     15  C   UNL     1       1.501  -2.537   1.873  0.00  0.00    +0.000 A 
ATOM     16  C   UNL     1       1.103  -1.810   2.979  0.00  0.00    +0.002 A 
ATOM     17  C   UNL     1       0.996  -0.434   2.900  0.00  0.00    -0.061 A 
ENDBRANCH  10  17
ENDBRANCH   3  10
ENDBRANCH   1   6
BRANCH   1  18
ATOM     18  C   UNL     1      -5.765  -0.206   5.332  0.00  0.00    +0.235 C 
ATOM     19  O   UNL     1      -5.224  -1.289   5.402  0.00  0.00    -0.274 OA
ATOM     20  N   UNL     1      -7.077  -0.088   5.614  0.00  0.00    -0.278 N 
ATOM     21  H   UNL     1      -7.510   0.778   5.558  0.00  0.00    +0.155 HD
BRANCH  20  22
ATOM     22  C   UNL     1      -7.809  -1.206   5.986  0.00  0.00    +0.084 A 
ATOM     23  C   UNL     1      -9.157  -1.275   6.306  0.00  0.00    +0.065 A 
ATOM     24  C   UNL     1      -9.671  -2.578   6.662  0.00  0.00    +0.022 A 
ATOM     25  C   UNL     1      -8.779  -3.585   6.645  0.00  0.00    +0.048 A 
ATOM     26  S   UNL     1      -7.269  -2.786   6.147  0.00  0.00    -0.081 S 
BRANCH  23  27
ATOM     27  C   UNL     1     -10.017  -0.087   6.283  0.00  0.00    +0.244 C 
ATOM     28  O   UNL     1      -9.551   0.995   5.978  0.00  0.00    -0.270 OA
ATOM     29  N   UNL     1     -11.322  -0.194   6.599  0.00  0.00    -0.325 N 
ATOM     30  H   UNL     1     -11.694  -1.057   6.842  0.00  0.00    +0.145 HD
ATOM     31  H   UNL     1     -11.891   0.592   6.584  0.00  0.00    +0.145 HD
ENDBRANCH  23  27
ENDBRANCH  20  22
ENDBRANCH   1  18
TORSDOF 6
