REMARK  Name = ZINC00804029
REMARK  7 active torsions:
REMARK  status: ('A' for Active; 'I' for Inactive)
REMARK    1  A    between atoms: C_4  and  C_7
REMARK    2  A    between atoms: C_7  and  C_8
REMARK    3  A    between atoms: C_11  and  C_22
REMARK    4  A    between atoms: C_17  and  N_21
REMARK    5  A    between atoms: C_18  and  C_19
REMARK    6  A    between atoms: C_22  and  S_23
REMARK    7  A    between atoms: S_23  and  C_24
REMARK                            x       y       z     vdW  Elec       q    Type
REMARK                         _______ _______ _______ _____ _____    ______ ____
ROOT
ATOM      1  C   UNL     1       4.171  -0.963   1.399  0.00  0.00    +0.076 C 
ATOM      2  C   UNL     1       5.430  -1.792   1.389  0.00  0.00    +0.046 A 
ATOM      3  C   UNL     1       5.595  -3.136   1.086  0.00  0.00    +0.080 A 
ATOM      4  N   UNL     1       6.868  -3.428   1.208  0.00  0.00    -0.175 NA
ATOM      5  N   UNL     1       7.554  -2.267   1.596  0.00  0.00    -0.246 N 
ATOM      6  H   UNL     1       8.508  -2.194   1.758  0.00  0.00    +0.192 HD
ATOM      7  C   UNL     1       6.656  -1.275   1.703  0.00  0.00    +0.222 A 
ATOM      8  O   UNL     1       6.836   0.024   2.050  0.00  0.00    -0.423 OA
ATOM      9  C   UNL     1       5.738   0.748   2.350  0.00  0.00    +0.200 C 
ATOM     10  C   UNL     1       4.475   0.349   2.078  0.00  0.00    +0.094 C 
ENDROOT
BRANCH   9  11
ATOM     11  N   UNL     1       5.913   1.962   2.967  0.00  0.00    -0.328 N 
ATOM     12  H   UNL     1       6.807   2.276   3.175  0.00  0.00    +0.145 HD
ATOM     13  H   UNL     1       5.143   2.506   3.195  0.00  0.00    +0.145 HD
ENDBRANCH   9  11
BRANCH  10  14
ATOM     14  C   UNL     1       3.386   1.202   2.447  0.00  0.00    +0.100 C 
ATOM     15  N   UNL     1       2.523   1.879   2.741  0.00  0.00    -0.191 NA
ENDBRANCH  10  14
BRANCH   1  16
ATOM     16  C   UNL     1       3.711  -0.707  -0.038  0.00  0.00    +0.049 C 
BRANCH  16  20
ATOM     17  C   UNL     1      -0.017   1.378   0.010  0.00  0.00    +0.000 A 
ATOM     18  C   UNL     1       1.171   2.086   0.002  0.00  0.00    +0.000 A 
ATOM     19  C   UNL     1       2.377   1.411  -0.013  0.00  0.00    +0.003 A 
ATOM     20  C   UNL     1       2.396   0.029  -0.020  0.00  0.00    -0.046 A 
ATOM     21  C   UNL     1       1.208  -0.679  -0.012  0.00  0.00    +0.003 A 
ATOM     22  C   UNL     1       0.002  -0.004   0.002  0.00  0.00    +0.000 A 
ENDBRANCH  16  20
ENDBRANCH   1  16
BRANCH   3  23
ATOM     23  C   UNL     1       4.502  -4.094   0.687  0.00  0.00    +0.132 C 
BRANCH  23  24
ATOM     24  S   UNL     1       4.313  -4.077  -1.117  0.00  0.00    -0.119 S 
BRANCH  24  25
ATOM     25  C   UNL     1       3.016  -5.231  -1.421  0.00  0.00    +0.008 A 
ATOM     26  C   UNL     1       2.409  -5.891  -0.359  0.00  0.00    +0.015 A 
ATOM     27  C   UNL     1       1.393  -6.795  -0.601  0.00  0.00    +0.001 A 
ATOM     28  C   UNL     1       0.980  -7.044  -1.897  0.00  0.00    +0.000 A 
ATOM     29  C   UNL     1       1.583  -6.389  -2.956  0.00  0.00    +0.001 A 
ATOM     30  C   UNL     1       2.595  -5.479  -2.721  0.00  0.00    +0.015 A 
ENDBRANCH  24  25
ENDBRANCH  23  24
ENDBRANCH   3  23
TORSDOF 7
