REMARK  Name = ZINC63899685
REMARK  3 active torsions:
REMARK  status: ('A' for Active; 'I' for Inactive)
REMARK    1  A    between atoms: C_1  and  C_2
REMARK    2  A    between atoms: N_10  and  C_11
REMARK    3  A    between atoms: C_17  and  C_21
REMARK                            x       y       z     vdW  Elec       q    Type
REMARK                         _______ _______ _______ _____ _____    ______ ____
ROOT
ATOM      1  C   UNL     1       0.150  -4.683  -1.342  0.00  0.00    +0.034 A 
ATOM      2  C   UNL     1       0.235  -3.904  -2.492  0.00  0.00    +0.025 A 
ATOM      3  C   UNL     1       0.327  -4.494  -3.731  0.00  0.00    +0.031 A 
ATOM      4  C   UNL     1       0.334  -5.889  -3.843  0.00  0.00    +0.089 A 
ATOM      5  C   UNL     1       0.248  -6.661  -2.676  0.00  0.00    +0.009 A 
ATOM      6  C   UNL     1       0.163  -6.074  -1.445  0.00  0.00    +0.031 A 
ATOM      7  C   UNL     1       0.285  -8.086  -3.178  0.00  0.00    +0.161 C 
ATOM      8  N   UNL     1       0.392  -7.925  -4.638  0.00  0.00    -0.297 N 
ATOM      9  N   UNL     1       0.413  -6.725  -4.915  0.00  0.00    -0.178 NA
ATOM     10  H   UNL     1       0.440  -8.650  -5.281  0.00  0.00    +0.183 HD
ENDROOT
BRANCH   1  20
ATOM     11  C   UNL     1       2.451  -6.530   4.313  0.00  0.00    +0.051 C 
ATOM     12  C   UNL     1       1.797  -5.854   3.135  0.00  0.00    +0.032 A 
ATOM     13  C   UNL     1       1.957  -6.351   1.874  0.00  0.00    +0.123 A 
ATOM     14  N   UNL     1       1.375  -5.747   0.840  0.00  0.00    -0.224 NA
ATOM     15  C   UNL     1       0.638  -4.666   1.003  0.00  0.00    +0.200 A 
ATOM     16  N   UNL     1       0.444  -4.126   2.236  0.00  0.00    -0.295 N 
ATOM     17  H   UNL     1      -0.101  -3.330   2.339  0.00  0.00    +0.172 HD
ATOM     18  C   UNL     1       1.008  -4.704   3.318  0.00  0.00    +0.256 A 
ATOM     19  O   UNL     1       0.841  -4.236   4.432  0.00  0.00    -0.267 OA
ATOM     20  N   UNL     1       0.058  -4.076  -0.090  0.00  0.00    -0.285 N 
ATOM     21  H   UNL     1      -0.417  -3.235   0.007  0.00  0.00    +0.155 HD
ENDBRANCH   1  20
BRANCH   7  22
ATOM     22  C   UNL     1       1.486  -8.813  -2.630  0.00  0.00    -0.018 A 
ATOM     23  C   UNL     1       2.729  -8.625  -3.204  0.00  0.00    +0.007 A 
ATOM     24  C   UNL     1       3.831  -9.292  -2.703  0.00  0.00    +0.022 A 
ATOM     25  C   UNL     1       3.690 -10.147  -1.624  0.00  0.00    +0.059 A 
ATOM     26  C   UNL     1       2.445 -10.334  -1.048  0.00  0.00    +0.060 A 
ATOM     27  C   UNL     1       1.344  -9.663  -1.549  0.00  0.00    +0.027 A 
ATOM     28 CL   UNL     1       2.267 -11.408   0.304  0.00  0.00    -0.082 Cl
ATOM     29 CL   UNL     1       5.074 -10.985  -0.994  0.00  0.00    -0.082 Cl
ENDBRANCH   7  22
TORSDOF 2
