REMARK  Name = ZINC01874527
REMARK  15 active torsions:
REMARK  status: ('A' for Active; 'I' for Inactive)
REMARK    1  A    between atoms: C_1  and  C_2
REMARK    2  A    between atoms: C_17  and  C_47
REMARK    3  A    between atoms: C_22  and  C_23
REMARK    4  A    between atoms: C_22  and  O_46
REMARK    5  A    between atoms: C_23  and  C_25
REMARK    6  A    between atoms: C_25  and  O_26
REMARK    7  A    between atoms: O_26  and  C_27
REMARK    8  A    between atoms: C_27  and  C_29
REMARK    9  A    between atoms: C_29  and  C_30
REMARK   10  A    between atoms: C_30  and  C_31
REMARK   11  A    between atoms: N_33  and  C_34
REMARK   12  A    between atoms: C_34  and  C_36
REMARK   13  A    between atoms: C_34  and  C_42
REMARK   14  A    between atoms: C_42  and  O_44
REMARK   15  A    between atoms: O_44  and  C_45
REMARK                            x       y       z     vdW  Elec       q    Type
REMARK                         _______ _______ _______ _____ _____    ______ ____
ROOT
ATOM      1  C   UNL     1      -5.917  -2.608  -0.066  0.00  0.00    +0.202 C 
ATOM      2  O   UNL     1      -5.910  -2.299  -1.234  0.00  0.00    -0.291 OA
ENDROOT
BRANCH   1  21
ATOM      3  C   UNL     1       0.924  -0.409  -0.243  0.00  0.00    +0.016 C 
ATOM      4  C   UNL     1       0.350  -1.825  -0.182  0.00  0.00    -0.007 C 
ATOM      5  C   UNL     1       0.656  -2.507  -1.504  0.00  0.00    +0.019 C 
ATOM      6  C   UNL     1       2.103  -2.998  -1.562  0.00  0.00    +0.080 C 
ATOM      7  C   UNL     1       2.307  -3.948  -0.399  0.00  0.00    +0.156 C 
ATOM      8  O   UNL     1       2.815  -5.040  -0.548  0.00  0.00    -0.293 OA
ATOM      9  C   UNL     1       1.859  -3.479   0.917  0.00  0.00    +0.046 C 
ATOM     10  C   UNL     1       0.945  -2.510   1.009  0.00  0.00    -0.060 C 
ATOM     11  C   UNL     1       0.527  -2.051   2.394  0.00  0.00    +0.032 C 
ATOM     12  C   UNL     1      -1.001  -2.000   2.451  0.00  0.00    +0.008 C 
ATOM     13  C   UNL     1      -1.521  -1.095   1.329  0.00  0.00    -0.003 C 
ATOM     14  C   UNL     1      -1.164  -1.706  -0.024  0.00  0.00    +0.002 C 
ATOM     15  C   UNL     1      -1.814  -3.091  -0.088  0.00  0.00    +0.005 C 
ATOM     16  C   UNL     1      -3.330  -2.908  -0.076  0.00  0.00    +0.010 C 
ATOM     17  C   UNL     1      -3.794  -2.223   1.211  0.00  0.00    +0.007 C 
ATOM     18  C   UNL     1      -3.023  -0.947   1.451  0.00  0.00    +0.002 C 
ATOM     19  C   UNL     1      -3.606   0.027   0.411  0.00  0.00    +0.008 C 
ATOM     20  C   UNL     1      -5.112  -0.321   0.397  0.00  0.00    +0.043 C 
ATOM     21  C   UNL     1      -5.241  -1.725   0.951  0.00  0.00    +0.133 C 
ATOM     22  C   UNL     1      -3.726  -3.171   2.410  0.00  0.00    +0.015 C 
BRANCH  21  23
ATOM     23  O   UNL     1      -5.986  -1.721   2.171  0.00  0.00    -0.380 OA
ATOM     24  H   UNL     1      -6.899  -1.420   2.073  0.00  0.00    +0.211 HD
ENDBRANCH  21  23
ENDBRANCH   1  21
BRANCH   1  25
ATOM     25  C   UNL     1      -6.602  -3.876   0.373  0.00  0.00    +0.309 C 
BRANCH  25  26
ATOM     26  O   UNL     1      -7.163  -4.534  -0.765  0.00  0.00    -0.457 OA
BRANCH  26  27
ATOM     27  C   UNL     1      -7.812  -5.687  -0.544  0.00  0.00    +0.308 C 
ATOM     28  O   UNL     1      -7.902  -6.124   0.579  0.00  0.00    -0.251 OA
BRANCH  27  29
ATOM     29  C   UNL     1      -8.430  -6.437  -1.696  0.00  0.00    +0.130 C 
BRANCH  29  30
ATOM     30  C   UNL     1      -9.104  -7.708  -1.174  0.00  0.00    +0.107 C 
BRANCH  30  31
ATOM     31  C   UNL     1      -9.722  -8.458  -2.326  0.00  0.00    +0.214 C 
ATOM     32  O   UNL     1      -9.632  -8.019  -3.454  0.00  0.00    -0.276 OA
ATOM     33  N   UNL     1     -10.374  -9.616  -2.104  0.00  0.00    -0.299 N 
ATOM     34  H   UNL     1     -10.446  -9.967  -1.203  0.00  0.00    +0.150 HD
BRANCH  33  35
ATOM     35  C   UNL     1     -10.974 -10.345  -3.224  0.00  0.00    +0.213 C 
BRANCH  35  36
ATOM     36  C   UNL     1     -11.083 -11.806  -2.872  0.00  0.00    -0.017 A 
ATOM     37  C   UNL     1     -11.463 -12.183  -1.597  0.00  0.00    +0.006 A 
ATOM     38  C   UNL     1     -11.563 -13.524  -1.274  0.00  0.00    +0.000 A 
ATOM     39  C   UNL     1     -11.283 -14.487  -2.225  0.00  0.00    +0.000 A 
ATOM     40  C   UNL     1     -10.904 -14.110  -3.500  0.00  0.00    +0.000 A 
ATOM     41  C   UNL     1     -10.808 -12.769  -3.825  0.00  0.00    +0.006 A 
ENDBRANCH  35  36
BRANCH  35  42
ATOM     42  C   UNL     1     -12.348  -9.793  -3.505  0.00  0.00    +0.332 C 
ATOM     43  O   UNL     1     -12.781  -8.883  -2.838  0.00  0.00    -0.248 OA
BRANCH  42  44
ATOM     44  O   UNL     1     -13.090 -10.311  -4.496  0.00  0.00    -0.466 OA
ATOM     45  C   UNL     1     -14.383  -9.738  -4.706  0.00  0.00    +0.280 C 
ENDBRANCH  42  44
ENDBRANCH  35  42
ENDBRANCH  33  35
ENDBRANCH  30  31
ENDBRANCH  29  30
ENDBRANCH  27  29
ENDBRANCH  26  27
ENDBRANCH  25  26
ENDBRANCH   1  25
TORSDOF 12
