REMARK  Name = ZINC59367438
REMARK  8 active torsions:
REMARK  status: ('A' for Active; 'I' for Inactive)
REMARK    1  A    between atoms: C_1  and  C_2
REMARK    2  A    between atoms: C_2  and  C_3
REMARK    3  A    between atoms: C_2  and  C_4
REMARK    4  A    between atoms: C_4  and  C_5
REMARK    5  A    between atoms: C_5  and  C_6
REMARK    6  A    between atoms: C_10  and  N_24
REMARK    7  A    between atoms: C_11  and  C_15
REMARK    8  A    between atoms: C_15  and  C_17
REMARK                            x       y       z     vdW  Elec       q    Type
REMARK                         _______ _______ _______ _____ _____    ______ ____
ROOT
ATOM      1  C   UNL     1      -2.800  -2.670  -0.067  0.00  0.00    +0.043 A 
ATOM      2  C   UNL     1      -3.242  -3.490  -1.095  0.00  0.00    +0.024 A 
ATOM      3  C   UNL     1      -4.534  -3.960  -1.102  0.00  0.00    +0.014 A 
ATOM      4  C   UNL     1      -5.404  -3.596  -0.045  0.00  0.00    +0.029 A 
ATOM      5  C   UNL     1      -6.795  -3.970   0.155  0.00  0.00    +0.052 A 
ATOM      6  C   UNL     1      -7.447  -3.487   1.274  0.00  0.00    +0.083 A 
ATOM      7  S   UNL     1      -6.199  -2.513   2.090  0.00  0.00    -0.064 S 
ATOM      8  C   UNL     1      -4.857  -2.758   0.954  0.00  0.00    +0.111 A 
ATOM      9  N   UNL     1      -3.611  -2.337   0.918  0.00  0.00    -0.244 NA
ENDROOT
BRANCH   5  10
ATOM     10  N   UNL     1      -7.449  -4.788  -0.752  0.00  0.00    -0.356 N 
ATOM     11  H   UNL     1      -6.979  -5.119  -1.533  0.00  0.00    +0.142 HD
ATOM     12  H   UNL     1      -8.377  -5.029  -0.606  0.00  0.00    +0.142 HD
ENDBRANCH   5  10
BRANCH   6  13
ATOM     13  C   UNL     1      -8.785  -3.713   1.674  0.00  0.00    +0.202 C 
ATOM     14  O   UNL     1      -9.549  -4.310   0.937  0.00  0.00    -0.286 OA
BRANCH  13  15
ATOM     15  C   UNL     1      -9.256  -3.224   2.988  0.00  0.00    +0.023 A 
ATOM     16  C   UNL     1     -10.616  -2.989   3.202  0.00  0.00    +0.013 A 
ATOM     17  C   UNL     1     -11.049  -2.533   4.430  0.00  0.00    +0.016 A 
ATOM     18  C   UNL     1     -10.139  -2.309   5.449  0.00  0.00    +0.018 A 
ATOM     19  C   UNL     1      -8.789  -2.541   5.243  0.00  0.00    +0.016 A 
ATOM     20  C   UNL     1      -8.344  -3.002   4.021  0.00  0.00    +0.013 A 
ATOM     21 BR   UNL     1     -10.741  -1.683   7.128  0.00  0.00    -0.050 Br
ENDBRANCH  13  15
ENDBRANCH   6  13
BRANCH   1  22
ATOM     22  C   UNL     1      -1.381  -2.161  -0.072  0.00  0.00    +0.056 C 
BRANCH  22  23
ATOM     23  C   UNL     1      -1.387  -0.634   0.030  0.00  0.00    +0.009 C 
BRANCH  23  25
ATOM     24  C   UNL     1       0.046   1.412   0.001  0.00  0.00    +0.007 C 
ATOM     25  C   UNL     1       0.053  -0.118   0.024  0.00  0.00    -0.017 C 
ATOM     26  C   UNL     1       0.775  -0.605   1.282  0.00  0.00    +0.007 C 
ENDBRANCH  23  25
ENDBRANCH  22  23
ENDBRANCH   1  22
TORSDOF 6
