REMARK  Name = ZINC39684624
REMARK  13 active torsions:
REMARK  status: ('A' for Active; 'I' for Inactive)
REMARK    1  A    between atoms: C_1  and  C_2
REMARK    2  A    between atoms: C_2  and  C_3
REMARK    3  A    between atoms: C_3  and  C_4
REMARK    4  A    between atoms: C_4  and  C_5
REMARK    5  A    between atoms: C_5  and  C_7
REMARK    6  A    between atoms: C_5  and  C_8
REMARK    7  A    between atoms: C_12  and  C_21
REMARK    8  A    between atoms: N_23  and  C_24
REMARK    9  A    between atoms: C_24  and  C_26
REMARK   10  A    between atoms: C_24  and  C_27
REMARK   11  A    between atoms: C_27  and  C_28
REMARK   12  A    between atoms: C_27  and  C_29
REMARK   13  A    between atoms: C_27  and  C_30
REMARK                            x       y       z     vdW  Elec       q    Type
REMARK                         _______ _______ _______ _____ _____    ______ ____
ROOT
ATOM      1  C   UNL     1       1.555  -4.155  -2.456  0.00  0.00    +0.218 C 
ATOM      2  O   UNL     1       1.166  -4.787  -1.497  0.00  0.00    -0.275 OA
ATOM      3  N   UNL     1       2.188  -4.785  -3.466  0.00  0.00    -0.300 N 
ATOM      4  C   UNL     1       2.736  -4.189  -4.707  0.00  0.00    +0.121 C 
ATOM      5  C   UNL     1       4.066  -4.939  -4.946  0.00  0.00    +0.100 C 
ATOM      6  C   UNL     1       3.898  -6.279  -4.210  0.00  0.00    -0.004 C 
ATOM      7  C   UNL     1       2.497  -6.230  -3.584  0.00  0.00    +0.115 C 
ATOM      8  C   UNL     1       4.953  -6.417  -3.116  0.00  0.00    -0.010 C 
ATOM      9  C   UNL     1       4.802  -7.781  -2.437  0.00  0.00    -0.082 C 
ATOM     10  N   UNL     1       4.960  -8.846  -3.435  0.00  0.00    +0.379 N 
ATOM     11  C   UNL     1       3.885  -8.762  -4.432  0.00  0.00    -0.082 C 
ATOM     12  C   UNL     1       3.998  -7.439  -5.195  0.00  0.00    -0.010 C 
ATOM     13  H   UNL     1       5.852  -8.745  -3.894  0.00  0.00    -0.086 HD
ATOM     14  H   UNL     1       4.920  -9.744  -2.975  0.00  0.00    -0.086 HD
ENDROOT
BRANCH   5  15
ATOM     15  C   UNL     1       4.281  -5.170  -6.419  0.00  0.00    +0.218 C 
ATOM     16  O   UNL     1       3.328  -5.327  -7.153  0.00  0.00    -0.275 OA
ATOM     17  N   UNL     1       5.531  -5.202  -6.921  0.00  0.00    -0.312 N 
ATOM     18  H   UNL     1       6.293  -5.077  -6.334  0.00  0.00    +0.149 HD
BRANCH  17  19
ATOM     19  C   UNL     1       5.740  -5.427  -8.354  0.00  0.00    +0.075 C 
ATOM     20  C   UNL     1       5.632  -4.095  -9.100  0.00  0.00    +0.028 C 
BRANCH  19  21
ATOM     21  C   UNL     1       7.129  -6.027  -8.579  0.00  0.00    -0.020 C 
ATOM     22  C   UNL     1       7.237  -7.358  -7.832  0.00  0.00    +0.012 C 
ATOM     23  C   UNL     1       7.347  -6.261 -10.075  0.00  0.00    +0.012 C 
ATOM     24  C   UNL     1       8.193  -5.060  -8.054  0.00  0.00    +0.012 C 
ENDBRANCH  19  21
ENDBRANCH  17  19
ENDBRANCH   5  15
BRANCH   1  25
ATOM     25  C   UNL     1       1.332  -2.666  -2.519  0.00  0.00    +0.072 C 
ATOM     26  C   UNL     1       0.489  -2.328  -3.751  0.00  0.00    +0.017 C 
BRANCH  25  27
ATOM     27  C   UNL     1       0.599  -2.206  -1.258  0.00  0.00    +0.012 C 
BRANCH  27  28
ATOM     28  C   UNL     1       0.482  -0.681  -1.262  0.00  0.00    +0.000 C 
BRANCH  28  30
ATOM     29  C   UNL     1      -0.368   1.304  -0.006  0.00  0.00    +0.004 C 
ATOM     30  C   UNL     1      -0.251  -0.221  -0.001  0.00  0.00    -0.003 C 
ENDBRANCH  28  30
ENDBRANCH  27  28
ENDBRANCH  25  27
ENDBRANCH   1  25
TORSDOF 7
