REMARK  Name = ZINC39686700
REMARK  8 active torsions:
REMARK  status: ('A' for Active; 'I' for Inactive)
REMARK    1  A    between atoms: C_1  and  C_2
REMARK    2  A    between atoms: C_2  and  C_4
REMARK    3  A    between atoms: C_2  and  N_13
REMARK    4  A    between atoms: C_4  and  C_5
REMARK    5  A    between atoms: C_10  and  O_11
REMARK    6  A    between atoms: O_11  and  C_12
REMARK    7  A    between atoms: C_14  and  C_16
REMARK    8  A    between atoms: C_27  and  C_29
REMARK                            x       y       z     vdW  Elec       q    Type
REMARK                         _______ _______ _______ _____ _____    ______ ____
ROOT
ATOM      1  C   UNL     1      -2.729  -0.615  -1.260  0.00  0.00    +0.100 C 
ATOM      2  C   UNL     1      -3.941  -0.122  -0.437  0.00  0.00    +0.121 C 
ATOM      3  N   UNL     1      -4.640   0.830  -1.333  0.00  0.00    -0.300 N 
ATOM      4  C   UNL     1      -4.552   0.206  -2.675  0.00  0.00    +0.115 C 
ATOM      5  C   UNL     1      -3.136  -0.401  -2.728  0.00  0.00    -0.004 C 
ATOM      6  C   UNL     1      -3.160  -1.735  -3.469  0.00  0.00    -0.010 C 
ATOM      7  C   UNL     1      -3.510  -1.490  -4.940  0.00  0.00    -0.082 C 
ATOM      8  N   UNL     1      -2.515  -0.593  -5.539  0.00  0.00    +0.379 N 
ATOM      9  C   UNL     1      -2.563   0.719  -4.881  0.00  0.00    -0.082 C 
ATOM     10  C   UNL     1      -2.173   0.568  -3.408  0.00  0.00    -0.010 C 
ATOM     11  C   UNL     1      -5.223   1.999  -1.002  0.00  0.00    +0.219 C 
ATOM     12  O   UNL     1      -5.144   2.416   0.135  0.00  0.00    -0.275 OA
ATOM     13  H   UNL     1      -1.595  -0.991  -5.426  0.00  0.00    -0.086 HD
ATOM     14  H   UNL     1      -2.713  -0.482  -6.522  0.00  0.00    -0.086 HD
ENDROOT
BRANCH  11  15
ATOM     15  C   UNL     1      -5.974   2.788  -2.043  0.00  0.00    +0.079 C 
ATOM     16  C   UNL     1      -6.010   4.268  -1.642  0.00  0.00    +0.017 C 
ATOM     17  C   UNL     1      -6.619   5.067  -2.797  0.00  0.00    +0.027 C 
ATOM     18  C   UNL     1      -7.898   4.428  -3.251  0.00  0.00    -0.031 C 
ATOM     19  C   UNL     1      -8.242   3.212  -2.967  0.00  0.00    -0.030 C 
ATOM     20  C   UNL     1      -7.412   2.273  -2.140  0.00  0.00    +0.039 C 
ENDBRANCH  11  15
BRANCH   1  22
ATOM     21  N   UNL     1      -0.282  -0.358  -1.013  0.00  0.00    -0.312 N 
ATOM     22  C   UNL     1      -1.505   0.201  -0.931  0.00  0.00    +0.218 C 
ATOM     23  O   UNL     1      -1.621   1.359  -0.593  0.00  0.00    -0.275 OA
ATOM     24  H   UNL     1      -0.189  -1.285  -1.283  0.00  0.00    +0.149 HD
BRANCH  21  26
ATOM     25  C   UNL     1       1.154   0.399   0.817  0.00  0.00    +0.028 C 
ATOM     26  C   UNL     1       0.908   0.434  -0.693  0.00  0.00    +0.074 C 
BRANCH  26  27
ATOM     27  C   UNL     1       2.121  -0.150  -1.420  0.00  0.00    +0.060 C 
BRANCH  27  28
ATOM     28  C   UNL     1       1.933  -0.004  -2.908  0.00  0.00    -0.004 A 
ATOM     29  C   UNL     1       1.398  -1.045  -3.643  0.00  0.00    +0.007 A 
ATOM     30  C   UNL     1       1.226  -0.911  -5.009  0.00  0.00    +0.000 A 
ATOM     31  C   UNL     1       1.587   0.264  -5.642  0.00  0.00    +0.004 A 
ATOM     32  C   UNL     1       2.121   1.308  -4.911  0.00  0.00    +0.046 A 
ATOM     33  C   UNL     1       2.290   1.178  -3.540  0.00  0.00    +0.123 A 
BRANCH  33  34
ATOM     34  O   UNL     1       2.811   2.205  -2.819  0.00  0.00    -0.495 OA
ATOM     35  C   UNL     1       3.156   3.392  -3.536  0.00  0.00    +0.277 C 
ENDBRANCH  33  34
ENDBRANCH  27  28
ENDBRANCH  26  27
ENDBRANCH  21  26
ENDBRANCH   1  22
TORSDOF 6
