REMARK  Name = ZINC38660217
REMARK  15 active torsions:
REMARK  status: ('A' for Active; 'I' for Inactive)
REMARK    1  A    between atoms: C_1  and  C_2
REMARK    2  A    between atoms: C_2  and  C_3
REMARK    3  A    between atoms: C_3  and  C_4
REMARK    4  A    between atoms: C_4  and  C_5
REMARK    5  A    between atoms: C_5  and  O_6
REMARK    6  A    between atoms: O_6  and  C_7
REMARK    7  A    between atoms: C_10  and  C_15
REMARK    8  A    between atoms: C_12  and  O_13
REMARK    9  A    between atoms: O_13  and  C_14
REMARK   10  A    between atoms: C_20  and  O_29
REMARK   11  A    between atoms: C_24  and  N_28
REMARK   12  A    between atoms: C_25  and  C_26
REMARK   13  A    between atoms: O_29  and  C_30
REMARK   14  A    between atoms: C_30  and  C_32
REMARK   15  A    between atoms: C_35  and  C_38
REMARK                            x       y       z     vdW  Elec       q    Type
REMARK                         _______ _______ _______ _____ _____    ______ ____
ROOT
ATOM      1  C   UNL     1      -7.765  -6.659   0.003  0.00  0.00    +0.098 C 
ATOM      2  C   UNL     1      -8.557  -6.262  -1.215  0.00  0.00    +0.008 A 
ATOM      3  C   UNL     1      -8.181  -6.742  -2.457  0.00  0.00    +0.012 A 
ATOM      4  C   UNL     1      -8.895  -6.389  -3.585  0.00  0.00    +0.047 A 
ATOM      5  C   UNL     1      -9.995  -5.550  -3.475  0.00  0.00    +0.135 A 
ATOM      6  C   UNL     1     -10.375  -5.068  -2.232  0.00  0.00    +0.093 A 
ATOM      7  C   UNL     1      -9.655  -5.424  -1.099  0.00  0.00    +0.138 A 
ATOM      8  O   UNL     1     -10.040  -4.944   0.109  0.00  0.00    -0.441 OA
ATOM      9  C   UNL     1      -9.629  -5.554   1.234  0.00  0.00    +0.199 C 
ATOM     10  C   UNL     1      -8.558  -6.377   1.249  0.00  0.00    +0.098 C 
ENDROOT
BRANCH   1  14
ATOM     11  C   UNL     1      -4.122  -4.421   0.111  0.00  0.00    +0.162 A 
ATOM     12  C   UNL     1      -5.342  -3.766   0.140  0.00  0.00    +0.050 A 
ATOM     13  C   UNL     1      -6.518  -4.492   0.105  0.00  0.00    +0.008 A 
ATOM     14  C   UNL     1      -6.481  -5.872   0.041  0.00  0.00    -0.031 A 
ATOM     15  C   UNL     1      -5.266  -6.533   0.012  0.00  0.00    +0.054 A 
ATOM     16  C   UNL     1      -4.084  -5.811   0.041  0.00  0.00    +0.162 A 
BRANCH  16  17
ATOM     17  O   UNL     1      -2.889  -6.459   0.006  0.00  0.00    -0.491 OA
ATOM     18  C   UNL     1      -2.926  -7.885  -0.066  0.00  0.00    +0.277 C 
ENDBRANCH  16  17
BRANCH  11  19
ATOM     19  O   UNL     1      -2.965  -3.709   0.145  0.00  0.00    -0.488 OA
BRANCH  19  20
ATOM     20  C   UNL     1      -3.080  -2.286   0.217  0.00  0.00    +0.229 C 
BRANCH  20  21
ATOM     21  C   UNL     1      -1.684  -1.662   0.247  0.00  0.00    +0.041 C 
BRANCH  21  22
ATOM     22  C   UNL     1      -1.808  -0.139   0.324  0.00  0.00    +0.003 C 
BRANCH  22  24
ATOM     23  C   UNL     1      -0.535   2.009   0.430  0.00  0.00    +0.004 C 
ATOM     24  C   UNL     1      -0.411   0.486   0.353  0.00  0.00    -0.003 C 
ENDBRANCH  22  24
ENDBRANCH  21  22
ENDBRANCH  20  21
ENDBRANCH  19  20
ENDBRANCH  11  19
ENDBRANCH   1  14
BRANCH   9  25
ATOM     25  N   UNL     1     -10.318  -5.333   2.401  0.00  0.00    -0.328 N 
ATOM     26  H   UNL     1     -11.088  -4.744   2.405  0.00  0.00    +0.145 HD
ATOM     27  H   UNL     1     -10.033  -5.766   3.221  0.00  0.00    +0.145 HD
ENDBRANCH   9  25
BRANCH  10  28
ATOM     28  C   UNL     1      -8.172  -6.996   2.481  0.00  0.00    +0.101 C 
ATOM     29  N   UNL     1      -7.865  -7.487   3.458  0.00  0.00    -0.191 NA
ENDBRANCH  10  28
BRANCH   5  30
ATOM     30  O   UNL     1     -10.699  -5.202  -4.584  0.00  0.00    -0.422 OA
BRANCH  30  31
ATOM     31  C   UNL     1     -11.427  -6.155  -5.197  0.00  0.00    +0.344 C 
ATOM     32  O   UNL     1     -11.525  -7.259  -4.698  0.00  0.00    -0.245 OA
BRANCH  31  33
ATOM     33  C   UNL     1     -12.106  -5.859  -6.474  0.00  0.00    +0.059 A 
ATOM     34  C   UNL     1     -11.991  -4.594  -7.053  0.00  0.00    +0.015 A 
ATOM     35  C   UNL     1     -12.627  -4.324  -8.247  0.00  0.00    +0.004 A 
ATOM     36  C   UNL     1     -13.379  -5.304  -8.871  0.00  0.00    -0.050 A 
ATOM     37  C   UNL     1     -13.497  -6.560  -8.303  0.00  0.00    +0.004 A 
ATOM     38  C   UNL     1     -12.862  -6.845  -7.112  0.00  0.00    +0.015 A 
ATOM     39  C   UNL     1     -14.072  -5.002 -10.175  0.00  0.00    +0.044 C 
ENDBRANCH  31  33
ENDBRANCH  30  31
ENDBRANCH   5  30
TORSDOF 12
