REMARK  Name = ZINC44658313
REMARK  9 active torsions:
REMARK  status: ('A' for Active; 'I' for Inactive)
REMARK    1  A    between atoms: C_1  and  C_2
REMARK    2  A    between atoms: C_2  and  N_3
REMARK    3  A    between atoms: N_3  and  C_4
REMARK    4  A    between atoms: C_4  and  C_5
REMARK    5  A    between atoms: C_6  and  C_8
REMARK    6  A    between atoms: C_8  and  S_9
REMARK    7  A    between atoms: S_9  and  C_10
REMARK    8  A    between atoms: C_14  and  C_23
REMARK    9  A    between atoms: N_15  and  C_16
REMARK                            x       y       z     vdW  Elec       q    Type
REMARK                         _______ _______ _______ _____ _____    ______ ____
ROOT
ATOM      1  C   UNL     1      -1.296  -0.571   4.938  0.00  0.00    +0.241 C 
ATOM      2  N   UNL     1      -0.027  -1.296   5.122  0.00  0.00    -0.237 N 
ATOM      3  N   UNL     1       0.908  -0.354   5.566  0.00  0.00    -0.169 NA
ATOM      4  C   UNL     1       0.373   0.833   5.673  0.00  0.00    +0.151 C 
ATOM      5  N   UNL     1      -0.981   0.817   5.314  0.00  0.00    -0.254 N 
ATOM      6  H   UNL     1       0.129  -2.241   4.966  0.00  0.00    +0.171 HD
ENDROOT
BRANCH   4   7
ATOM      7  C   UNL     1       1.065   1.978   6.095  0.00  0.00    +0.022 C 
ATOM      8  C   UNL     1       2.378   2.046   6.562  0.00  0.00    +0.006 A 
ATOM      9  C   UNL     1       3.374   1.064   6.752  0.00  0.00    +0.010 A 
ATOM     10  C   UNL     1       4.592   1.424   7.231  0.00  0.00    +0.001 A 
ATOM     11  C   UNL     1       4.891   2.752   7.546  0.00  0.00    +0.002 A 
ATOM     12  C   UNL     1       3.983   3.746   7.388  0.00  0.00    +0.026 A 
ATOM     13  C   UNL     1       2.688   3.447   6.891  0.00  0.00    +0.043 A 
ATOM     14  N   UNL     1       1.646   4.218   6.651  0.00  0.00    -0.380 N 
ATOM     15  C   UNL     1       0.546   3.399   6.133  0.00  0.00    +0.152 C 
ATOM     16  H   UNL     1       1.613   5.177   6.792  0.00  0.00    +0.160 HD
ENDBRANCH   4   7
BRANCH   5  17
ATOM     17  C   UNL     1      -1.860   1.903   5.311  0.00  0.00    +0.038 A 
ATOM     18  C   UNL     1      -1.933   2.737   4.202  0.00  0.00    +0.025 A 
ATOM     19  C   UNL     1      -2.803   3.809   4.202  0.00  0.00    +0.022 A 
ATOM     20  C   UNL     1      -3.601   4.054   5.305  0.00  0.00    +0.041 A 
ATOM     21  C   UNL     1      -3.531   3.226   6.411  0.00  0.00    +0.022 A 
ATOM     22  C   UNL     1      -2.668   2.148   6.414  0.00  0.00    +0.025 A 
ATOM     23 CL   UNL     1      -4.693   5.404   5.301  0.00  0.00    -0.084 Cl
ENDBRANCH   5  17
BRANCH   1  24
ATOM     24  S   UNL     1      -1.830  -0.655   3.207  0.00  0.00    -0.108 S 
BRANCH  24  25
ATOM     25  C   UNL     1      -0.431   0.037   2.282  0.00  0.00    +0.168 C 
BRANCH  25  27
ATOM     26  N   UNL     1       0.152   0.495  -0.078  0.00  0.00    -0.301 N 
ATOM     27  C   UNL     1      -0.748   0.025   0.809  0.00  0.00    +0.226 C 
ATOM     28  O   UNL     1      -1.812  -0.406   0.421  0.00  0.00    -0.275 OA
BRANCH  26  30
ATOM     29  C   UNL     1       1.310   2.516   0.668  0.00  0.00    +0.024 C 
ATOM     30  C   UNL     1       1.438   1.017   0.391  0.00  0.00    +0.104 C 
ENDBRANCH  26  30
BRANCH  26  31
ATOM     31  C   UNL     1      -0.156   0.485  -1.510  0.00  0.00    +0.104 C 
ATOM     32  C   UNL     1       0.313  -0.837  -2.122  0.00  0.00    +0.024 C 
ENDBRANCH  26  31
ENDBRANCH  25  27
ENDBRANCH  24  25
ENDBRANCH   1  24
TORSDOF 7
