REMARK  Name = ZINC09505397
REMARK  11 active torsions:
REMARK  status: ('A' for Active; 'I' for Inactive)
REMARK    1  A    between atoms: C_1  and  C_2
REMARK    2  A    between atoms: C_2  and  C_33
REMARK    3  A    between atoms: C_5  and  C_29
REMARK    4  A    between atoms: C_6  and  N_12
REMARK    5  A    between atoms: C_9  and  C_10
REMARK    6  A    between atoms: C_9  and  C_11
REMARK    7  A    between atoms: C_13  and  C_15
REMARK    8  A    between atoms: N_20  and  S_21
REMARK    9  A    between atoms: S_21  and  C_24
REMARK   10  A    between atoms: C_29  and  O_31
REMARK   11  A    between atoms: O_31  and  C_32
REMARK                            x       y       z     vdW  Elec       q    Type
REMARK                         _______ _______ _______ _____ _____    ______ ____
ROOT
ATOM      1  C   UNL     1      -2.026  -3.159  -0.702  0.00  0.00    -0.010 C 
ATOM      2  C   UNL     1      -0.835  -2.186  -0.775  0.00  0.00    -0.069 C 
ATOM      3  C   UNL     1      -1.218  -0.916  -0.005  0.00  0.00    +0.024 C 
ATOM      4  C   UNL     1       0.002  -0.004   0.002  0.00  0.00    -0.024 A 
ATOM      5  C   UNL     1      -0.018   1.443   0.010  0.00  0.00    +0.091 A 
ATOM      6  C   UNL     1       1.211   2.097   0.002  0.00  0.00    +0.086 A 
ATOM      7  S   UNL     1       2.354   0.795  -0.012  0.00  0.00    -0.079 S 
ATOM      8  C   UNL     1       1.231  -0.572  -0.003  0.00  0.00    -0.016 A 
ATOM      9  C   UNL     1       1.534  -2.034   0.001  0.00  0.00    -0.041 C 
ATOM     10  C   UNL     1       2.156  -2.397   1.363  0.00  0.00    -0.005 C 
ATOM     11  C   UNL     1       2.570  -2.342  -1.089  0.00  0.00    -0.005 C 
ATOM     12  C   UNL     1      -0.602  -1.836  -2.247  0.00  0.00    -0.010 C 
ATOM     13  N   UNL     1       0.331  -2.896  -0.186  0.00  0.00    +0.389 N 
ATOM     14  H   UNL     1       0.584  -3.673  -0.808  0.00  0.00    -0.084 HD
ATOM     15  H   UNL     1       0.054  -3.267   0.730  0.00  0.00    -0.084 HD
ENDROOT
BRANCH   6  16
ATOM     16  N   UNL     1       1.457   3.461   0.005  0.00  0.00    -0.278 N 
ATOM     17  C   UNL     1       2.726   3.917  -0.004  0.00  0.00    +0.236 C 
ATOM     18  O   UNL     1       3.651   3.133  -0.016  0.00  0.00    -0.274 OA
ATOM     19  H   UNL     1       0.717   4.088   0.014  0.00  0.00    +0.155 HD
BRANCH  17  20
ATOM     20  C   UNL     1       2.994   5.399  -0.001  0.00  0.00    +0.166 C 
ATOM     21  C   UNL     1       2.433   6.031   1.290  0.00  0.00    +0.031 C 
ATOM     22  C   UNL     1       3.679   6.105   2.212  0.00  0.00    +0.019 C 
ATOM     23  C   UNL     1       4.802   6.418   1.191  0.00  0.00    +0.110 C 
ATOM     24  N   UNL     1       4.443   5.645  -0.013  0.00  0.00    -0.164 NA
BRANCH  24  25
ATOM     25  S   UNL     1       5.499   5.138  -1.183  0.00  0.00    +0.068 S 
ATOM     26  O   UNL     1       6.781   5.075  -0.574  0.00  0.00    -0.152 OA
ATOM     27  O   UNL     1       4.898   4.014  -1.812  0.00  0.00    -0.152 OA
BRANCH  25  28
ATOM     28  C   UNL     1       5.581   6.411  -2.398  0.00  0.00    +0.143 A 
ATOM     29  C   UNL     1       6.413   7.480  -2.460  0.00  0.00    +0.036 A 
ATOM     30  C   UNL     1       6.298   8.358  -3.521  0.00  0.00    +0.010 A 
ATOM     31  C   UNL     1       5.349   8.132  -4.462  0.00  0.00    +0.047 A 
ATOM     32  S   UNL     1       4.584   6.634  -3.863  0.00  0.00    -0.077 S 
ENDBRANCH  25  28
ENDBRANCH  24  25
ENDBRANCH  17  20
ENDBRANCH   6  16
BRANCH   5  33
ATOM     33  C   UNL     1      -1.271   2.200   0.032  0.00  0.00    +0.342 C 
ATOM     34  O   UNL     1      -1.777   2.509   1.094  0.00  0.00    -0.245 OA
BRANCH  33  35
ATOM     35  O   UNL     1      -1.865   2.555  -1.126  0.00  0.00    -0.464 OA
ATOM     36  C   UNL     1      -3.105   3.303  -1.028  0.00  0.00    +0.280 C 
ENDBRANCH  33  35
ENDBRANCH   5  33
TORSDOF 6
