REMARK  Name = ZINC10658087
REMARK  7 active torsions:
REMARK  status: ('A' for Active; 'I' for Inactive)
REMARK    1  A    between atoms: C_1  and  C_2
REMARK    2  A    between atoms: C_3  and  C_22
REMARK    3  A    between atoms: C_7  and  N_21
REMARK    4  A    between atoms: C_9  and  C_11
REMARK    5  A    between atoms: C_11  and  C_13
REMARK    6  A    between atoms: C_11  and  S_14
REMARK    7  A    between atoms: S_14  and  C_15
REMARK                            x       y       z     vdW  Elec       q    Type
REMARK                         _______ _______ _______ _____ _____    ______ ____
ROOT
ATOM      1  C   UNL     1      -1.596   1.384   0.669  0.00  0.00    +0.045 C 
ATOM      2  C   UNL     1      -1.424  -0.111   0.597  0.00  0.00    -0.028 A 
ATOM      3  C   UNL     1      -2.079  -0.826  -0.330  0.00  0.00    -0.008 A 
ATOM      4  S   UNL     1      -1.557  -2.500  -0.011  0.00  0.00    -0.074 S 
ATOM      5  C   UNL     1      -0.472  -2.195   1.358  0.00  0.00    +0.114 A 
ATOM      6  C   UNL     1      -0.541  -0.794   1.526  0.00  0.00    +0.050 A 
ATOM      7  C   UNL     1       0.255  -0.267   2.579  0.00  0.00    +0.128 A 
ATOM      8  N   UNL     1       0.991  -1.091   3.307  0.00  0.00    -0.216 NA
ATOM      9  C   UNL     1       1.012  -2.394   3.089  0.00  0.00    +0.145 A 
ATOM     10  N   UNL     1       0.286  -2.944   2.134  0.00  0.00    -0.224 NA
ATOM     11  C   UNL     1      -3.032  -0.331  -1.388  0.00  0.00    +0.052 C 
ENDROOT
BRANCH   7  12
ATOM     12  N   UNL     1       0.262   1.092   2.839  0.00  0.00    -0.343 N 
ATOM     13  H   UNL     1       0.110   1.724   2.119  0.00  0.00    +0.144 HD
ATOM     14  H   UNL     1       0.418   1.412   3.741  0.00  0.00    +0.144 HD
ENDBRANCH   7  12
BRANCH   9  15
ATOM     15  C   UNL     1       1.873  -3.273   3.958  0.00  0.00    +0.118 C 
ATOM     16  C   UNL     1       3.340  -3.106   3.557  0.00  0.00    +0.027 C 
BRANCH  15  17
ATOM     17  S   UNL     1       1.664  -2.797   5.696  0.00  0.00    -0.086 S 
BRANCH  17  18
ATOM     18  C   UNL     1       2.605  -3.994   6.582  0.00  0.00    +0.161 A 
ATOM     19  N   UNL     1       3.314  -5.008   6.123  0.00  0.00    -0.133 NA
ATOM     20  N   UNL     1       3.981  -5.830   7.001  0.00  0.00    -0.125 NA
ATOM     21  C   UNL     1       3.909  -5.602   8.298  0.00  0.00    +0.180 A 
ATOM     22  S   UNL     1       2.861  -4.156   8.343  0.00  0.00    -0.025 S 
ATOM     23  N   UNL     1       4.495  -6.298   9.349  0.00  0.00    -0.336 N 
ATOM     24  H   UNL     1       5.050  -7.072   9.168  0.00  0.00    +0.144 HD
ATOM     25  H   UNL     1       4.349  -6.008  10.263  0.00  0.00    +0.144 HD
ENDBRANCH  17  18
ENDBRANCH  15  17
ENDBRANCH   9  15
TORSDOF 4
