REMARK  Name = ZINC11818665
REMARK  10 active torsions:
REMARK  status: ('A' for Active; 'I' for Inactive)
REMARK    1  A    between atoms: C_1  and  N_71
REMARK    2  A    between atoms: C_2  and  N_71
REMARK    3  A    between atoms: C_3  and  C_4
REMARK    4  A    between atoms: C_3  and  N_71
REMARK    5  A    between atoms: C_4  and  C_5
REMARK    6  A    between atoms: C_5  and  N_6
REMARK    7  A    between atoms: N_6  and  C_7
REMARK    8  A    between atoms: C_7  and  C_8
REMARK    9  A    between atoms: C_13  and  N_73
REMARK   10  A    between atoms: C_22  and  C_24
REMARK                            x       y       z     vdW  Elec       q    Type
REMARK                         _______ _______ _______ _____ _____    ______ ____
ROOT
ATOM      1  N   UNL     1       5.314   5.157   0.962  0.00  0.00    -0.296 N 
ATOM      2  C   UNL     1       5.332   5.675   2.207  0.00  0.00    +0.267 C 
ATOM      3  O   UNL     1       5.101   6.856   2.377  0.00  0.00    -0.268 OA
ENDROOT
BRANCH   2   4
ATOM      4  C   UNL     1       5.631   4.806   3.363  0.00  0.00    +0.150 A 
ATOM      5  C   UNL     1       5.794   5.218   4.706  0.00  0.00    +0.005 A 
ATOM      6  C   UNL     1       6.053   4.093   5.406  0.00  0.00    +0.040 A 
ATOM      7  N   UNL     1       6.045   3.066   4.525  0.00  0.00    -0.281 N 
ATOM      8  H   UNL     1       6.212   2.109   4.761  0.00  0.00    +0.189 HD
ATOM      9  N   UNL     1       5.793   3.498   3.342  0.00  0.00    -0.169 NA
ATOM     10  C   UNL     1       6.247   4.423   6.869  0.00  0.00    +0.055 C 
ATOM     11  C   UNL     1       5.650   5.836   7.044  0.00  0.00    +0.011 C 
ATOM     12  C   UNL     1       5.784   6.420   5.620  0.00  0.00    +0.039 C 
ENDBRANCH   2   4
BRANCH   1  13
ATOM     13  C   UNL     1       5.116   6.036  -0.194  0.00  0.00    +0.106 C 
BRANCH  13  14
ATOM     14  C   UNL     1       3.631   6.069  -0.560  0.00  0.00    +0.000 C 
BRANCH  14  15
ATOM     15  C   UNL     1       3.439   6.889  -1.838  0.00  0.00    -0.078 C 
BRANCH  15  18
ATOM     16  C   UNL     1       1.758   7.887  -3.267  0.00  0.00    -0.097 C 
ATOM     17  C   UNL     1       1.532   5.583  -2.558  0.00  0.00    -0.097 C 
ATOM     18  N   UNL     1       1.998   6.930  -2.166  0.00  0.00    +0.376 N 
ATOM     19  H   UNL     1       1.476   7.236  -1.338  0.00  0.00    -0.083 HD
ENDBRANCH  15  18
ENDBRANCH  14  15
ENDBRANCH  13  14
ENDBRANCH   1  13
BRANCH   1  20
ATOM     20  C   UNL     1       5.493   3.717   0.765  0.00  0.00    +0.111 C 
BRANCH  20  21
ATOM     21  C   UNL     1       6.963   3.422   0.462  0.00  0.00    +0.003 C 
ATOM     22  C   UNL     1       7.143   1.923   0.211  0.00  0.00    -0.014 C 
ATOM     23  C   UNL     1       8.625   1.625  -0.031  0.00  0.00    -0.078 C 
ATOM     24  C   UNL     1       9.287   3.487   1.372  0.00  0.00    -0.078 C 
ATOM     25  C   UNL     1       7.825   3.840   1.656  0.00  0.00    -0.014 C 
ATOM     26  N   UNL     1       9.397   2.027   1.164  0.00  0.00    +0.382 N 
ATOM     27  H   UNL     1       9.014   1.544   1.986  0.00  0.00    -0.081 HD
BRANCH  26  28
ATOM     28  C   UNL     1      10.815   1.646   1.001  0.00  0.00    -0.060 C 
ATOM     29  C   UNL     1      11.474   2.374  -0.190  0.00  0.00    +0.020 C 
ATOM     30  C   UNL     1      12.087   3.627   0.407  0.00  0.00    -0.046 A 
ATOM     31  C   UNL     1      12.522   4.790  -0.206  0.00  0.00    +0.004 A 
ATOM     32  C   UNL     1      13.050   5.818   0.550  0.00  0.00    +0.000 A 
ATOM     33  C   UNL     1      13.146   5.686   1.923  0.00  0.00    +0.000 A 
ATOM     34  C   UNL     1      12.714   4.527   2.535  0.00  0.00    +0.004 A 
ATOM     35  C   UNL     1      12.183   3.495   1.779  0.00  0.00    -0.046 A 
ATOM     36  C   UNL     1      11.646   2.144   2.202  0.00  0.00    +0.020 C 
ENDBRANCH  26  28
ENDBRANCH  20  21
ENDBRANCH   1  20
TORSDOF 8
