REMARK  Name = ZINC05462422
REMARK  9 active torsions:
REMARK  status: ('A' for Active; 'I' for Inactive)
REMARK    1  A    between atoms: C_1  and  C_2
REMARK    2  A    between atoms: C_5  and  C_8
REMARK    3  A    between atoms: C_11  and  C_23
REMARK    4  A    between atoms: N_18  and  C_19
REMARK    5  A    between atoms: C_19  and  C_20
REMARK    6  A    between atoms: C_20  and  C_21
REMARK    7  A    between atoms: C_21  and  O_22
REMARK    8  A    between atoms: C_26  and  C_30
REMARK    9  A    between atoms: C_28  and  O_29
REMARK                            x       y       z     vdW  Elec       q    Type
REMARK                         _______ _______ _______ _____ _____    ______ ____
ROOT
ATOM      1  C   UNL     1       0.059  -4.275  -0.021  0.00  0.00    +0.141 C 
ATOM      2  C   UNL     1       1.448  -4.776   0.267  0.00  0.00    +0.035 A 
ATOM      3  C   UNL     1       2.754  -4.818  -0.106  0.00  0.00    +0.075 A 
ATOM      4  N   UNL     1       3.402  -5.580   0.823  0.00  0.00    -0.276 N 
ATOM      5  H   UNL     1       4.351  -5.783   0.812  0.00  0.00    +0.189 HD
ATOM      6  N   UNL     1       2.570  -5.986   1.714  0.00  0.00    -0.168 NA
ATOM      7  C   UNL     1       1.358  -5.542   1.451  0.00  0.00    +0.153 A 
ATOM      8  C   UNL     1      -0.048  -5.524   1.895  0.00  0.00    +0.268 C 
ATOM      9  O   UNL     1      -0.469  -6.088   2.886  0.00  0.00    -0.268 OA
ATOM     10  N   UNL     1      -0.799  -4.796   1.049  0.00  0.00    -0.285 N 
ENDROOT
BRANCH   3  11
ATOM     11  C   UNL     1       3.356  -4.166  -1.290  0.00  0.00    +0.043 A 
ATOM     12  C   UNL     1       3.892  -4.940  -2.319  0.00  0.00    +0.034 A 
ATOM     13  C   UNL     1       4.452  -4.326  -3.422  0.00  0.00    +0.045 A 
ATOM     14  C   UNL     1       4.483  -2.944  -3.510  0.00  0.00    -0.029 A 
ATOM     15  C   UNL     1       3.954  -2.168  -2.496  0.00  0.00    +0.050 A 
ATOM     16  C   UNL     1       3.384  -2.770  -1.386  0.00  0.00    +0.126 A 
ATOM     17  C   UNL     1       5.097  -2.283  -4.717  0.00  0.00    +0.045 C 
ATOM     18 CL   UNL     1       5.121  -5.290  -4.702  0.00  0.00    -0.083 Cl
BRANCH  16  19
ATOM     19  O   UNL     1       2.858  -2.008  -0.392  0.00  0.00    -0.506 OA
ATOM     20  H   UNL     1       3.491  -1.776   0.301  0.00  0.00    +0.292 HD
ENDBRANCH  16  19
ENDBRANCH   3  11
BRANCH   1  25
ATOM     21  C   UNL     1      -0.018   1.503   0.010  0.00  0.00    +0.044 C 
ATOM     22  C   UNL     1       0.002  -0.004   0.002  0.00  0.00    -0.050 A 
ATOM     23  C   UNL     1       0.006  -0.689  -1.199  0.00  0.00    +0.004 A 
ATOM     24  C   UNL     1       0.025  -2.071  -1.206  0.00  0.00    +0.006 A 
ATOM     25  C   UNL     1       0.040  -2.768  -0.013  0.00  0.00    -0.022 A 
ATOM     26  C   UNL     1       0.037  -2.084   1.188  0.00  0.00    +0.006 A 
ATOM     27  C   UNL     1       0.023  -0.702   1.195  0.00  0.00    +0.004 A 
ENDBRANCH   1  25
BRANCH  10  28
ATOM     28  C   UNL     1      -2.239  -4.560   1.175  0.00  0.00    +0.111 C 
BRANCH  28  29
ATOM     29  C   UNL     1      -3.003  -5.659   0.434  0.00  0.00    +0.047 C 
BRANCH  29  30
ATOM     30  C   UNL     1      -4.507  -5.413   0.566  0.00  0.00    +0.157 C 
BRANCH  30  31
ATOM     31  O   UNL     1      -5.221  -6.439  -0.127  0.00  0.00    -0.395 OA
ATOM     32  H   UNL     1      -6.182  -6.347  -0.085  0.00  0.00    +0.209 HD
ENDBRANCH  30  31
ENDBRANCH  29  30
ENDBRANCH  28  29
ENDBRANCH  10  28
TORSDOF 7
