REMARK  Name = ZINC40392886
REMARK  3 active torsions:
REMARK  status: ('A' for Active; 'I' for Inactive)
REMARK    1  A    between atoms: C_1  and  C_2
REMARK    2  A    between atoms: C_14  and  C_15
REMARK    3  A    between atoms: C_18  and  C_21
REMARK                            x       y       z     vdW  Elec       q    Type
REMARK                         _______ _______ _______ _____ _____    ______ ____
ROOT
ATOM      1  C   UNL     1       0.030   1.464   0.033  0.00  0.00    +0.063 C 
ATOM      2  C   UNL     1      -1.445   1.153   0.051  0.00  0.00    +0.014 A 
ATOM      3  C   UNL     1      -1.847  -0.139   0.031  0.00  0.00    +0.033 A 
ATOM      4  C   UNL     1      -3.222  -0.436   0.048  0.00  0.00    +0.036 A 
ATOM      5  C   UNL     1      -4.151   0.628   0.086  0.00  0.00    +0.101 A 
ATOM      6  C   UNL     1      -3.669   1.953   0.104  0.00  0.00    +0.099 A 
ATOM      7  S   UNL     1      -4.763   3.268   0.149  0.00  0.00    -0.032 S 
ATOM      8  N   UNL     1      -2.339   2.176   0.092  0.00  0.00    -0.352 N 
ATOM      9  H   UNL     1      -2.013   3.090   0.109  0.00  0.00    +0.166 HD
ATOM     10  C   UNL     1      -5.473   0.013   0.096  0.00  0.00    +0.348 C 
ATOM     11  O   UNL     1      -6.533   0.611   0.125  0.00  0.00    -0.244 OA
ATOM     12  O   UNL     1      -5.328  -1.324   0.066  0.00  0.00    -0.422 OA
ATOM     13  C   UNL     1      -4.016  -1.665   0.037  0.00  0.00    +0.141 C 
ATOM     14  C   UNL     1      -3.523  -2.928   0.003  0.00  0.00    +0.055 C 
ENDROOT
BRANCH  14  15
ATOM     15  C   UNL     1      -4.434  -4.075   0.112  0.00  0.00    -0.022 A 
ATOM     16  C   UNL     1      -3.919  -5.373   0.213  0.00  0.00    +0.008 A 
ATOM     17  C   UNL     1      -4.769  -6.438   0.313  0.00  0.00    +0.009 A 
ATOM     18  C   UNL     1      -6.149  -6.233   0.315  0.00  0.00    -0.018 A 
ATOM     19  C   UNL     1      -6.665  -4.940   0.214  0.00  0.00    +0.009 A 
ATOM     20  C   UNL     1      -5.820  -3.871   0.120  0.00  0.00    +0.008 A 
BRANCH  18  21
ATOM     21  C   UNL     1      -7.069  -7.390   0.424  0.00  0.00    -0.018 A 
ATOM     22  C   UNL     1      -6.558  -8.683   0.531  0.00  0.00    +0.008 A 
ATOM     23  C   UNL     1      -7.419  -9.756   0.632  0.00  0.00    +0.001 A 
ATOM     24  C   UNL     1      -8.787  -9.552   0.629  0.00  0.00    +0.000 A 
ATOM     25  C   UNL     1      -9.300  -8.271   0.523  0.00  0.00    +0.001 A 
ATOM     26  C   UNL     1      -8.449  -7.189   0.426  0.00  0.00    +0.008 A 
ENDBRANCH  18  21
ENDBRANCH  14  15
TORSDOF 2
