REMARK  Name = ZINC18336452
REMARK  5 active torsions:
REMARK  status: ('A' for Active; 'I' for Inactive)
REMARK    1  A    between atoms: C_1  and  C_2
REMARK    2  A    between atoms: C_2  and  C_4
REMARK    3  A    between atoms: C_2  and  S_16
REMARK    4  A    between atoms: S_16  and  C_17
REMARK    5  A    between atoms: N_21  and  C_22
REMARK                            x       y       z     vdW  Elec       q    Type
REMARK                         _______ _______ _______ _____ _____    ______ ____
ROOT
ATOM      1  C   UNL     1       4.006   6.200  -3.386  0.00  0.00    +0.027 C 
ATOM      2  C   UNL     1       2.766   6.850  -2.769  0.00  0.00    +0.117 C 
ENDROOT
BRANCH   2   3
ATOM      3  C   UNL     1       2.039   7.645  -3.823  0.00  0.00    +0.124 A 
ATOM      4  N   UNL     1       2.296   8.975  -3.919  0.00  0.00    -0.309 N 
ATOM      5  H   UNL     1       2.935   9.386  -3.316  0.00  0.00    +0.170 HD
ATOM      6  C   UNL     1       1.673   9.732  -4.853  0.00  0.00    +0.259 A 
ATOM      7  O   UNL     1       1.898  10.924  -4.953  0.00  0.00    -0.267 OA
ATOM      8  C   UNL     1       0.710   9.059  -5.737  0.00  0.00    +0.065 A 
ATOM      9  C   UNL     1       0.012   9.748  -6.727  0.00  0.00    +0.015 A 
ATOM     10  C   UNL     1      -0.879   9.067  -7.528  0.00  0.00    +0.001 A 
ATOM     11  C   UNL     1      -1.085   7.704  -7.356  0.00  0.00    +0.002 A 
ATOM     12  C   UNL     1      -0.405   7.005  -6.384  0.00  0.00    +0.028 A 
ATOM     13  C   UNL     1       0.503   7.673  -5.560  0.00  0.00    +0.078 A 
ATOM     14  N   UNL     1       1.194   7.024  -4.590  0.00  0.00    -0.233 NA
ENDBRANCH   2   3
BRANCH   2  15
ATOM     15  S   UNL     1       1.670   5.564  -2.120  0.00  0.00    -0.076 S 
BRANCH  15  16
ATOM     16  C   UNL     1       2.690   4.910  -0.841  0.00  0.00    +0.174 A 
ATOM     17  N   UNL     1       3.897   5.325  -0.533  0.00  0.00    -0.230 NA
ATOM     18  C   UNL     1       4.372   4.593   0.489  0.00  0.00    +0.131 A 
ATOM     19  C   UNL     1       3.437   3.694   0.838  0.00  0.00    +0.113 A 
ATOM     20  N   UNL     1       2.359   3.889   0.000  0.00  0.00    -0.295 N 
BRANCH  20  21
ATOM     21  C   UNL     1       1.156   3.170   0.008  0.00  0.00    +0.050 A 
ATOM     22  C   UNL     1       1.174   1.782   0.000  0.00  0.00    +0.026 A 
ATOM     23  C   UNL     1      -0.013   1.076   0.008  0.00  0.00    +0.003 A 
ATOM     24  C   UNL     1      -1.220   1.750   0.017  0.00  0.00    +0.020 A 
ATOM     25  C   UNL     1      -1.242   3.134   0.030  0.00  0.00    +0.043 A 
ATOM     26  C   UNL     1      -0.057   3.845   0.022  0.00  0.00    +0.046 A 
ATOM     27 CL   UNL     1      -2.760   3.976   0.048  0.00  0.00    -0.083 Cl
ENDBRANCH  20  21
ENDBRANCH  15  16
ENDBRANCH   2  15
TORSDOF 4
