REMARK  Name = ZINC33532909
REMARK  10 active torsions:
REMARK  status: ('A' for Active; 'I' for Inactive)
REMARK    1  A    between atoms: C_1  and  C_2
REMARK    2  A    between atoms: C_2  and  C_3
REMARK    3  A    between atoms: C_12  and  C_13
REMARK    4  A    between atoms: C_13  and  C_15
REMARK    5  A    between atoms: C_13  and  C_33
REMARK    6  A    between atoms: C_15  and  C_16
REMARK    7  A    between atoms: N_21  and  C_24
REMARK    8  A    between atoms: C_29  and  O_30
REMARK    9  A    between atoms: O_30  and  C_31
REMARK   10  A    between atoms: C_31  and  C_32
REMARK                            x       y       z     vdW  Elec       q    Type
REMARK                         _______ _______ _______ _____ _____    ______ ____
ROOT
ATOM      1  C   UNL     1       0.632   3.111   5.700  0.00  0.00    +0.060 C 
ENDROOT
BRANCH   1  11
ATOM      2  C   UNL     1       0.796   2.138   0.782  0.00  0.00    -0.024 A 
ATOM      3  C   UNL     1      -0.509   2.460   0.480  0.00  0.00    +0.005 A 
ATOM      4  C   UNL     1      -1.378   2.899   1.470  0.00  0.00    +0.001 A 
ATOM      5  C   UNL     1      -0.953   3.019   2.763  0.00  0.00    +0.010 A 
ATOM      6  C   UNL     1       0.366   2.697   3.092  0.00  0.00    +0.004 A 
ATOM      7  C   UNL     1       1.248   2.247   2.093  0.00  0.00    +0.050 A 
ATOM      8  N   UNL     1       2.462   2.014   2.699  0.00  0.00    -0.360 N 
ATOM      9  H   UNL     1       3.316   1.657   2.103  0.00  0.00    +0.165 HD
ATOM     10  C   UNL     1       2.376   2.291   4.036  0.00  0.00    +0.088 A 
ATOM     11  C   UNL     1       1.136   2.708   4.338  0.00  0.00    -0.015 A 
BRANCH   2  13
ATOM     12  C   UNL     1       1.741   0.133  -0.329  0.00  0.00    +0.009 C 
ATOM     13  C   UNL     1       1.728   1.662  -0.302  0.00  0.00    +0.034 C 
ENDBRANCH   2  13
ENDBRANCH   1  11
BRANCH   1  14
ATOM     14  C   UNL     1       0.766   1.948   6.649  0.00  0.00    -0.039 A 
ATOM     15  C   UNL     1       2.010   1.399   6.897  0.00  0.00    +0.007 A 
ATOM     16  C   UNL     1       2.135   0.336   7.771  0.00  0.00    +0.038 A 
ATOM     17  C   UNL     1       1.012  -0.186   8.391  0.00  0.00    +0.123 A 
ATOM     18  C   UNL     1      -0.234   0.362   8.138  0.00  0.00    +0.038 A 
ATOM     19  C   UNL     1      -0.356   1.428   7.267  0.00  0.00    +0.007 A 
ATOM     20  F   UNL     1       1.132  -1.228   9.242  0.00  0.00    -0.205 F 
ENDBRANCH   1  14
BRANCH   1  21
ATOM     21  C   UNL     1       1.455   4.291   6.219  0.00  0.00    +0.109 C 
BRANCH  21  22
ATOM     22  C   UNL     1       0.875   4.773   7.524  0.00  0.00    +0.217 C 
ATOM     23  O   UNL     1      -0.102   4.226   7.992  0.00  0.00    -0.276 OA
ATOM     24  N   UNL     1       1.440   5.811   8.170  0.00  0.00    -0.298 N 
ATOM     25  C   UNL     1       2.628   6.485   7.623  0.00  0.00    +0.126 C 
ATOM     26  C   UNL     1       2.351   7.996   7.588  0.00  0.00    +0.124 C 
ATOM     27  N   UNL     1       1.944   8.446   8.925  0.00  0.00    -0.324 N 
ATOM     28  C   UNL     1       0.685   7.812   9.340  0.00  0.00    +0.124 C 
ATOM     29  C   UNL     1       0.889   6.298   9.445  0.00  0.00    +0.126 C 
BRANCH  27  30
ATOM     30  C   UNL     1       1.843   9.841   8.977  0.00  0.00    +0.072 A 
ATOM     31  C   UNL     1       1.899  10.586   7.808  0.00  0.00    +0.027 A 
ATOM     32  C   UNL     1       1.795  11.963   7.860  0.00  0.00    +0.002 A 
ATOM     33  C   UNL     1       1.646  12.602   9.077  0.00  0.00    +0.004 A 
ATOM     34  C   UNL     1       1.595  11.867  10.247  0.00  0.00    +0.047 A 
ATOM     35  C   UNL     1       1.694  10.486  10.202  0.00  0.00    +0.141 A 
BRANCH  35  36
ATOM     36  O   UNL     1       1.645   9.762  11.352  0.00  0.00    -0.490 OA
BRANCH  36  37
ATOM     37  C   UNL     1       1.490  10.490  12.572  0.00  0.00    +0.226 C 
ATOM     38  C   UNL     1       1.456   9.513  13.749  0.00  0.00    +0.048 C 
ENDBRANCH  36  37
ENDBRANCH  35  36
ENDBRANCH  27  30
ENDBRANCH  21  22
ENDBRANCH   1  21
TORSDOF 8
