REMARK  Name = ZINC35828366
REMARK  9 active torsions:
REMARK  status: ('A' for Active; 'I' for Inactive)
REMARK    1  A    between atoms: C_1  and  C_2
REMARK    2  A    between atoms: C_5  and  C_9
REMARK    3  A    between atoms: C_6  and  C_8
REMARK    4  A    between atoms: C_11  and  C_19
REMARK    5  A    between atoms: C_19  and  O_21
REMARK    6  A    between atoms: O_21  and  C_22
REMARK    7  A    between atoms: C_22  and  C_24
REMARK    8  A    between atoms: C_22  and  C_25
REMARK    9  A    between atoms: N_30  and  C_31
REMARK                            x       y       z     vdW  Elec       q    Type
REMARK                         _______ _______ _______ _____ _____    ______ ____
ROOT
ATOM      1  C   UNL     1       0.130  -4.396  -0.138  0.00  0.00    +0.073 A 
ATOM      2  C   UNL     1      -0.006  -5.091  -1.349  0.00  0.00    +0.044 A 
ATOM      3  C   UNL     1       0.082  -6.476  -1.354  0.00  0.00    +0.070 A 
ATOM      4  C   UNL     1       0.318  -7.138  -0.070  0.00  0.00    +0.014 A 
ATOM      5  C   UNL     1       0.423  -8.530   0.027  0.00  0.00    +0.011 A 
ATOM      6  C   UNL     1       0.643  -9.106   1.243  0.00  0.00    +0.001 A 
ATOM      7  C   UNL     1       0.764  -8.326   2.391  0.00  0.00    +0.002 A 
ATOM      8  C   UNL     1       0.667  -6.970   2.332  0.00  0.00    +0.028 A 
ATOM      9  C   UNL     1       0.441  -6.339   1.095  0.00  0.00    +0.072 A 
ATOM     10  N   UNL     1       0.347  -5.012   1.006  0.00  0.00    -0.247 NA
ENDROOT
BRANCH   1  15
ATOM     11  C   UNL     1      -0.245   1.350  -0.173  0.00  0.00    +0.044 C 
ATOM     12  C   UNL     1      -0.147  -0.154  -0.164  0.00  0.00    -0.050 A 
ATOM     13  C   UNL     1       0.674  -0.797  -1.074  0.00  0.00    +0.004 A 
ATOM     14  C   UNL     1       0.768  -2.173  -1.070  0.00  0.00    +0.010 A 
ATOM     15  C   UNL     1       0.034  -2.917  -0.146  0.00  0.00    +0.003 A 
ATOM     16  C   UNL     1      -0.791  -2.264   0.768  0.00  0.00    -0.041 A 
ATOM     17  C   UNL     1      -0.873  -0.886   0.758  0.00  0.00    +0.007 A 
ATOM     18  C   UNL     1      -1.587  -3.061   1.769  0.00  0.00    +0.044 C 
ENDBRANCH   1  15
BRANCH   3  19
ATOM     19  C   UNL     1      -0.056  -7.252  -2.604  0.00  0.00    +0.341 C 
ATOM     20  O   UNL     1      -0.081  -8.465  -2.567  0.00  0.00    -0.245 OA
BRANCH  19  21
ATOM     21  O   UNL     1      -0.154  -6.612  -3.786  0.00  0.00    -0.449 OA
BRANCH  21  22
ATOM     22  C   UNL     1      -0.285  -7.424  -4.955  0.00  0.00    +0.259 C 
ATOM     23  C   UNL     1       1.104  -7.748  -5.509  0.00  0.00    +0.062 C 
BRANCH  22  24
ATOM     24  C   UNL     1      -1.081  -6.680  -5.996  0.00  0.00    +0.261 C 
ATOM     25  O   UNL     1      -1.417  -5.533  -5.797  0.00  0.00    -0.271 OA
ATOM     26  N   UNL     1      -1.418  -7.291  -7.149  0.00  0.00    -0.237 N 
ATOM     27  C   UNL     1      -2.130  -6.626  -8.081  0.00  0.00    +0.306 C 
ATOM     28  O   UNL     1      -2.467  -5.476  -7.881  0.00  0.00    -0.252 OA
ATOM     29  N   UNL     1      -2.468  -7.237  -9.233  0.00  0.00    -0.302 N 
ATOM     30  C   UNL     1      -3.242  -6.515 -10.246  0.00  0.00    +0.129 C 
ATOM     31  H   UNL     1      -1.149  -8.210  -7.308  0.00  0.00    +0.159 HD
ATOM     32  H   UNL     1      -2.199  -8.155  -9.393  0.00  0.00    +0.150 HD
ENDBRANCH  22  24
ENDBRANCH  21  22
ENDBRANCH  19  21
ENDBRANCH   3  19
TORSDOF 5
