REMARK  Name = ZINC06291820
REMARK  7 active torsions:
REMARK  status: ('A' for Active; 'I' for Inactive)
REMARK    1  A    between atoms: C_1  and  C_2
REMARK    2  A    between atoms: C_3  and  C_26
REMARK    3  A    between atoms: C_11  and  C_13
REMARK    4  A    between atoms: C_13  and  C_15
REMARK    5  A    between atoms: C_13  and  O_16
REMARK    6  A    between atoms: O_16  and  C_17
REMARK    7  A    between atoms: C_17  and  C_19
REMARK                            x       y       z     vdW  Elec       q    Type
REMARK                         _______ _______ _______ _____ _____    ______ ____
ROOT
ATOM      1  C   UNL     1       3.651   3.525  -0.013  0.00  0.00    +0.045 C 
ATOM      2  C   UNL     1       2.227   4.017   0.002  0.00  0.00    -0.026 A 
ATOM      3  C   UNL     1       1.964   5.333   0.012  0.00  0.00    -0.008 A 
ATOM      4  S   UNL     1       0.182   5.398   0.029  0.00  0.00    -0.073 S 
ATOM      5  C   UNL     1      -0.156   3.656   0.022  0.00  0.00    +0.116 A 
ATOM      6  C   UNL     1       1.124   3.074   0.007  0.00  0.00    +0.075 A 
ATOM      7  C   UNL     1       1.153   1.641  -0.000  0.00  0.00    +0.260 A 
ATOM      8  O   UNL     1       2.216   1.043  -0.013  0.00  0.00    -0.267 OA
ATOM      9  N   UNL     1      -0.011   0.966   0.007  0.00  0.00    -0.307 N 
ATOM     10  H   UNL     1       0.003  -0.034   0.006  0.00  0.00    +0.170 HD
ATOM     11  C   UNL     1      -1.204   1.615   0.017  0.00  0.00    +0.152 A 
ATOM     12  N   UNL     1      -1.263   2.920   0.029  0.00  0.00    -0.223 NA
ATOM     13  C   UNL     1       2.940   6.481   0.009  0.00  0.00    +0.052 C 
ENDROOT
BRANCH  11  14
ATOM     14  C   UNL     1      -2.481   0.816   0.019  0.00  0.00    +0.239 C 
ATOM     15  C   UNL     1      -3.651   1.724   0.403  0.00  0.00    +0.060 C 
BRANCH  14  16
ATOM     16  O   UNL     1      -2.710   0.265  -1.305  0.00  0.00    -0.450 OA
BRANCH  16  17
ATOM     17  C   UNL     1      -3.375  -0.904  -1.375  0.00  0.00    +0.341 C 
ATOM     18  O   UNL     1      -3.753  -1.450  -0.357  0.00  0.00    -0.245 OA
BRANCH  17  19
ATOM     19  C   UNL     1      -3.644  -1.524  -2.688  0.00  0.00    +0.077 A 
ATOM     20  C   UNL     1      -4.335  -2.740  -2.774  0.00  0.00    +0.019 A 
ATOM     21  C   UNL     1      -4.562  -3.278  -4.027  0.00  0.00    +0.041 A 
ATOM     22  C   UNL     1      -4.104  -2.604  -5.147  0.00  0.00    +0.129 A 
ATOM     23  N   UNL     1      -3.456  -1.458  -5.036  0.00  0.00    -0.243 NA
ATOM     24  C   UNL     1      -3.220  -0.904  -3.865  0.00  0.00    +0.127 A 
ATOM     25 CL   UNL     1      -4.386  -3.275  -6.723  0.00  0.00    -0.062 Cl
ENDBRANCH  17  19
ENDBRANCH  16  17
ENDBRANCH  14  16
ENDBRANCH  11  14
TORSDOF 4
