REMARK  Name = ZINC66738905
REMARK  2 active torsions:
REMARK  status: ('A' for Active; 'I' for Inactive)
REMARK    1  A    between atoms: N_9  and  C_23
REMARK    2  A    between atoms: C_23  and  C_24
REMARK                            x       y       z     vdW  Elec       q    Type
REMARK                         _______ _______ _______ _____ _____    ______ ____
ROOT
ATOM      1  C   UNL     1      -0.017   1.375   0.010  0.00  0.00    +0.001 A 
ATOM      2  C   UNL     1       1.168   2.095   0.002  0.00  0.00    +0.002 A 
ATOM      3  C   UNL     1       2.386   1.443  -0.008  0.00  0.00    +0.024 A 
ATOM      4  C   UNL     1       2.422   0.059  -0.013  0.00  0.00    +0.041 A 
ATOM      5  C   UNL     1       1.223  -0.675  -0.015  0.00  0.00    +0.058 A 
ATOM      6  C   UNL     1       0.002  -0.004   0.002  0.00  0.00    +0.015 A 
ATOM      7  C   UNL     1       1.292  -2.147  -0.051  0.00  0.00    +0.251 C 
ATOM      8  O   UNL     1       0.287  -2.812   0.108  0.00  0.00    -0.270 OA
ATOM      9  N   UNL     1       2.481  -2.748  -0.263  0.00  0.00    -0.262 N 
ATOM     10  C   UNL     1       3.665  -1.972  -0.620  0.00  0.00    +0.208 C 
ATOM     11  N   UNL     1       3.624  -0.641  -0.009  0.00  0.00    -0.312 N 
ATOM     12  C   UNL     1       3.808  -1.866  -2.107  0.00  0.00    +0.027 A 
ATOM     13  C   UNL     1       2.990  -1.306  -3.064  0.00  0.00    +0.051 A 
ATOM     14  C   UNL     1       3.423  -1.376  -4.385  0.00  0.00    +0.159 A 
ATOM     15  C   UNL     1       4.622  -1.982  -4.717  0.00  0.00    +0.160 A 
ATOM     16  C   UNL     1       5.449  -2.548  -3.756  0.00  0.00    +0.065 A 
ATOM     17  C   UNL     1       5.024  -2.481  -2.429  0.00  0.00    +0.044 A 
ATOM     18  N   UNL     1       5.641  -2.956  -1.284  0.00  0.00    -0.282 N 
ATOM     19  C   UNL     1       4.916  -2.701  -0.175  0.00  0.00    +0.264 C 
ATOM     20  O   UNL     1       5.210  -2.999   0.963  0.00  0.00    -0.271 OA
ATOM     21  F   UNL     1       4.998  -2.025  -6.014  0.00  0.00    -0.202 F 
ATOM     22  F   UNL     1       2.658  -0.843  -5.362  0.00  0.00    -0.202 F 
ATOM     23  H   UNL     1       4.419  -0.256   0.391  0.00  0.00    +0.149 HD
ATOM     24  H   UNL     1       6.495  -3.417  -1.279  0.00  0.00    +0.155 HD
ENDROOT
BRANCH   9  25
ATOM     25  C   UNL     1       2.586  -4.204  -0.132  0.00  0.00    +0.142 C 
BRANCH  25  26
ATOM     26  C   UNL     1       2.298  -4.859  -1.484  0.00  0.00    +0.136 C 
ATOM     27  C   UNL     1       2.370  -6.402  -1.360  0.00  0.00    +0.035 C 
ATOM     28  C   UNL     1       1.462  -6.836  -2.543  0.00  0.00    +0.031 C 
ATOM     29  C   UNL     1       0.397  -5.718  -2.565  0.00  0.00    +0.160 C 
ATOM     30  O   UNL     1       0.952  -4.577  -1.899  0.00  0.00    -0.375 OA
ENDBRANCH  25  26
ENDBRANCH   9  25
TORSDOF 2
