REMARK  Name = ZINC02720718
REMARK  9 active torsions:
REMARK  status: ('A' for Active; 'I' for Inactive)
REMARK    1  A    between atoms: C_1  and  C_2
REMARK    2  A    between atoms: C_4  and  C_31
REMARK    3  A    between atoms: C_6  and  N_8
REMARK    4  A    between atoms: C_22  and  S_23
REMARK    5  A    between atoms: S_23  and  C_24
REMARK    6  A    between atoms: C_24  and  C_26
REMARK    7  A    between atoms: C_24  and  C_27
REMARK    8  A    between atoms: C_27  and  O_29
REMARK    9  A    between atoms: O_29  and  C_30
REMARK                            x       y       z     vdW  Elec       q    Type
REMARK                         _______ _______ _______ _____ _____    ______ ____
ROOT
ATOM      1  N   UNL     1       3.364   2.532  -0.016  0.00  0.00    -0.254 N 
ATOM      2  C   UNL     1       2.511   1.607  -0.505  0.00  0.00    +0.283 A 
ATOM      3  O   UNL     1       2.928   0.555  -0.961  0.00  0.00    -0.265 OA
ATOM      4  C   UNL     1       1.128   1.882  -0.478  0.00  0.00    +0.132 A 
ATOM      5  C   UNL     1       0.703   3.099   0.053  0.00  0.00    +0.104 A 
ATOM      6  C   UNL     1      -0.764   3.108  -0.049  0.00  0.00    +0.026 A 
ATOM      7  C   UNL     1      -1.745   4.034   0.308  0.00  0.00    +0.012 A 
ATOM      8  C   UNL     1      -3.063   3.750   0.082  0.00  0.00    +0.001 A 
ATOM      9  C   UNL     1      -3.433   2.546  -0.501  0.00  0.00    +0.002 A 
ATOM     10  C   UNL     1      -2.481   1.619  -0.862  0.00  0.00    +0.026 A 
ATOM     11  C   UNL     1      -1.131   1.890  -0.645  0.00  0.00    +0.049 A 
ATOM     12  N   UNL     1       0.016   1.165  -0.890  0.00  0.00    -0.349 N 
ATOM     13  H   UNL     1       0.041   0.284  -1.295  0.00  0.00    +0.166 HD
ATOM     14  N   UNL     1       1.604   3.976   0.523  0.00  0.00    -0.221 NA
ATOM     15  C   UNL     1       2.890   3.708   0.493  0.00  0.00    +0.178 A 
ENDROOT
BRANCH   1  21
ATOM     16  C   UNL     1       7.365   0.734   2.207  0.00  0.00    +0.044 C 
ATOM     17  C   UNL     1       6.708   1.415   1.034  0.00  0.00    -0.048 A 
ATOM     18  C   UNL     1       7.466   1.797  -0.057  0.00  0.00    +0.006 A 
ATOM     19  C   UNL     1       6.867   2.423  -1.134  0.00  0.00    -0.048 A 
ATOM     20  C   UNL     1       5.508   2.668  -1.124  0.00  0.00    +0.029 A 
ATOM     21  C   UNL     1       4.743   2.285  -0.030  0.00  0.00    +0.052 A 
ATOM     22  C   UNL     1       5.349   1.661   1.053  0.00  0.00    +0.029 A 
ATOM     23  C   UNL     1       7.697   2.837  -2.322  0.00  0.00    +0.044 C 
ENDBRANCH   1  21
BRANCH  15  24
ATOM     24  S   UNL     1       4.030   4.894   1.125  0.00  0.00    -0.073 S 
BRANCH  24  25
ATOM     25  C   UNL     1       2.880   6.192   1.641  0.00  0.00    +0.160 C 
ATOM     26  C   UNL     1       2.173   6.766   0.412  0.00  0.00    +0.031 C 
BRANCH  25  27
ATOM     27  C   UNL     1       3.641   7.289   2.340  0.00  0.00    +0.320 C 
ATOM     28  O   UNL     1       4.814   7.457   2.102  0.00  0.00    -0.250 OA
BRANCH  27  29
ATOM     29  O   UNL     1       3.016   8.079   3.228  0.00  0.00    -0.467 OA
ATOM     30  C   UNL     1       3.812   9.114   3.863  0.00  0.00    +0.280 C 
ENDBRANCH  27  29
ENDBRANCH  25  27
ENDBRANCH  24  25
ENDBRANCH  15  24
TORSDOF 5
