REMARK  Name = ZINC30953103
REMARK  7 active torsions:
REMARK  status: ('A' for Active; 'I' for Inactive)
REMARK    1  A    between atoms: C_1  and  C_2
REMARK    2  A    between atoms: C_3  and  N_9
REMARK    3  A    between atoms: C_4  and  C_8
REMARK    4  A    between atoms: C_10  and  C_12
REMARK    5  A    between atoms: C_12  and  S_13
REMARK    6  A    between atoms: S_13  and  C_14
REMARK    7  A    between atoms: C_16  and  C_19
REMARK                            x       y       z     vdW  Elec       q    Type
REMARK                         _______ _______ _______ _____ _____    ______ ____
ROOT
ATOM      1  C   UNL     1      -2.188   0.419   0.756  0.00  0.00    +0.171 C 
ENDROOT
BRANCH   1   3
ATOM      2  N   UNL     1       0.039   0.980  -0.165  0.00  0.00    -0.282 N 
ATOM      3  C   UNL     1      -0.924   1.240   0.742  0.00  0.00    +0.227 C 
ATOM      4  O   UNL     1      -0.774   2.135   1.546  0.00  0.00    -0.275 OA
ATOM      5  H   UNL     1      -0.123   0.208  -0.932  0.00  0.00    +0.155 HD
BRANCH   2   8
ATOM      6  C   UNL     1       2.737  -0.194   0.738  0.00  0.00    +0.067 C 
ATOM      7  C   UNL     1       2.455   1.208   0.263  0.00  0.00    +0.054 A 
ATOM      8  C   UNL     1       1.250   1.695  -0.130  0.00  0.00    +0.077 A 
ATOM      9  C   UNL     1       1.429   3.036  -0.499  0.00  0.00    +0.081 A 
ATOM     10  N   UNL     1       2.688   3.346  -0.327  0.00  0.00    -0.177 NA
ATOM     11  N   UNL     1       3.361   2.213   0.149  0.00  0.00    -0.280 N 
ATOM     12  H   UNL     1       4.413   2.039   0.416  0.00  0.00    +0.189 HD
ATOM     13  C   UNL     1       0.353   3.963  -1.004  0.00  0.00    +0.069 C 
ENDBRANCH   2   8
ENDBRANCH   1   3
BRANCH   1  14
ATOM     14  S   UNL     1      -3.278   1.009   2.080  0.00  0.00    -0.109 S 
BRANCH  14  15
ATOM     15  C   UNL     1      -4.691  -0.037   1.967  0.00  0.00    +0.046 A 
ATOM     16  C   UNL     1      -5.820  -0.032   2.726  0.00  0.00    +0.031 A 
ATOM     17  C   UNL     1      -6.817  -0.965   2.450  0.00  0.00    -0.010 A 
ATOM     18  C   UNL     1      -6.621  -1.847   1.426  0.00  0.00    +0.054 A 
ATOM     19  S   UNL     1      -5.011  -1.368   0.822  0.00  0.00    -0.090 S 
BRANCH  17  20
ATOM     20  C   UNL     1      -8.066  -0.998   3.250  0.00  0.00    -0.017 A 
ATOM     21  C   UNL     1      -8.251  -0.094   4.295  0.00  0.00    +0.010 A 
ATOM     22  C   UNL     1      -9.417  -0.125   5.032  0.00  0.00    +0.020 A 
ATOM     23  C   UNL     1     -10.397  -1.059   4.743  0.00  0.00    +0.041 A 
ATOM     24  C   UNL     1     -10.216  -1.962   3.710  0.00  0.00    +0.020 A 
ATOM     25  C   UNL     1      -9.056  -1.936   2.962  0.00  0.00    +0.010 A 
ATOM     26 CL   UNL     1     -11.858  -1.098   5.680  0.00  0.00    -0.084 Cl
ENDBRANCH  17  20
ENDBRANCH  14  15
ENDBRANCH   1  14
TORSDOF 5
