REMARK  Name = ZINC53113506
REMARK  7 active torsions:
REMARK  status: ('A' for Active; 'I' for Inactive)
REMARK    1  A    between atoms: C_1  and  C_2
REMARK    2  A    between atoms: C_7  and  C_9
REMARK    3  A    between atoms: C_7  and  N_11
REMARK    4  A    between atoms: C_9  and  O_10
REMARK    5  A    between atoms: N_11  and  S_12
REMARK    6  A    between atoms: S_12  and  C_15
REMARK    7  A    between atoms: C_17  and  N_20
REMARK                            x       y       z     vdW  Elec       q    Type
REMARK                         _______ _______ _______ _____ _____    ______ ____
ROOT
ATOM      1  N   UNL     1       2.184   1.866   1.224  0.00  0.00    -0.181 NA
ATOM      2  H   UNL     1       2.513   2.618   0.706  0.00  0.00    +0.149 HD
ENDROOT
BRANCH   1   8
ATOM      3  C   UNL     1       0.196   2.081  -0.276  0.00  0.00    +0.007 C 
ATOM      4  C   UNL     1       0.453   0.651  -0.756  0.00  0.00    -0.012 C 
ATOM      5  C   UNL     1       1.386   0.680  -1.968  0.00  0.00    +0.003 C 
ATOM      6  C   UNL     1       2.713   1.332  -1.574  0.00  0.00    +0.002 C 
ATOM      7  C   UNL     1       3.364   0.526  -0.448  0.00  0.00    +0.026 C 
ATOM      8  C   UNL     1       2.430   0.497   0.764  0.00  0.00    +0.063 C 
ATOM      9  C   UNL     1       1.103  -0.155   0.370  0.00  0.00    +0.029 C 
BRANCH   8  10
ATOM     10  C   UNL     1       3.081  -0.310   1.889  0.00  0.00    +0.179 C 
BRANCH  10  11
ATOM     11  O   UNL     1       4.313   0.307   2.267  0.00  0.00    -0.393 OA
ATOM     12  H   UNL     1       4.781  -0.152   2.978  0.00  0.00    +0.209 HD
ENDBRANCH  10  11
ENDBRANCH   8  10
ENDBRANCH   1   8
BRANCH   1  13
ATOM     13  S   UNL     1       1.344   2.130   2.626  0.00  0.00    +0.065 S 
ATOM     14  O   UNL     1       1.142   3.533   2.720  0.00  0.00    -0.153 OA
ATOM     15  O   UNL     1       0.267   1.203   2.635  0.00  0.00    -0.153 OA
BRANCH  13  16
ATOM     16  C   UNL     1       2.405   1.683   3.960  0.00  0.00    +0.144 A 
ATOM     17  C   UNL     1       3.404   2.400   4.532  0.00  0.00    +0.059 A 
ATOM     18  C   UNL     1       4.114   1.841   5.583  0.00  0.00    +0.034 A 
ATOM     19  C   UNL     1       3.786   0.591   6.005  0.00  0.00    +0.069 A 
ATOM     20  S   UNL     1       2.436   0.174   4.913  0.00  0.00    -0.075 S 
BRANCH  18  21
ATOM     21  N   UNL     1       5.158   2.554   6.201  0.00  0.00    -0.358 N 
ATOM     22  H   UNL     1       5.386   3.445   5.893  0.00  0.00    +0.142 HD
ATOM     23  H   UNL     1       5.650   2.155   6.936  0.00  0.00    +0.142 HD
ENDBRANCH  18  21
ENDBRANCH  13  16
ENDBRANCH   1  13
TORSDOF 6
