REMARK  Name = ZINC21255801
REMARK  12 active torsions:
REMARK  status: ('A' for Active; 'I' for Inactive)
REMARK    1  A    between atoms: C_1  and  C_2
REMARK    2  A    between atoms: C_2  and  O_3
REMARK    3  A    between atoms: O_3  and  C_4
REMARK    4  A    between atoms: C_7  and  C_12
REMARK    5  A    between atoms: C_9  and  O_10
REMARK    6  A    between atoms: O_10  and  C_11
REMARK    7  A    between atoms: C_17  and  C_27
REMARK    8  A    between atoms: C_30  and  O_33
REMARK    9  A    between atoms: O_33  and  C_34
REMARK   10  A    between atoms: C_34  and  C_35
REMARK   11  A    between atoms: C_35  and  C_36
REMARK   12  A    between atoms: C_35  and  C_37
REMARK                            x       y       z     vdW  Elec       q    Type
REMARK                         _______ _______ _______ _____ _____    ______ ____
ROOT
ATOM      1  C   UNL     1      -1.555  -7.949   4.270  0.00  0.00    +0.032 C 
ATOM      2  C   UNL     1      -2.053  -7.733   2.842  0.00  0.00    +0.059 C 
ATOM      3  C   UNL     1      -0.896  -7.312   1.949  0.00  0.00    +0.017 C 
ATOM      4  C   UNL     1       0.106  -6.569   2.443  0.00  0.00    +0.036 C 
ATOM      5  C   UNL     1       1.297  -6.056   1.665  0.00  0.00    +0.136 C 
ATOM      6  N   UNL     1       1.445  -6.642   0.350  0.00  0.00    -0.331 N 
ATOM      7  C   UNL     1       0.487  -6.435  -0.641  0.00  0.00    +0.049 A 
ATOM      8  C   UNL     1       0.775  -5.696  -1.779  0.00  0.00    +0.025 A 
ATOM      9  C   UNL     1      -0.227  -5.449  -2.701  0.00  0.00    +0.002 A 
ATOM     10  C   UNL     1      -1.505  -5.935  -2.495  0.00  0.00    +0.002 A 
ATOM     11  C   UNL     1      -1.790  -6.692  -1.372  0.00  0.00    +0.025 A 
ATOM     12  C   UNL     1      -0.785  -6.955  -0.458  0.00  0.00    +0.052 A 
ATOM     13  N   UNL     1      -0.989  -7.748   0.666  0.00  0.00    -0.316 N 
ATOM     14  C   UNL     1       0.116  -6.200   3.809  0.00  0.00    +0.163 C 
ATOM     15  O   UNL     1       1.030  -5.515   4.224  0.00  0.00    -0.292 OA
ATOM     16  C   UNL     1      -0.961  -6.624   4.762  0.00  0.00    +0.088 C 
ATOM     17  H   UNL     1       2.324  -7.261   0.119  0.00  0.00    +0.147 HD
ATOM     18  H   UNL     1      -1.242  -8.799   0.460  0.00  0.00    +0.152 HD
ENDROOT
BRANCH   1  22
ATOM     19  C   UNL     1      -4.819  -9.094   6.785  0.00  0.00    +0.162 A 
ATOM     20  C   UNL     1      -4.860  -7.894   6.095  0.00  0.00    +0.050 A 
ATOM     21  C   UNL     1      -3.804  -7.526   5.283  0.00  0.00    +0.008 A 
ATOM     22  C   UNL     1      -2.704  -8.354   5.157  0.00  0.00    -0.040 A 
ATOM     23  C   UNL     1      -2.658  -9.556   5.839  0.00  0.00    +0.053 A 
ATOM     24  C   UNL     1      -3.712  -9.928   6.659  0.00  0.00    +0.162 A 
BRANCH  24  25
ATOM     25  O   UNL     1      -3.666 -11.107   7.334  0.00  0.00    -0.491 OA
ATOM     26  C   UNL     1      -2.498 -11.912   7.157  0.00  0.00    +0.277 C 
ENDBRANCH  24  25
BRANCH  19  27
ATOM     27  O   UNL     1      -5.858  -9.458   7.583  0.00  0.00    -0.489 OA
BRANCH  27  29
ATOM     28  C   UNL     1      -8.024  -9.128   8.603  0.00  0.00    +0.048 C 
ATOM     29  C   UNL     1      -6.961  -8.553   7.665  0.00  0.00    +0.226 C 
ENDBRANCH  27  29
ENDBRANCH  19  27
ENDBRANCH   1  22
BRANCH   5  30
ATOM     30  C   UNL     1       1.161  -4.563   1.513  0.00  0.00    -0.023 A 
ATOM     31  C   UNL     1       0.102  -4.036   0.799  0.00  0.00    +0.009 A 
ATOM     32  C   UNL     1      -0.024  -2.667   0.658  0.00  0.00    +0.046 A 
ATOM     33  C   UNL     1       0.913  -1.822   1.233  0.00  0.00    +0.121 A 
ATOM     34  C   UNL     1       1.979  -2.354   1.944  0.00  0.00    +0.046 A 
ATOM     35  C   UNL     1       2.097  -3.723   2.088  0.00  0.00    +0.009 A 
BRANCH  33  36
ATOM     36  O   UNL     1       0.792  -0.476   1.096  0.00  0.00    -0.492 OA
BRANCH  36  37
ATOM     37  C   UNL     1       1.794   0.333   1.715  0.00  0.00    +0.232 C 
BRANCH  37  38
ATOM     38  C   UNL     1       1.491   1.810   1.454  0.00  0.00    +0.020 C 
ATOM     39  C   UNL     1       2.491   2.679   2.219  0.00  0.00    +0.010 C 
ATOM     40  C   UNL     1       1.608   2.097  -0.045  0.00  0.00    +0.010 C 
ENDBRANCH  37  38
ENDBRANCH  36  37
ENDBRANCH  33  36
ENDBRANCH   5  30
TORSDOF 8
