REMARK  Name = ZINC07511564
REMARK  7 active torsions:
REMARK  status: ('A' for Active; 'I' for Inactive)
REMARK    1  A    between atoms: C_1  and  C_2
REMARK    2  A    between atoms: C_4  and  C_25
REMARK    3  A    between atoms: C_5  and  C_9
REMARK    4  A    between atoms: C_6  and  C_8
REMARK    5  A    between atoms: C_15  and  C_17
REMARK    6  A    between atoms: C_17  and  S_18
REMARK    7  A    between atoms: S_18  and  C_19
REMARK                            x       y       z     vdW  Elec       q    Type
REMARK                         _______ _______ _______ _____ _____    ______ ____
ROOT
ATOM      1  C   UNL     1      -1.358   2.529   6.008  0.00  0.00    +0.081 A 
ATOM      2  C   UNL     1      -2.312   3.501   5.889  0.00  0.00    +0.076 A 
ATOM      3  S   UNL     1      -2.337   3.725   4.115  0.00  0.00    -0.060 S 
ATOM      4  C   UNL     1      -1.091   2.506   3.719  0.00  0.00    +0.165 A 
ATOM      5  N   UNL     1      -0.772   2.057   4.918  0.00  0.00    -0.225 NA
ATOM      6  N   UNL     1      -0.588   2.134   2.478  0.00  0.00    -0.264 N 
ATOM      7  C   UNL     1      -1.054   2.722   1.358  0.00  0.00    +0.229 C 
ATOM      8  O   UNL     1      -1.913   3.575   1.433  0.00  0.00    -0.275 OA
ATOM      9  H   UNL     1       0.098   1.451   2.418  0.00  0.00    +0.157 HD
ENDROOT
BRANCH   1  14
ATOM     10  C   UNL     1       0.102   0.511  11.200  0.00  0.00    +0.044 C 
ATOM     11  C   UNL     1      -0.280   1.039   9.841  0.00  0.00    -0.050 A 
ATOM     12  C   UNL     1      -0.642   0.159   8.837  0.00  0.00    +0.007 A 
ATOM     13  C   UNL     1      -0.993   0.637   7.590  0.00  0.00    -0.041 A 
ATOM     14  C   UNL     1      -0.982   2.009   7.345  0.00  0.00    +0.007 A 
ATOM     15  C   UNL     1      -0.612   2.891   8.360  0.00  0.00    -0.041 A 
ATOM     16  C   UNL     1      -0.268   2.402   9.603  0.00  0.00    +0.007 A 
ATOM     17  C   UNL     1      -0.592   4.375   8.100  0.00  0.00    +0.044 C 
ATOM     18  C   UNL     1      -1.386  -0.322   6.497  0.00  0.00    +0.044 C 
ENDBRANCH   1  14
BRANCH   7  19
ATOM     19  C   UNL     1      -0.509   2.318   0.012  0.00  0.00    +0.170 C 
BRANCH  19  20
ATOM     20  S   UNL     1      -1.330   3.282  -1.287  0.00  0.00    -0.116 S 
BRANCH  20  21
ATOM     21  C   UNL     1      -0.593   2.702  -2.778  0.00  0.00    +0.008 A 
ATOM     22  C   UNL     1       0.389   1.719  -2.734  0.00  0.00    +0.015 A 
ATOM     23  C   UNL     1       0.960   1.262  -3.905  0.00  0.00    +0.001 A 
ATOM     24  C   UNL     1       0.564   1.790  -5.121  0.00  0.00    +0.000 A 
ATOM     25  C   UNL     1      -0.408   2.772  -5.168  0.00  0.00    +0.001 A 
ATOM     26  C   UNL     1      -0.988   3.230  -4.002  0.00  0.00    +0.015 A 
ENDBRANCH  20  21
ENDBRANCH  19  20
ENDBRANCH   7  19
TORSDOF 4
