REMARK  Name = ZINC59910417
REMARK  12 active torsions:
REMARK  status: ('A' for Active; 'I' for Inactive)
REMARK    1  A    between atoms: C_1  and  C_2
REMARK    2  A    between atoms: C_2  and  C_3
REMARK    3  A    between atoms: C_2  and  C_4
REMARK    4  A    between atoms: C_7  and  S_12
REMARK    5  A    between atoms: N_8  and  C_9
REMARK    6  A    between atoms: C_9  and  C_10
REMARK    7  A    between atoms: S_12  and  C_13
REMARK    8  A    between atoms: C_13  and  C_14
REMARK    9  A    between atoms: N_16  and  C_17
REMARK   10  A    between atoms: C_22  and  S_23
REMARK   11  A    between atoms: S_23  and  C_24
REMARK   12  A    between atoms: C_24  and  C_25
REMARK                            x       y       z     vdW  Elec       q    Type
REMARK                         _______ _______ _______ _____ _____    ______ ____
ROOT
ATOM      1  C   UNL     1      -7.084  -3.168  -0.837  0.00  0.00    +0.228 C 
ATOM      2  O   UNL     1      -6.935  -3.752  -1.890  0.00  0.00    -0.275 OA
ATOM      3  N   UNL     1      -8.272  -3.214  -0.203  0.00  0.00    -0.284 N 
ATOM      4  H   UNL     1      -8.373  -2.802   0.669  0.00  0.00    +0.155 HD
ENDROOT
BRANCH   3   5
ATOM      5  C   UNL     1      -9.363  -3.858  -0.804  0.00  0.00    +0.047 A 
ATOM      6  C   UNL     1      -9.160  -4.986  -1.584  0.00  0.00    +0.024 A 
ATOM      7  C   UNL     1     -10.237  -5.620  -2.176  0.00  0.00    +0.002 A 
ATOM      8  C   UNL     1     -11.518  -5.132  -1.992  0.00  0.00    +0.001 A 
ATOM      9  C   UNL     1     -11.730  -4.008  -1.216  0.00  0.00    +0.016 A 
ATOM     10  C   UNL     1     -10.655  -3.369  -0.614  0.00  0.00    +0.029 A 
BRANCH  10  11
ATOM     11  S   UNL     1     -10.922  -1.940   0.382  0.00  0.00    -0.119 S 
BRANCH  11  12
ATOM     12  C   UNL     1     -12.719  -1.699   0.331  0.00  0.00    +0.109 C 
BRANCH  12  13
ATOM     13  C   UNL     1     -13.088  -0.491   1.154  0.00  0.00    -0.036 A 
ATOM     14  C   UNL     1     -13.373  -0.633   2.499  0.00  0.00    +0.004 A 
ATOM     15  C   UNL     1     -13.710   0.474   3.255  0.00  0.00    +0.001 A 
ATOM     16  C   UNL     1     -13.764   1.724   2.665  0.00  0.00    +0.015 A 
ATOM     17  C   UNL     1     -13.479   1.865   1.319  0.00  0.00    +0.018 A 
ATOM     18  C   UNL     1     -13.136   0.758   0.565  0.00  0.00    +0.019 A 
ATOM     19 BR   UNL     1     -13.553   3.574   0.512  0.00  0.00    -0.050 Br
ENDBRANCH  12  13
ENDBRANCH  11  12
ENDBRANCH  10  11
ENDBRANCH   3   5
BRANCH   1  20
ATOM     20  C   UNL     1      -5.940  -2.390  -0.239  0.00  0.00    +0.173 C 
BRANCH  20  21
ATOM     21  S   UNL     1      -4.490  -2.520  -1.320  0.00  0.00    -0.077 S 
BRANCH  21  25
ATOM     22  C   UNL     1      -1.394  -0.573   0.038  0.00  0.00    +0.137 A 
ATOM     23  N   UNL     1      -2.294  -0.345   0.953  0.00  0.00    -0.133 NA
ATOM     24  N   UNL     1      -3.395  -0.932   0.644  0.00  0.00    -0.122 NA
ATOM     25  C   UNL     1      -3.256  -1.571  -0.494  0.00  0.00    +0.192 A 
ATOM     26  N   UNL     1      -1.976  -1.358  -0.919  0.00  0.00    -0.302 N 
BRANCH  22  28
ATOM     27  C   UNL     1       0.013   1.469   0.046  0.00  0.00    +0.015 C 
ATOM     28  C   UNL     1       0.023  -0.061   0.033  0.00  0.00    +0.051 C 
ATOM     29  C   UNL     1       0.757  -0.577   1.272  0.00  0.00    +0.015 C 
ENDBRANCH  22  28
BRANCH  26  30
ATOM     30  C   UNL     1      -1.354  -1.866  -2.144  0.00  0.00    +0.152 C 
BRANCH  30  31
ATOM     31  C   UNL     1      -0.719  -3.204  -1.867  0.00  0.00    -0.013 C 
ATOM     32  C   UNL     1      -1.042  -4.246  -2.593  0.00  0.00    +0.005 C 
ENDBRANCH  30  31
ENDBRANCH  26  30
ENDBRANCH  21  25
ENDBRANCH  20  21
ENDBRANCH   1  20
TORSDOF 10
