REMARK  Name = ZINC39836307
REMARK  10 active torsions:
REMARK  status: ('A' for Active; 'I' for Inactive)
REMARK    1  A    between atoms: C_1  and  C_2
REMARK    2  A    between atoms: C_4  and  C_37
REMARK    3  A    between atoms: C_6  and  O_8
REMARK    4  A    between atoms: O_8  and  C_9
REMARK    5  A    between atoms: C_9  and  C_11
REMARK    6  A    between atoms: C_9  and  C_12
REMARK    7  A    between atoms: N_14  and  C_15
REMARK    8  A    between atoms: C_16  and  C_26
REMARK    9  A    between atoms: C_21  and  C_25
REMARK   10  A    between atoms: N_28  and  C_29
REMARK                            x       y       z     vdW  Elec       q    Type
REMARK                         _______ _______ _______ _____ _____    ______ ____
ROOT
ATOM      1  C   UNL     1       1.966  -2.934   6.716  0.00  0.00    +0.085 A 
ATOM      2  C   UNL     1       2.300  -2.549   8.004  0.00  0.00    +0.069 A 
ATOM      3  C   UNL     1       3.109  -3.470   8.784  0.00  0.00    -0.023 A 
ATOM      4  C   UNL     1       3.435  -4.607   8.132  0.00  0.00    -0.004 A 
ATOM      5  S   UNL     1       2.677  -4.445   6.542  0.00  0.00    -0.077 S 
ATOM      6  C   UNL     1       4.254  -5.743   8.661  0.00  0.00    +0.046 C 
ATOM      7  C   UNL     1       4.987  -5.263   9.922  0.00  0.00    -0.009 C 
ATOM      8  C   UNL     1       3.987  -4.550  10.836  0.00  0.00    +0.008 C 
ATOM      9  C   UNL     1       3.570  -3.217  10.212  0.00  0.00    +0.037 C 
ATOM     10  C   UNL     1       5.588  -6.465  10.654  0.00  0.00    +0.008 C 
ENDROOT
BRANCH   1  13
ATOM     11  C   UNL     1       0.977  -2.768   4.570  0.00  0.00    +0.258 C 
ATOM     12  O   UNL     1       1.426  -3.859   4.290  0.00  0.00    -0.271 OA
ATOM     13  N   UNL     1       1.211  -2.235   5.786  0.00  0.00    -0.276 N 
ATOM     14  H   UNL     1       0.852  -1.362   6.010  0.00  0.00    +0.155 HD
BRANCH  11  15
ATOM     15  C   UNL     1       0.157  -2.008   3.560  0.00  0.00    +0.256 C 
ATOM     16  C   UNL     1      -1.241  -1.752   4.126  0.00  0.00    +0.062 C 
BRANCH  15  17
ATOM     17  O   UNL     1       0.051  -2.775   2.359  0.00  0.00    -0.480 OA
BRANCH  17  23
ATOM     18  C   UNL     1      -0.902   1.454   0.118  0.00  0.00    +0.044 C 
ATOM     19  C   UNL     1      -0.649  -0.030   0.076  0.00  0.00    -0.047 A 
ATOM     20  C   UNL     1      -0.652  -0.698  -1.135  0.00  0.00    +0.007 A 
ATOM     21  C   UNL     1      -0.420  -2.060  -1.177  0.00  0.00    -0.047 A 
ATOM     22  C   UNL     1      -0.184  -2.758  -0.009  0.00  0.00    +0.049 A 
ATOM     23  C   UNL     1      -0.180  -2.091   1.208  0.00  0.00    +0.122 A 
ATOM     24  C   UNL     1      -0.408  -0.723   1.247  0.00  0.00    +0.049 A 
ATOM     25  C   UNL     1      -0.424  -2.784  -2.499  0.00  0.00    +0.044 C 
ENDBRANCH  17  23
ENDBRANCH  15  17
ENDBRANCH  11  15
ENDBRANCH   1  13
BRANCH   2  26
ATOM     26  C   UNL     1       1.857  -1.265   8.557  0.00  0.00    +0.247 C 
ATOM     27  O   UNL     1       0.798  -1.192   9.152  0.00  0.00    -0.270 OA
ATOM     28  N   UNL     1       2.623  -0.166   8.407  0.00  0.00    -0.307 N 
ATOM     29  H   UNL     1       3.468  -0.225   7.933  0.00  0.00    +0.149 HD
BRANCH  28  30
ATOM     30  C   UNL     1       2.181   1.117   8.959  0.00  0.00    +0.096 C 
ATOM     31  C   UNL     1       1.272   1.832   7.946  0.00  0.00    +0.046 C 
ATOM     32  C   UNL     1       1.062   3.305   8.374  0.00  0.00    +0.168 C 
ATOM     33  S   UNL     1       2.604   3.679   9.304  0.00  0.00    -0.029 S 
ATOM     34  O   UNL     1       2.270   3.970  10.654  0.00  0.00    -0.174 OA
ATOM     35  O   UNL     1       3.380   4.608   8.560  0.00  0.00    -0.174 OA
ATOM     36  C   UNL     1       3.414   2.025   9.230  0.00  0.00    +0.188 C 
ENDBRANCH  28  30
ENDBRANCH   2  26
TORSDOF 6
