REMARK  Name = ZINC02313307
REMARK  7 active torsions:
REMARK  status: ('A' for Active; 'I' for Inactive)
REMARK    1  A    between atoms: C_1  and  O_2
REMARK    2  A    between atoms: O_2  and  C_3
REMARK    3  A    between atoms: C_6  and  C_11
REMARK    4  A    between atoms: C_7  and  O_9
REMARK    5  A    between atoms: O_9  and  C_10
REMARK    6  A    between atoms: N_17  and  N_18
REMARK    7  A    between atoms: N_18  and  C_19
REMARK                            x       y       z     vdW  Elec       q    Type
REMARK                         _______ _______ _______ _____ _____    ______ ____
ROOT
ATOM      1  C   UNL     1      -1.110   7.092   1.843  0.00  0.00    +0.032 C 
ATOM      2  C   UNL     1      -0.503   7.929   0.961  0.00  0.00    +0.078 C 
ATOM      3  C   UNL     1      -0.397   9.398   0.991  0.00  0.00    +0.256 C 
ATOM      4  O   UNL     1      -0.890  10.053   1.892  0.00  0.00    -0.269 OA
ATOM      5  N   UNL     1       0.257   9.976  -0.003  0.00  0.00    -0.259 N 
ATOM      6  C   UNL     1       0.810   9.207  -1.018  0.00  0.00    +0.183 C 
ATOM      7  N   UNL     1       1.479   9.604  -2.063  0.00  0.00    -0.159 NA
ATOM      8  S   UNL     1       0.385   7.540  -0.539  0.00  0.00    -0.048 S 
ATOM      9  H   UNL     1       0.351  10.941  -0.022  0.00  0.00    +0.157 HD
ENDROOT
BRANCH   1  13
ATOM     10  C   UNL     1      -0.629   2.894   1.459  0.00  0.00    +0.124 A 
ATOM     11  C   UNL     1       0.262   3.757   0.829  0.00  0.00    +0.046 A 
ATOM     12  C   UNL     1       0.106   5.120   0.945  0.00  0.00    +0.015 A 
ATOM     13  C   UNL     1      -0.944   5.641   1.710  0.00  0.00    +0.018 A 
ATOM     14  C   UNL     1      -1.839   4.766   2.350  0.00  0.00    +0.131 A 
ATOM     15  C   UNL     1      -1.674   3.399   2.220  0.00  0.00    +0.091 A 
BRANCH  10  17
ATOM     16  C   UNL     1       0.625   1.098   0.537  0.00  0.00    +0.277 C 
ATOM     17  O   UNL     1      -0.471   1.551   1.334  0.00  0.00    -0.495 OA
ENDBRANCH  10  17
BRANCH  14  18
ATOM     18  O   UNL     1      -2.860   5.261   3.095  0.00  0.00    -0.494 OA
ATOM     19  C   UNL     1      -3.729   4.312   3.717  0.00  0.00    +0.277 C 
ENDBRANCH  14  18
ENDBRANCH   1  13
BRANCH   7  20
ATOM     20  N   UNL     1       1.960   8.666  -2.985  0.00  0.00    -0.236 N 
ATOM     21  H   UNL     1       1.795   7.720  -2.846  0.00  0.00    +0.174 HD
BRANCH  20  22
ATOM     22  C   UNL     1       2.676   9.091  -4.102  0.00  0.00    +0.048 A 
ATOM     23  C   UNL     1       2.909  10.447  -4.307  0.00  0.00    +0.025 A 
ATOM     24  C   UNL     1       3.622  10.863  -5.412  0.00  0.00    +0.002 A 
ATOM     25  C   UNL     1       4.096   9.935  -6.322  0.00  0.00    +0.000 A 
ATOM     26  C   UNL     1       3.863   8.586  -6.125  0.00  0.00    +0.002 A 
ATOM     27  C   UNL     1       3.154   8.161  -5.019  0.00  0.00    +0.025 A 
ENDBRANCH  20  22
ENDBRANCH   7  20
TORSDOF 5
