REMARK  Name = ZINC21249270
REMARK  7 active torsions:
REMARK  status: ('A' for Active; 'I' for Inactive)
REMARK    1  A    between atoms: C_1  and  C_2
REMARK    2  A    between atoms: C_2  and  C_3
REMARK    3  A    between atoms: C_2  and  O_4
REMARK    4  A    between atoms: O_4  and  C_5
REMARK    5  A    between atoms: C_8  and  C_11
REMARK    6  A    between atoms: C_16  and  C_26
REMARK    7  A    between atoms: C_30  and  O_32
REMARK                            x       y       z     vdW  Elec       q    Type
REMARK                         _______ _______ _______ _____ _____    ______ ____
ROOT
ATOM      1  C   UNL     1       1.814   1.966  -0.028  0.00  0.00    +0.032 C 
ATOM      2  C   UNL     1       0.340   1.565   0.007  0.00  0.00    +0.059 C 
ATOM      3  C   UNL     1       0.217   0.050   0.005  0.00  0.00    +0.017 C 
ATOM      4  C   UNL     1       1.145  -0.707   0.614  0.00  0.00    +0.036 C 
ATOM      5  C   UNL     1       1.135  -2.216   0.708  0.00  0.00    +0.136 C 
ATOM      6  N   UNL     1       0.161  -2.862  -0.146  0.00  0.00    -0.331 N 
ATOM      7  C   UNL     1      -1.206  -2.673   0.049  0.00  0.00    +0.049 A 
ATOM      8  C   UNL     1      -2.023  -3.704   0.485  0.00  0.00    +0.025 A 
ATOM      9  C   UNL     1      -3.353  -3.444   0.769  0.00  0.00    +0.002 A 
ATOM     10  C   UNL     1      -3.864  -2.168   0.619  0.00  0.00    +0.002 A 
ATOM     11  C   UNL     1      -3.055  -1.141   0.163  0.00  0.00    +0.025 A 
ATOM     12  C   UNL     1      -1.730  -1.403  -0.138  0.00  0.00    +0.052 A 
ATOM     13  N   UNL     1      -0.875  -0.429  -0.641  0.00  0.00    -0.316 N 
ATOM     14  C   UNL     1       2.265  -0.103   1.231  0.00  0.00    +0.163 C 
ATOM     15  O   UNL     1       3.078  -0.812   1.791  0.00  0.00    -0.292 OA
ATOM     16  C   UNL     1       2.487   1.380   1.219  0.00  0.00    +0.088 C 
ATOM     17  H   UNL     1       0.496  -3.516  -0.965  0.00  0.00    +0.147 HD
ATOM     18  H   UNL     1      -1.138  -0.044  -1.638  0.00  0.00    +0.152 HD
ENDROOT
BRANCH   1  22
ATOM     19  C   UNL     1       2.159   6.225   0.008  0.00  0.00    +0.121 A 
ATOM     20  C   UNL     1       2.674   5.495  -1.053  0.00  0.00    +0.046 A 
ATOM     21  C   UNL     1       2.561   4.119  -1.063  0.00  0.00    +0.007 A 
ATOM     22  C   UNL     1       1.936   3.468  -0.015  0.00  0.00    -0.043 A 
ATOM     23  C   UNL     1       1.417   4.193   1.042  0.00  0.00    +0.007 A 
ATOM     24  C   UNL     1       1.532   5.570   1.058  0.00  0.00    +0.046 A 
BRANCH  19  25
ATOM     25  O   UNL     1       2.268   7.580   0.020  0.00  0.00    -0.489 OA
BRANCH  25  27
ATOM     26  C   UNL     1       2.319   9.639  -1.244  0.00  0.00    +0.051 C 
ATOM     27  C   UNL     1       2.818   8.196  -1.147  0.00  0.00    +0.167 C 
ATOM     28  C   UNL     1       4.345   8.189  -1.056  0.00  0.00    +0.051 C 
ENDBRANCH  25  27
ENDBRANCH  19  25
ENDBRANCH   1  22
BRANCH   5  29
ATOM     29  C   UNL     1       0.848  -2.600   2.137  0.00  0.00    -0.019 A 
ATOM     30  C   UNL     1       1.811  -3.252   2.884  0.00  0.00    +0.006 A 
ATOM     31  C   UNL     1       1.551  -3.605   4.195  0.00  0.00    +0.004 A 
ATOM     32  C   UNL     1       0.326  -3.308   4.762  0.00  0.00    +0.045 A 
ATOM     33  C   UNL     1      -0.642  -2.654   4.014  0.00  0.00    +0.117 A 
ATOM     34  C   UNL     1      -0.376  -2.296   2.701  0.00  0.00    +0.051 A 
BRANCH  33  35
ATOM     35  O   UNL     1      -1.847  -2.360   4.570  0.00  0.00    -0.507 OA
ATOM     36  H   UNL     1      -2.614  -1.842   3.976  0.00  0.00    +0.292 HD
ENDBRANCH  33  35
ENDBRANCH   5  29
TORSDOF 5
