REMARK  Name = ZINC08632865
REMARK  8 active torsions:
REMARK  status: ('A' for Active; 'I' for Inactive)
REMARK    1  A    between atoms: C_5  and  N_7
REMARK    2  A    between atoms: N_12  and  C_15
REMARK    3  A    between atoms: C_15  and  C_16
REMARK    4  A    between atoms: C_16  and  O_18
REMARK    5  A    between atoms: O_18  and  C_19
REMARK    6  A    between atoms: C_19  and  C_20
REMARK    7  A    between atoms: N_22  and  C_23
REMARK    8  A    between atoms: C_24  and  C_31
REMARK                            x       y       z     vdW  Elec       q    Type
REMARK                         _______ _______ _______ _____ _____    ______ ____
ROOT
ATOM      1  O   UNL     1      -2.699  -1.891  -1.649  0.00  0.00    -0.454 OA
ENDROOT
BRANCH   1   2
ATOM      2  C   UNL     1      -1.619  -1.131  -1.409  0.00  0.00    +0.326 C 
ATOM      3  O   UNL     1      -0.986  -0.673  -2.332  0.00  0.00    -0.249 OA
BRANCH   2   4
ATOM      4  C   UNL     1      -1.194  -0.849   0.009  0.00  0.00    +0.237 C 
BRANCH   4  13
ATOM      5  C   UNL     1       3.344   3.203  -0.012  0.00  0.00    +0.003 A 
ATOM      6  C   UNL     1       1.962   3.087  -0.000  0.00  0.00    +0.014 A 
ATOM      7  C   UNL     1       1.378   1.831  -0.001  0.00  0.00    +0.052 A 
ATOM      8  C   UNL     1       2.192   0.679  -0.015  0.00  0.00    +0.080 A 
ATOM      9  C   UNL     1       3.571   0.810  -0.027  0.00  0.00    +0.139 A 
ATOM     10  C   UNL     1       4.141   2.074  -0.026  0.00  0.00    +0.033 A 
ATOM     11  C   UNL     1       1.264  -0.471  -0.013  0.00  0.00    +0.257 C 
ATOM     12  O   UNL     1       1.586  -1.642  -0.022  0.00  0.00    -0.269 OA
ATOM     13  N   UNL     1       0.002  -0.004   0.002  0.00  0.00    -0.223 N 
ATOM     14  C   UNL     1      -0.016   1.341   0.009  0.00  0.00    +0.254 C 
ATOM     15  O   UNL     1      -1.012   2.036   0.018  0.00  0.00    -0.270 OA
BRANCH   9  16
ATOM     16  N   UNL     1       4.431  -0.394  -0.042  0.00  0.00    +0.057 N 
ATOM     17  O   UNL     1       5.644  -0.276  -0.052  0.00  0.00    -0.126 OA
ATOM     18  O   UNL     1       3.927  -1.503  -0.043  0.00  0.00    -0.126 OA
ENDBRANCH   9  16
ENDBRANCH   4  13
ENDBRANCH   2   4
ENDBRANCH   1   2
BRANCH   1  19
ATOM     19  C   UNL     1      -3.049  -2.120  -3.039  0.00  0.00    +0.328 C 
BRANCH  19  20
ATOM     20  C   UNL     1      -4.279  -2.988  -3.111  0.00  0.00    +0.255 C 
ATOM     21  O   UNL     1      -4.808  -3.375  -2.091  0.00  0.00    -0.272 OA
ATOM     22  N   UNL     1      -4.790  -3.334  -4.309  0.00  0.00    -0.277 N 
ATOM     23  H   UNL     1      -4.367  -3.025  -5.125  0.00  0.00    +0.155 HD
BRANCH  22  24
ATOM     24  C   UNL     1      -5.922  -4.133  -4.375  0.00  0.00    +0.084 A 
ATOM     25  C   UNL     1      -6.592  -4.585  -5.499  0.00  0.00    +0.068 A 
ATOM     26  C   UNL     1      -7.770  -5.426  -5.293  0.00  0.00    -0.023 A 
ATOM     27  C   UNL     1      -8.084  -5.665  -4.006  0.00  0.00    -0.004 A 
ATOM     28  S   UNL     1      -6.845  -4.801  -3.072  0.00  0.00    -0.077 S 
ATOM     29  C   UNL     1      -9.306  -6.533  -3.875  0.00  0.00    +0.043 C 
ATOM     30  C   UNL     1      -9.479  -7.174  -5.270  0.00  0.00    +0.010 C 
ATOM     31  C   UNL     1      -8.793  -6.136  -6.180  0.00  0.00    +0.037 C 
BRANCH  25  32
ATOM     32  C   UNL     1      -6.134  -4.236  -6.847  0.00  0.00    +0.244 C 
ATOM     33  O   UNL     1      -5.336  -4.952  -7.423  0.00  0.00    -0.270 OA
ATOM     34  N   UNL     1      -6.597  -3.122  -7.449  0.00  0.00    -0.325 N 
ATOM     35  H   UNL     1      -7.233  -2.551  -6.990  0.00  0.00    +0.145 HD
ATOM     36  H   UNL     1      -6.294  -2.891  -8.341  0.00  0.00    +0.145 HD
ENDBRANCH  25  32
ENDBRANCH  22  24
ENDBRANCH  19  20
ENDBRANCH   1  19
TORSDOF 8
