REMARK  Name = ZINC40386071
REMARK  5 active torsions:
REMARK  status: ('A' for Active; 'I' for Inactive)
REMARK    1  A    between atoms: C_8  and  C_25
REMARK    2  A    between atoms: N_15  and  C_17
REMARK    3  A    between atoms: C_17  and  C_18
REMARK    4  A    between atoms: N_27  and  C_28
REMARK    5  A    between atoms: C_28  and  C_29
REMARK                            x       y       z     vdW  Elec       q    Type
REMARK                         _______ _______ _______ _____ _____    ______ ____
ROOT
ATOM      1  C   UNL     1      -0.017   1.378   0.010  0.00  0.00    +0.000 A 
ATOM      2  C   UNL     1       1.170   2.088   0.002  0.00  0.00    +0.002 A 
ATOM      3  C   UNL     1       2.376   1.417  -0.015  0.00  0.00    +0.023 A 
ATOM      4  C   UNL     1       2.399   0.026  -0.023  0.00  0.00    +0.033 A 
ATOM      5  C   UNL     1       1.207  -0.683  -0.013  0.00  0.00    -0.026 A 
ATOM      6  C   UNL     1       0.002  -0.004   0.002  0.00  0.00    +0.005 A 
ATOM      7  C   UNL     1       1.217  -2.184  -0.013  0.00  0.00    +0.051 C 
ATOM      8  C   UNL     1       2.439  -2.746  -0.707  0.00  0.00    +0.098 C 
ATOM      9  C   UNL     1       3.732  -2.068  -0.344  0.00  0.00    +0.069 C 
ATOM     10  N   UNL     1       3.613  -0.647  -0.044  0.00  0.00    -0.329 N 
ATOM     11  C   UNL     1       4.858   0.073   0.295  0.00  0.00    +0.087 C 
ATOM     12  C   UNL     1       5.526  -0.695   1.444  0.00  0.00    -0.059 C 
ATOM     13  N   UNL     1       5.733  -2.094   1.054  0.00  0.00    +0.388 N 
ATOM     14  C   UNL     1       4.444  -2.760   0.818  0.00  0.00    -0.055 C 
ATOM     15  H   UNL     1       6.283  -2.125   0.208  0.00  0.00    -0.081 HD
ENDROOT
BRANCH   8  16
ATOM     16  C   UNL     1       2.241  -2.623  -2.196  0.00  0.00    +0.218 C 
ATOM     17  O   UNL     1       3.019  -1.971  -2.860  0.00  0.00    -0.275 OA
ATOM     18  N   UNL     1       1.200  -3.239  -2.790  0.00  0.00    -0.311 N 
ATOM     19  H   UNL     1       0.578  -3.761  -2.259  0.00  0.00    +0.149 HD
BRANCH  18  20
ATOM     20  C   UNL     1       1.007  -3.120  -4.237  0.00  0.00    +0.139 C 
BRANCH  20  21
ATOM     21  C   UNL     1      -0.219  -3.895  -4.646  0.00  0.00    -0.030 A 
ATOM     22  C   UNL     1      -0.108  -5.228  -4.998  0.00  0.00    +0.008 A 
ATOM     23  C   UNL     1      -1.232  -5.939  -5.373  0.00  0.00    +0.038 A 
ATOM     24  C   UNL     1      -2.469  -5.318  -5.396  0.00  0.00    +0.123 A 
ATOM     25  C   UNL     1      -2.579  -3.983  -5.044  0.00  0.00    +0.038 A 
ATOM     26  C   UNL     1      -1.454  -3.275  -4.664  0.00  0.00    +0.008 A 
ATOM     27  F   UNL     1      -3.568  -6.013  -5.763  0.00  0.00    -0.205 F 
ENDBRANCH  20  21
ENDBRANCH  18  20
ENDBRANCH   8  16
BRANCH  13  28
ATOM     28  C   UNL     1       6.453  -2.795   2.125  0.00  0.00    +0.019 C 
BRANCH  28  29
ATOM     29  C   UNL     1       7.834  -2.210   2.269  0.00  0.00    +0.199 C 
ATOM     30  O   UNL     1       8.185  -1.299   1.549  0.00  0.00    -0.278 OA
ATOM     31  N   UNL     1       8.680  -2.699   3.197  0.00  0.00    -0.303 N 
ATOM     32  C   UNL     1       8.388  -3.800   4.126  0.00  0.00    +0.108 C 
ATOM     33  C   UNL     1       9.636  -3.993   5.014  0.00  0.00    +0.020 C 
ATOM     34  C   UNL     1      10.349  -2.619   4.914  0.00  0.00    +0.020 C 
ATOM     35  C   UNL     1      10.053  -2.223   3.444  0.00  0.00    +0.108 C 
ENDBRANCH  28  29
ENDBRANCH  13  28
TORSDOF 5
