REMARK  Name = ZINC60708000
REMARK  8 active torsions:
REMARK  status: ('A' for Active; 'I' for Inactive)
REMARK    1  A    between atoms: C_1  and  C_2
REMARK    2  A    between atoms: C_2  and  C_3
REMARK    3  A    between atoms: C_3  and  C_4
REMARK    4  A    between atoms: C_4  and  C_24
REMARK    5  A    between atoms: N_7  and  C_11
REMARK    6  A    between atoms: C_11  and  C_12
REMARK    7  A    between atoms: N_14  and  C_15
REMARK    8  A    between atoms: C_18  and  C_22
REMARK                            x       y       z     vdW  Elec       q    Type
REMARK                         _______ _______ _______ _____ _____    ______ ____
ROOT
ATOM      1  C   UNL     1       3.706  -3.922  -2.453  0.00  0.00    +0.214 C 
ENDROOT
BRANCH   1   5
ATOM      2  C   UNL     1       0.736  -2.031  -1.271  0.00  0.00    +0.110 C 
ATOM      3  C   UNL     1       1.633  -2.551  -2.376  0.00  0.00    +0.247 C 
ATOM      4  O   UNL     1       1.500  -2.381  -3.569  0.00  0.00    -0.273 OA
ATOM      5  N   UNL     1       2.611  -3.242  -1.757  0.00  0.00    -0.215 N 
ATOM      6  C   UNL     1       2.458  -3.231  -0.428  0.00  0.00    +0.310 C 
ATOM      7  O   UNL     1       3.214  -3.786   0.344  0.00  0.00    -0.252 OA
ATOM      8  N   UNL     1       1.372  -2.537  -0.042  0.00  0.00    -0.285 N 
ATOM      9  C   UNL     1      -0.680  -2.593  -1.414  0.00  0.00    +0.041 C 
ATOM     10  H   UNL     1       1.067  -2.396   0.868  0.00  0.00    +0.151 HD
BRANCH   2  11
ATOM     11  C   UNL     1       0.710  -0.502  -1.274  0.00  0.00    +0.035 C 
BRANCH  11  13
ATOM     12  C   UNL     1      -0.033   1.528  -0.020  0.00  0.00    +0.004 C 
ATOM     13  C   UNL     1      -0.007  -0.002  -0.018  0.00  0.00    -0.001 C 
ENDBRANCH  11  13
ENDBRANCH   2  11
ENDBRANCH   1   5
BRANCH   1  14
ATOM     14  C   UNL     1       4.866  -2.973  -2.612  0.00  0.00    +0.235 C 
ATOM     15  O   UNL     1       4.786  -1.840  -2.186  0.00  0.00    -0.274 OA
ATOM     16  N   UNL     1       5.993  -3.383  -3.228  0.00  0.00    -0.284 N 
ATOM     17  H   UNL     1       6.083  -4.307  -3.509  0.00  0.00    +0.155 HD
BRANCH  16  18
ATOM     18  C   UNL     1       7.029  -2.478  -3.461  0.00  0.00    +0.035 A 
ATOM     19  C   UNL     1       7.297  -1.476  -2.533  0.00  0.00    +0.024 A 
ATOM     20  C   UNL     1       8.319  -0.581  -2.759  0.00  0.00    +0.022 A 
ATOM     21  C   UNL     1       9.088  -0.680  -3.922  0.00  0.00    +0.070 A 
ATOM     22  C   UNL     1       8.817  -1.688  -4.852  0.00  0.00    +0.060 A 
ATOM     23  C   UNL     1       7.795  -2.584  -4.616  0.00  0.00    +0.044 A 
ATOM     24 CL   UNL     1       9.768  -1.816  -6.299  0.00  0.00    -0.082 Cl
BRANCH  21  25
ATOM     25  C   UNL     1      10.151   0.250  -4.160  0.00  0.00    +0.101 C 
ATOM     26  N   UNL     1      10.994   0.987  -4.349  0.00  0.00    -0.191 NA
ENDBRANCH  21  25
ENDBRANCH  16  18
ENDBRANCH   1  14
TORSDOF 6
