REMARK  Name = ZINC05299247
REMARK  5 active torsions:
REMARK  status: ('A' for Active; 'I' for Inactive)
REMARK    1  A    between atoms: C_1  and  S_2
REMARK    2  A    between atoms: S_2  and  C_3
REMARK    3  A    between atoms: C_13  and  C_15
REMARK    4  A    between atoms: C_16  and  C_17
REMARK    5  A    between atoms: C_20  and  N_23
REMARK                            x       y       z     vdW  Elec       q    Type
REMARK                         _______ _______ _______ _____ _____    ______ ____
ROOT
ATOM      1  C   UNL     1      -3.611   8.480   1.630  0.00  0.00    +0.034 A 
ATOM      2  C   UNL     1      -3.208   9.797   1.666  0.00  0.00    +0.017 A 
ATOM      3  C   UNL     1      -1.905  10.163   1.365  0.00  0.00    +0.002 A 
ATOM      4  C   UNL     1      -0.988   9.186   1.021  0.00  0.00    +0.017 A 
ATOM      5  C   UNL     1      -1.378   7.869   0.981  0.00  0.00    +0.042 A 
ATOM      6  C   UNL     1      -2.694   7.454   1.280  0.00  0.00    +0.094 A 
ATOM      7  N   UNL     1      -2.924   6.125   1.190  0.00  0.00    -0.223 NA
ATOM      8  C   UNL     1      -1.986   5.268   0.859  0.00  0.00    +0.166 A 
ATOM      9  S   UNL     1      -0.572   6.331   0.604  0.00  0.00    -0.052 S 
ATOM     10  N   UNL     1      -2.073   3.892   0.733  0.00  0.00    -0.261 N 
ATOM     11  C   UNL     1      -0.987   3.179   0.373  0.00  0.00    +0.243 C 
ATOM     12  O   UNL     1       0.069   3.744   0.159  0.00  0.00    -0.270 OA
ATOM     13  H   UNL     1      -2.915   3.441   0.903  0.00  0.00    +0.157 HD
ENDROOT
BRANCH   1  15
ATOM     14  C   UNL     1      -6.051   9.663   2.393  0.00  0.00    +0.090 C 
ATOM     15  S   UNL     1      -5.278   8.065   2.020  0.00  0.00    -0.126 S 
ENDBRANCH   1  15
BRANCH  11  16
ATOM     16  C   UNL     1      -1.079   1.724   0.239  0.00  0.00    +0.068 C 
ATOM     17  C   UNL     1      -0.035   1.025  -0.251  0.00  0.00    +0.013 C 
BRANCH  17  18
ATOM     18  C   UNL     1       1.091   1.731  -0.884  0.00  0.00    -0.025 A 
ATOM     19  C   UNL     1       0.851   2.719  -1.843  0.00  0.00    +0.010 A 
ATOM     20  C   UNL     1       1.911   3.380  -2.428  0.00  0.00    +0.033 A 
ATOM     21  C   UNL     1       3.210   3.059  -2.075  0.00  0.00    +0.126 A 
ATOM     22  C   UNL     1       3.457   2.077  -1.131  0.00  0.00    +0.033 A 
ATOM     23  C   UNL     1       2.407   1.412  -0.533  0.00  0.00    +0.010 A 
BRANCH  21  24
ATOM     24  N   UNL     1       4.343   3.768  -2.712  0.00  0.00    +0.056 N 
ATOM     25  O   UNL     1       5.487   3.488  -2.404  0.00  0.00    -0.126 OA
ATOM     26  O   UNL     1       4.130   4.632  -3.543  0.00  0.00    -0.126 OA
ENDBRANCH  21  24
ENDBRANCH  17  18
ENDBRANCH  11  16
TORSDOF 4
