REMARK  Name = ZINC61757442
REMARK  9 active torsions:
REMARK  status: ('A' for Active; 'I' for Inactive)
REMARK    1  A    between atoms: C_1  and  C_2
REMARK    2  A    between atoms: C_2  and  N_3
REMARK    3  A    between atoms: N_3  and  C_4
REMARK    4  A    between atoms: N_3  and  C_6
REMARK    5  A    between atoms: C_4  and  C_5
REMARK    6  A    between atoms: C_6  and  C_7
REMARK    7  A    between atoms: C_10  and  C_12
REMARK    8  A    between atoms: C_17  and  O_18
REMARK    9  A    between atoms: O_18  and  C_19
REMARK                            x       y       z     vdW  Elec       q    Type
REMARK                         _______ _______ _______ _____ _____    ______ ____
ROOT
ATOM      1  C   UNL     1      -1.132  -2.147  -1.602  0.00  0.00    +0.033 A 
ATOM      2  C   UNL     1      -1.729  -2.195  -2.822  0.00  0.00    +0.068 A 
ATOM      3  S   UNL     1      -3.422  -2.524  -2.349  0.00  0.00    -0.075 S 
ATOM      4  C   UNL     1      -3.150  -2.562  -0.582  0.00  0.00    +0.112 A 
ATOM      5  N   UNL     1      -1.845  -2.335  -0.517  0.00  0.00    -0.246 NA
ENDROOT
BRANCH   4   6
ATOM      6  C   UNL     1      -4.118  -2.791   0.511  0.00  0.00    +0.050 A 
ATOM      7  C   UNL     1      -3.693  -2.773   1.840  0.00  0.00    +0.029 A 
ATOM      8  C   UNL     1      -4.601  -2.988   2.856  0.00  0.00    +0.019 A 
ATOM      9  C   UNL     1      -5.935  -3.221   2.562  0.00  0.00    +0.019 A 
ATOM     10  C   UNL     1      -6.367  -3.242   1.250  0.00  0.00    +0.047 A 
ATOM     11  C   UNL     1      -5.468  -3.022   0.219  0.00  0.00    +0.130 A 
ATOM     12 BR   UNL     1      -4.024  -2.964   4.657  0.00  0.00    -0.050 Br
BRANCH  11  13
ATOM     13  O   UNL     1      -5.893  -3.035  -1.071  0.00  0.00    -0.494 OA
ATOM     14  C   UNL     1      -7.284  -3.276  -1.293  0.00  0.00    +0.277 C 
ENDBRANCH  11  13
ENDBRANCH   4   6
BRANCH   1  15
ATOM     15  C   UNL     1       0.348  -1.884  -1.496  0.00  0.00    -0.022 C 
BRANCH  15  16
ATOM     16  N   UNL     1       0.576  -0.451  -1.269  0.00  0.00    +0.383 N 
ATOM     17  H   UNL     1       0.124   0.081  -1.997  0.00  0.00    -0.081 HD
BRANCH  16  19
ATOM     18  C   UNL     1       0.128   1.449   0.210  0.00  0.00    -0.017 C 
ATOM     19  C   UNL     1       0.019  -0.067   0.035  0.00  0.00    -0.082 C 
ENDBRANCH  16  19
BRANCH  16  20
ATOM     20  C   UNL     1       2.019  -0.176  -1.285  0.00  0.00    -0.082 C 
ATOM     21  C   UNL     1       2.573  -0.440  -2.687  0.00  0.00    -0.017 C 
ENDBRANCH  16  20
ENDBRANCH  15  16
ENDBRANCH   1  15
TORSDOF 6
