REMARK  Name = ZINC07596966
REMARK  4 active torsions:
REMARK  status: ('A' for Active; 'I' for Inactive)
REMARK    1  A    between atoms: C_1  and  O_2
REMARK    2  A    between atoms: O_2  and  C_3
REMARK    3  A    between atoms: C_10  and  C_23
REMARK    4  A    between atoms: C_16  and  C_18
REMARK                            x       y       z     vdW  Elec       q    Type
REMARK                         _______ _______ _______ _____ _____    ______ ____
ROOT
ATOM      1  C   UNL     1      -1.767   3.334  -2.306  0.00  0.00    +0.162 A 
ATOM      2  C   UNL     1      -2.401   4.561  -2.340  0.00  0.00    +0.049 A 
ATOM      3  C   UNL     1      -2.586   5.279  -1.173  0.00  0.00    +0.004 A 
ATOM      4  C   UNL     1      -2.126   4.768   0.025  0.00  0.00    +0.009 A 
ATOM      5  C   UNL     1      -1.484   3.543   0.065  0.00  0.00    +0.020 A 
ATOM      6  C   UNL     1      -1.308   2.806  -1.094  0.00  0.00    +0.170 A 
ATOM      7  O   UNL     1      -0.734   1.574  -1.129  0.00  0.00    -0.458 OA
ATOM      8  C   UNL     1      -0.013   1.086   0.008  0.00  0.00    +0.346 C 
ATOM      9  N   UNL     1      -0.729   1.574   1.193  0.00  0.00    -0.203 N 
ATOM     10  C   UNL     1      -0.978   3.021   1.384  0.00  0.00    +0.136 C 
ATOM     11  C   UNL     1      -2.066   3.039   2.466  0.00  0.00    +0.087 C 
ATOM     12  C   UNL     1      -2.095   1.610   2.968  0.00  0.00    +0.075 C 
ATOM     13  N   UNL     1      -1.323   0.877   2.229  0.00  0.00    -0.184 NA
ENDROOT
BRANCH  12  14
ATOM     14  C   UNL     1      -2.876   1.129   4.114  0.00  0.00    +0.035 A 
ATOM     15  C   UNL     1      -2.961  -0.148   4.638  0.00  0.00    +0.017 A 
ATOM     16  C   UNL     1      -3.771  -0.354   5.732  0.00  0.00    +0.008 A 
ATOM     17  C   UNL     1      -4.456   0.694   6.258  0.00  0.00    +0.046 A 
ATOM     18  S   UNL     1      -3.959   2.043   5.201  0.00  0.00    -0.095 S 
ENDBRANCH  12  14
BRANCH   8  19
ATOM     19  C   UNL     1       1.396   1.622  -0.003  0.00  0.00    +0.165 A 
ATOM     20  C   UNL     1       2.463   1.019  -0.557  0.00  0.00    +0.050 A 
ATOM     21  C   UNL     1       3.572   1.868  -0.338  0.00  0.00    +0.041 A 
ATOM     22  C   UNL     1       3.118   2.934   0.345  0.00  0.00    +0.195 A 
ATOM     23  O   UNL     1       1.799   2.780   0.545  0.00  0.00    -0.462 OA
ENDBRANCH   8  19
BRANCH   1  25
ATOM     24  C   UNL     1      -2.079   3.228  -4.661  0.00  0.00    +0.277 C 
ATOM     25  O   UNL     1      -1.587   2.634  -3.458  0.00  0.00    -0.491 OA
ENDBRANCH   1  25
TORSDOF 3
