REMARK  Name = ZINC11903715
REMARK  7 active torsions:
REMARK  status: ('A' for Active; 'I' for Inactive)
REMARK    1  A    between atoms: C_4  and  C_7
REMARK    2  A    between atoms: C_7  and  N_8
REMARK    3  A    between atoms: C_9  and  S_23
REMARK    4  A    between atoms: N_10  and  N_11
REMARK    5  A    between atoms: C_12  and  C_13
REMARK    6  A    between atoms: C_16  and  O_21
REMARK    7  A    between atoms: C_18  and  O_19
REMARK                            x       y       z     vdW  Elec       q    Type
REMARK                         _______ _______ _______ _____ _____    ______ ____
ROOT
ATOM      1  N   UNL     1       0.002  -0.004   0.002  0.00  0.00    -0.155 NA
ATOM      2  C   UNL     1      -0.016   1.301   0.009  0.00  0.00    +0.146 C 
ENDROOT
BRANCH   2   3
ATOM      3  C   UNL     1       1.248   2.054   0.001  0.00  0.00    +0.039 A 
ATOM      4  C   UNL     1       1.232   3.452   0.009  0.00  0.00    +0.032 A 
ATOM      5  C   UNL     1       2.419   4.154   0.002  0.00  0.00    +0.061 A 
ATOM      6  C   UNL     1       3.632   3.475  -0.013  0.00  0.00    +0.148 A 
ATOM      7  C   UNL     1       3.659   2.088  -0.020  0.00  0.00    +0.102 A 
ATOM      8  C   UNL     1       2.474   1.372  -0.008  0.00  0.00    +0.143 A 
ATOM      9 BR   UNL     1       5.314   1.174  -0.039  0.00  0.00    -0.043 Br
ATOM     10 BR   UNL     1       2.396   6.045   0.012  0.00  0.00    -0.046 Br
BRANCH   8  11
ATOM     11  O   UNL     1       2.498   0.014  -0.010  0.00  0.00    -0.505 OA
ATOM     12  H   UNL     1       2.499  -0.379  -0.894  0.00  0.00    +0.292 HD
ENDBRANCH   8  11
BRANCH   6  13
ATOM     13  O   UNL     1       4.798   4.174  -0.018  0.00  0.00    -0.504 OA
ATOM     14  H   UNL     1       5.143   4.371   0.863  0.00  0.00    +0.292 HD
ENDBRANCH   6  13
ENDBRANCH   2   3
BRANCH   1  17
ATOM     15  N   UNL     1      -2.364  -2.741   0.010  0.00  0.00    -0.318 N 
ATOM     16  C   UNL     1      -1.184  -2.038   0.002  0.00  0.00    +0.173 C 
ATOM     17  N   UNL     1      -1.202  -0.721   0.010  0.00  0.00    -0.127 NA
ATOM     18  H   UNL     1      -3.211  -2.268   0.021  0.00  0.00    +0.148 HD
BRANCH  16  19
ATOM     19  S   UNL     1       0.354  -2.898  -0.017  0.00  0.00    -0.106 S 
ATOM     20  H   UNL     1      -0.110  -4.230  -0.020  0.00  0.00    +0.110 HD
ENDBRANCH  16  19
BRANCH  15  21
ATOM     21  C   UNL     1      -2.345  -4.206   0.002  0.00  0.00    +0.138 C 
BRANCH  21  25
ATOM     22  C   UNL     1      -6.352  -5.685   0.032  0.00  0.00    +0.000 A 
ATOM     23  C   UNL     1      -5.715  -5.439  -1.170  0.00  0.00    +0.000 A 
ATOM     24  C   UNL     1      -4.418  -4.961  -1.180  0.00  0.00    +0.005 A 
ATOM     25  C   UNL     1      -3.758  -4.728   0.013  0.00  0.00    -0.030 A 
ATOM     26  C   UNL     1      -4.393  -4.979   1.214  0.00  0.00    +0.005 A 
ATOM     27  C   UNL     1      -5.692  -5.452   1.224  0.00  0.00    +0.000 A 
ENDBRANCH  21  25
ENDBRANCH  15  21
ENDBRANCH   1  17
TORSDOF 7
