REMARK  Name = ZINC61696882
REMARK  5 active torsions:
REMARK  status: ('A' for Active; 'I' for Inactive)
REMARK    1  A    between atoms: C_1  and  C_2
REMARK    2  A    between atoms: C_2  and  C_4
REMARK    3  A    between atoms: C_7  and  S_11
REMARK    4  A    between atoms: S_11  and  C_12
REMARK    5  A    between atoms: C_16  and  N_18
REMARK                            x       y       z     vdW  Elec       q    Type
REMARK                         _______ _______ _______ _____ _____    ______ ____
ROOT
ATOM      1  C   UNL     1      -1.607  -3.705  -5.274  0.00  0.00    +0.196 A 
ATOM      2  N   UNL     1      -2.489  -3.419  -4.329  0.00  0.00    -0.207 NA
ATOM      3  C   UNL     1      -3.707  -3.954  -4.349  0.00  0.00    +0.122 A 
ATOM      4  C   UNL     1      -4.048  -4.824  -5.381  0.00  0.00    +0.086 A 
ATOM      5  C   UNL     1      -3.094  -5.100  -6.357  0.00  0.00    +0.122 A 
ATOM      6  N   UNL     1      -1.897  -4.524  -6.274  0.00  0.00    -0.207 NA
ATOM      7  N   UNL     1      -4.625  -3.651  -3.355  0.00  0.00    -0.343 N 
ATOM      8  H   UNL     1      -4.380  -3.044  -2.639  0.00  0.00    +0.144 HD
ATOM      9  H   UNL     1      -5.511  -4.045  -3.376  0.00  0.00    +0.144 HD
ENDROOT
BRANCH   5  10
ATOM     10  N   UNL     1      -3.389  -5.960  -7.403  0.00  0.00    -0.343 N 
ATOM     11  H   UNL     1      -4.264  -6.374  -7.459  0.00  0.00    +0.144 HD
ATOM     12  H   UNL     1      -2.719  -6.148  -8.080  0.00  0.00    +0.144 HD
ENDBRANCH   5  10
BRANCH   1  13
ATOM     13  S   UNL     1      -0.006  -2.971  -5.205  0.00  0.00    -0.049 S 
BRANCH  13  17
ATOM     14  C   UNL     1       0.004  -0.741  -1.267  0.00  0.00    +0.018 A 
ATOM     15  C   UNL     1      -0.143  -0.040  -2.472  0.00  0.00    +0.012 A 
ATOM     16  C   UNL     1      -0.145  -0.717  -3.658  0.00  0.00    +0.017 A 
ATOM     17  C   UNL     1      -0.002  -2.102  -3.671  0.00  0.00    +0.030 A 
ATOM     18  C   UNL     1       0.144  -2.804  -2.476  0.00  0.00    +0.032 A 
ATOM     19  C   UNL     1       0.153  -2.134  -1.285  0.00  0.00    +0.027 A 
ATOM     20 BR   UNL     1       0.336  -4.685  -2.502  0.00  0.00    -0.049 Br
BRANCH  14  22
ATOM     21  C   UNL     1      -0.153   1.481   0.026  0.00  0.00    +0.091 C 
ATOM     22  C   UNL     1       0.008  -0.017   0.009  0.00  0.00    +0.160 C 
ATOM     23  O   UNL     1       0.140  -0.625   1.051  0.00  0.00    -0.292 OA
ENDBRANCH  14  22
ENDBRANCH  13  17
ENDBRANCH   1  13
TORSDOF 4
