REMARK  Name = ZINC28288637
REMARK  5 active torsions:
REMARK  status: ('A' for Active; 'I' for Inactive)
REMARK    1  A    between atoms: C_6  and  C_7
REMARK    2  A    between atoms: C_7  and  C_9
REMARK    3  A    between atoms: C_7  and  N_25
REMARK    4  A    between atoms: C_9  and  N_10
REMARK    5  A    between atoms: C_11  and  C_13
REMARK                            x       y       z     vdW  Elec       q    Type
REMARK                         _______ _______ _______ _____ _____    ______ ____
ROOT
ATOM      1  C   UNL     1      -2.954   1.054   1.458  0.00  0.00    +0.094 C 
ENDROOT
BRANCH   1   2
ATOM      2  N   UNL     1      -2.105   0.190   2.282  0.00  0.00    -0.310 N 
ATOM      3  C   UNL     1      -2.380   0.025   3.591  0.00  0.00    +0.279 C 
ATOM      4  O   UNL     1      -3.333   0.593   4.087  0.00  0.00    -0.267 OA
ATOM      5  H   UNL     1      -1.242  -0.324   1.832  0.00  0.00    +0.149 HD
BRANCH   3   6
ATOM      6  C   UNL     1      -1.521  -0.848   4.425  0.00  0.00    +0.193 A 
ATOM      7  C   UNL     1      -1.818  -0.991   5.738  0.00  0.00    +0.103 A 
ATOM      8  C   UNL     1      -0.970  -1.863   6.566  0.00  0.00    +0.193 A 
ATOM      9  O   UNL     1      -1.194  -2.031   7.752  0.00  0.00    -0.287 OA
ATOM     10  C   UNL     1       0.168  -2.517   5.893  0.00  0.00    +0.064 A 
ATOM     11  C   UNL     1       1.035  -3.359   6.589  0.00  0.00    +0.016 A 
ATOM     12  C   UNL     1       2.079  -3.948   5.932  0.00  0.00    +0.016 A 
ATOM     13  C   UNL     1       2.279  -3.713   4.577  0.00  0.00    +0.021 A 
ATOM     14  C   UNL     1       1.431  -2.885   3.873  0.00  0.00    +0.062 A 
ATOM     15  C   UNL     1       0.362  -2.275   4.522  0.00  0.00    +0.141 A 
ATOM     16  O   UNL     1      -0.476  -1.462   3.850  0.00  0.00    -0.450 OA
ATOM     17 BR   UNL     1       3.730  -4.539   3.689  0.00  0.00    -0.050 Br
ENDBRANCH   3   6
ENDBRANCH   1   2
BRANCH   1  18
ATOM     18  C   UNL     1      -2.487   0.989   0.002  0.00  0.00    -0.020 C 
BRANCH  18  24
ATOM     19  C   UNL     1      -0.012   0.656  -0.165  0.00  0.00    +0.003 A 
ATOM     20  C   UNL     1       1.276   1.149  -0.264  0.00  0.00    +0.020 A 
ATOM     21  C   UNL     1       1.493   2.515  -0.292  0.00  0.00    +0.041 A 
ATOM     22  C   UNL     1       0.421   3.387  -0.221  0.00  0.00    +0.020 A 
ATOM     23  C   UNL     1      -0.866   2.893  -0.121  0.00  0.00    +0.003 A 
ATOM     24  C   UNL     1      -1.083   1.527  -0.099  0.00  0.00    -0.059 A 
ATOM     25 CL   UNL     1       3.109   3.135  -0.417  0.00  0.00    -0.084 Cl
ENDBRANCH  18  24
BRANCH  18  26
ATOM     26  N   UNL     1      -3.383   1.797  -0.836  0.00  0.00    +0.385 N 
ATOM     27  C   UNL     1      -4.770   1.330  -0.725  0.00  0.00    -0.078 C 
ATOM     28  C   UNL     1      -5.693   2.279  -1.493  0.00  0.00    -0.019 C 
ATOM     29  C   UNL     1      -5.264   2.322  -2.963  0.00  0.00    -0.004 C 
ATOM     30  C   UNL     1      -3.801   2.765  -3.047  0.00  0.00    -0.019 C 
ATOM     31  C   UNL     1      -2.934   1.801  -2.234  0.00  0.00    -0.078 C 
ATOM     32  H   UNL     1      -3.348   2.833  -0.470  0.00  0.00    -0.081 HD
ENDBRANCH  18  26
ENDBRANCH   1  18
TORSDOF 5
