REMARK  Name = ZINC02050107
REMARK  10 active torsions:
REMARK  status: ('A' for Active; 'I' for Inactive)
REMARK    1  A    between atoms: C_1  and  C_2
REMARK    2  A    between atoms: C_2  and  O_3
REMARK    3  A    between atoms: O_3  and  C_4
REMARK    4  A    between atoms: C_4  and  C_6
REMARK    5  A    between atoms: C_6  and  C_7
REMARK    6  A    between atoms: C_6  and  N_11
REMARK    7  A    between atoms: C_6  and  N_24
REMARK    8  A    between atoms: N_11  and  C_12
REMARK    9  A    between atoms: C_13  and  C_21
REMARK   10  A    between atoms: C_25  and  C_27
REMARK                            x       y       z     vdW  Elec       q    Type
REMARK                         _______ _______ _______ _____ _____    ______ ____
ROOT
ATOM      1  C   UNL     1       3.508   2.760  -0.002  0.00  0.00    +0.296 C 
ENDROOT
BRANCH   1   2
ATOM      2  C   UNL     1       3.351   3.752  -1.157  0.00  0.00    +0.438 C 
ATOM      3  F   UNL     1       2.050   4.266  -1.156  0.00  0.00    -0.166 F 
ATOM      4  F   UNL     1       4.266   4.798  -1.000  0.00  0.00    -0.166 F 
ATOM      5  F   UNL     1       3.594   3.098  -2.369  0.00  0.00    -0.166 F 
ENDBRANCH   1   2
BRANCH   1   6
ATOM      6  N   UNL     1       4.820   2.113  -0.088  0.00  0.00    -0.274 N 
ATOM      7  C   UNL     1       5.943   2.853   0.001  0.00  0.00    +0.246 C 
ATOM      8  O   UNL     1       5.870   4.040   0.250  0.00  0.00    -0.270 OA
ATOM      9  H   UNL     1       4.880   1.153  -0.210  0.00  0.00    +0.152 HD
BRANCH   7  10
ATOM     10  C   UNL     1       7.263   2.220  -0.203  0.00  0.00    +0.039 A 
ATOM     11  C   UNL     1       8.428   2.983  -0.111  0.00  0.00    +0.013 A 
ATOM     12  C   UNL     1       9.658   2.388  -0.303  0.00  0.00    +0.004 A 
ATOM     13  C   UNL     1       9.739   1.036  -0.587  0.00  0.00    +0.038 A 
ATOM     14  C   UNL     1       8.587   0.272  -0.680  0.00  0.00    +0.124 A 
ATOM     15  C   UNL     1       7.350   0.856  -0.484  0.00  0.00    +0.051 A 
ATOM     16  F   UNL     1       8.674  -1.048  -0.957  0.00  0.00    -0.205 F 
ENDBRANCH   7  10
ENDBRANCH   1   6
BRANCH   1  17
ATOM     17  C   UNL     1       3.395   3.494   1.309  0.00  0.00    +0.359 C 
ATOM     18  O   UNL     1       4.385   3.712   1.967  0.00  0.00    -0.246 OA
BRANCH  17  19
ATOM     19  O   UNL     1       2.195   3.906   1.747  0.00  0.00    -0.462 OA
BRANCH  19  21
ATOM     20  C   UNL     1       0.719   4.995   3.349  0.00  0.00    +0.048 C 
ATOM     21  C   UNL     1       2.162   4.607   3.018  0.00  0.00    +0.229 C 
ENDBRANCH  19  21
ENDBRANCH  17  19
ENDBRANCH   1  17
BRANCH   1  22
ATOM     22  N   UNL     1       2.456   1.744  -0.085  0.00  0.00    -0.301 N 
ATOM     23  H   UNL     1       1.904   1.681  -0.880  0.00  0.00    +0.149 HD
BRANCH  22  24
ATOM     24  C   UNL     1       2.250   0.875   0.970  0.00  0.00    +0.080 A 
ATOM     25  C   UNL     1       1.246  -0.072   1.125  0.00  0.00    +0.068 A 
ATOM     26  C   UNL     1       1.252  -0.863   2.345  0.00  0.00    -0.023 A 
ATOM     27  C   UNL     1       2.258  -0.590   3.202  0.00  0.00    -0.005 A 
ATOM     28  S   UNL     1       3.182   0.703   2.421  0.00  0.00    -0.078 S 
ATOM     29  C   UNL     1       2.520  -1.242   4.525  0.00  0.00    +0.043 C 
ATOM     30  C   UNL     1       1.262  -2.020   4.938  0.00  0.00    +0.005 C 
ATOM     31  C   UNL     1       0.789  -2.860   3.748  0.00  0.00    +0.005 C 
ATOM     32  C   UNL     1       0.226  -1.946   2.658  0.00  0.00    +0.037 C 
BRANCH  25  33
ATOM     33  C   UNL     1       0.217  -0.263   0.101  0.00  0.00    +0.244 C 
ATOM     34  O   UNL     1       0.395  -1.063  -0.800  0.00  0.00    -0.270 OA
ATOM     35  N   UNL     1      -0.928   0.446   0.155  0.00  0.00    -0.325 N 
ATOM     36  H   UNL     1      -1.070   1.083   0.873  0.00  0.00    +0.145 HD
ATOM     37  H   UNL     1      -1.609   0.320  -0.523  0.00  0.00    +0.145 HD
ENDBRANCH  25  33
ENDBRANCH  22  24
ENDBRANCH   1  22
TORSDOF 9
