REMARK  Name = ZINC44973668
REMARK  8 active torsions:
REMARK  status: ('A' for Active; 'I' for Inactive)
REMARK    1  A    between atoms: C_1  and  C_2
REMARK    2  A    between atoms: C_4  and  C_25
REMARK    3  A    between atoms: C_10  and  S_14
REMARK    4  A    between atoms: S_14  and  C_15
REMARK    5  A    between atoms: C_15  and  C_16
REMARK    6  A    between atoms: C_19  and  N_22
REMARK    7  A    between atoms: C_32  and  O_34
REMARK    8  A    between atoms: O_34  and  C_35
REMARK                            x       y       z     vdW  Elec       q    Type
REMARK                         _______ _______ _______ _____ _____    ______ ____
ROOT
ATOM      1  C   UNL     1      -0.018   1.503   0.010  0.00  0.00    +0.066 C 
ATOM      2  C   UNL     1       0.002  -0.004   0.002  0.00  0.00    +0.051 C 
ATOM      3  C   UNL     1      -1.218  -0.693   0.004  0.00  0.00    +0.069 C 
ATOM      4  C   UNL     1      -1.166  -2.212  -0.004  0.00  0.00    +0.097 C 
ATOM      5  C   UNL     1       0.218  -2.818  -0.014  0.00  0.00    +0.075 A 
ATOM      6  C   UNL     1       0.417  -4.184  -0.023  0.00  0.00    +0.280 A 
ATOM      7  O   UNL     1      -0.636  -5.037  -0.023  0.00  0.00    -0.265 OA
ATOM      8  N   UNL     1       1.668  -4.646  -0.032  0.00  0.00    -0.183 NA
ATOM      9  C   UNL     1       2.699  -3.812  -0.033  0.00  0.00    +0.194 A 
ATOM     10  N   UNL     1       2.545  -2.498  -0.024  0.00  0.00    -0.202 NA
ATOM     11  C   UNL     1       1.321  -1.957  -0.015  0.00  0.00    +0.165 A 
ATOM     12  N   UNL     1       1.156  -0.615  -0.012  0.00  0.00    -0.232 NA
ATOM     13  C   UNL     1      -2.406  -0.027   0.014  0.00  0.00    +0.338 C 
ATOM     14  O   UNL     1      -2.423   1.322   0.022  0.00  0.00    -0.245 OA
ENDROOT
BRANCH   4  15
ATOM     15  C   UNL     1      -1.889  -2.716   1.218  0.00  0.00    -0.035 A 
ATOM     16  C   UNL     1      -1.453  -2.351   2.478  0.00  0.00    +0.007 A 
ATOM     17  C   UNL     1      -2.115  -2.812   3.600  0.00  0.00    +0.038 A 
ATOM     18  C   UNL     1      -3.216  -3.640   3.461  0.00  0.00    +0.123 A 
ATOM     19  C   UNL     1      -3.652  -4.005   2.199  0.00  0.00    +0.038 A 
ATOM     20  C   UNL     1      -2.991  -3.539   1.078  0.00  0.00    +0.007 A 
ATOM     21  F   UNL     1      -3.865  -4.092   4.557  0.00  0.00    -0.205 F 
ENDBRANCH   4  15
BRANCH  13  22
ATOM     22  O   UNL     1      -3.566  -0.716   0.016  0.00  0.00    -0.465 OA
ATOM     23  C   UNL     1      -4.774   0.048   0.027  0.00  0.00    +0.280 C 
ENDBRANCH  13  22
BRANCH   9  24
ATOM     24  S   UNL     1       4.330  -4.478  -0.045  0.00  0.00    -0.081 S 
BRANCH  24  25
ATOM     25  C   UNL     1       4.071  -6.274  -0.054  0.00  0.00    +0.112 C 
BRANCH  25  26
ATOM     26  C   UNL     1       5.406  -6.973  -0.065  0.00  0.00    -0.037 A 
ATOM     27  C   UNL     1       6.014  -7.282  -1.267  0.00  0.00    +0.007 A 
ATOM     28  C   UNL     1       7.239  -7.924  -1.277  0.00  0.00    +0.033 A 
ATOM     29  C   UNL     1       7.854  -8.257  -0.085  0.00  0.00    +0.126 A 
ATOM     30  C   UNL     1       7.246  -7.947   1.117  0.00  0.00    +0.033 A 
ATOM     31  C   UNL     1       6.024  -7.301   1.127  0.00  0.00    +0.007 A 
BRANCH  29  32
ATOM     32  N   UNL     1       9.165  -8.945  -0.095  0.00  0.00    +0.056 N 
ATOM     33  O   UNL     1       9.697  -9.216  -1.147  0.00  0.00    -0.126 OA
ATOM     34  O   UNL     1       9.704  -9.236   0.947  0.00  0.00    -0.126 OA
ENDBRANCH  29  32
ENDBRANCH  25  26
ENDBRANCH  24  25
ENDBRANCH   9  24
TORSDOF 6
