REMARK  Name = ZINC05406137
REMARK  8 active torsions:
REMARK  status: ('A' for Active; 'I' for Inactive)
REMARK    1  A    between atoms: C_1  and  C_2
REMARK    2  A    between atoms: C_2  and  C_3
REMARK    3  A    between atoms: C_6  and  C_9
REMARK    4  A    between atoms: C_9  and  C_11
REMARK    5  A    between atoms: C_9  and  N_16
REMARK    6  A    between atoms: C_17  and  C_19
REMARK    7  A    between atoms: C_19  and  O_20
REMARK    8  A    between atoms: O_20  and  C_21
REMARK                            x       y       z     vdW  Elec       q    Type
REMARK                         _______ _______ _______ _____ _____    ______ ____
ROOT
ATOM      1  C   UNL     1      -1.891  -4.446  -0.004  0.00  0.00    +0.140 C 
ENDROOT
BRANCH   1   5
ATOM      2  C   UNL     1      -5.313  -6.374  -1.683  0.00  0.00    -0.048 A 
ATOM      3  C   UNL     1      -4.043  -6.827  -1.991  0.00  0.00    +0.004 A 
ATOM      4  C   UNL     1      -2.936  -6.204  -1.447  0.00  0.00    +0.006 A 
ATOM      5  C   UNL     1      -3.098  -5.126  -0.596  0.00  0.00    -0.022 A 
ATOM      6  C   UNL     1      -4.367  -4.676  -0.284  0.00  0.00    +0.006 A 
ATOM      7  C   UNL     1      -5.474  -5.297  -0.832  0.00  0.00    +0.004 A 
BRANCH   2   9
ATOM      8  C   UNL     1      -6.976  -8.182  -1.347  0.00  0.00    +0.009 C 
ATOM      9  C   UNL     1      -6.520  -7.055  -2.275  0.00  0.00    +0.032 C 
ENDBRANCH   2   9
ENDBRANCH   1   5
BRANCH   1  10
ATOM     10  C   UNL     1      -1.682  -4.933   1.407  0.00  0.00    +0.014 A 
ATOM     11  C   UNL     1      -0.817  -5.869   1.868  0.00  0.00    +0.013 A 
ATOM     12  C   UNL     1      -0.796  -6.155   3.220  0.00  0.00    +0.008 A 
ATOM     13  C   UNL     1      -1.649  -5.499   4.044  0.00  0.00    +0.045 A 
ATOM     14  S   UNL     1      -2.515  -4.432   2.904  0.00  0.00    -0.099 S 
ENDBRANCH   1  10
BRANCH   1  15
ATOM     15  N   UNL     1      -2.102  -2.997   0.006  0.00  0.00    -0.301 N 
ATOM     16  C   UNL     1      -1.044  -2.161   0.000  0.00  0.00    +0.251 C 
ATOM     17  O   UNL     1       0.082  -2.610  -0.013  0.00  0.00    -0.272 OA
ATOM     18  H   UNL     1      -3.003  -2.638   0.017  0.00  0.00    +0.150 HD
BRANCH  16  19
ATOM     19  C   UNL     1      -1.262  -0.670   0.011  0.00  0.00    +0.324 C 
BRANCH  19  20
ATOM     20  O   UNL     1       0.002  -0.004   0.002  0.00  0.00    -0.480 OA
BRANCH  20  21
ATOM     21  C   UNL     1      -0.016   1.355   0.009  0.00  0.00    +0.156 A 
ATOM     22  C   UNL     1      -1.226   2.034   0.019  0.00  0.00    +0.048 A 
ATOM     23  C   UNL     1      -1.242   3.415   0.030  0.00  0.00    +0.004 A 
ATOM     24  C   UNL     1      -0.054   4.123   0.023  0.00  0.00    +0.003 A 
ATOM     25  C   UNL     1       1.154   3.451   0.009  0.00  0.00    +0.042 A 
ATOM     26  C   UNL     1       1.176   2.067   0.002  0.00  0.00    +0.165 A 
ATOM     27  F   UNL     1       2.357   1.410  -0.013  0.00  0.00    -0.202 F 
ENDBRANCH  20  21
ENDBRANCH  19  20
ENDBRANCH  16  19
ENDBRANCH   1  15
TORSDOF 7
