REMARK  Name = ZINC27100102
REMARK  10 active torsions:
REMARK  status: ('A' for Active; 'I' for Inactive)
REMARK    1  A    between atoms: C_1  and  C_2
REMARK    2  A    between atoms: C_2  and  O_3
REMARK    3  A    between atoms: O_3  and  C_4
REMARK    4  A    between atoms: C_4  and  C_6
REMARK    5  A    between atoms: C_9  and  O_12
REMARK    6  A    between atoms: O_12  and  C_13
REMARK    7  A    between atoms: C_22  and  O_37
REMARK    8  A    between atoms: C_23  and  C_24
REMARK    9  A    between atoms: C_24  and  N_25
REMARK   10  A    between atoms: C_30  and  C_32
REMARK                            x       y       z     vdW  Elec       q    Type
REMARK                         _______ _______ _______ _____ _____    ______ ____
ROOT
ATOM      1  C   UNL     1       2.534  -2.786  -0.347  0.00  0.00    +0.210 A 
ATOM      2  C   UNL     1       3.577  -2.039  -0.761  0.00  0.00    +0.245 A 
ATOM      3  O   UNL     1       3.462  -0.740  -1.067  0.00  0.00    -0.459 OA
ATOM      4  C   UNL     1       2.290  -0.079  -0.985  0.00  0.00    +0.143 A 
ATOM      5  C   UNL     1       1.133  -0.759  -0.563  0.00  0.00    +0.068 A 
ATOM      6  C   UNL     1       1.248  -2.188  -0.223  0.00  0.00    +0.235 A 
ATOM      7  O   UNL     1       0.281  -2.832   0.148  0.00  0.00    -0.283 OA
ATOM      8  C   UNL     1      -0.086  -0.086  -0.475  0.00  0.00    +0.019 A 
ATOM      9  C   UNL     1      -0.153   1.239  -0.799  0.00  0.00    +0.046 A 
ATOM     10  C   UNL     1       0.988   1.921  -1.217  0.00  0.00    +0.122 A 
ATOM     11  C   UNL     1       2.205   1.267  -1.310  0.00  0.00    +0.020 A 
ENDROOT
BRANCH  10  12
ATOM     12  O   UNL     1       0.906   3.238  -1.537  0.00  0.00    -0.506 OA
ATOM     13  H   UNL     1       1.804   3.781  -1.867  0.00  0.00    +0.292 HD
ENDBRANCH  10  12
BRANCH   1  14
ATOM     14  O   UNL     1       2.709  -4.102  -0.049  0.00  0.00    -0.449 OA
BRANCH  14  18
ATOM     15  C   UNL     1       6.504  -5.683  -0.413  0.00  0.00    +0.059 A 
ATOM     16  C   UNL     1       6.092  -5.123   0.800  0.00  0.00    +0.018 A 
ATOM     17  C   UNL     1       4.825  -4.596   0.917  0.00  0.00    +0.047 A 
ATOM     18  C   UNL     1       3.957  -4.622  -0.169  0.00  0.00    +0.129 A 
ATOM     19  C   UNL     1       4.361  -5.183  -1.375  0.00  0.00    +0.047 A 
ATOM     20  C   UNL     1       5.628  -5.707  -1.502  0.00  0.00    +0.018 A 
BRANCH  15  21
ATOM     21  C   UNL     1       7.860  -6.248  -0.543  0.00  0.00    +0.339 C 
ATOM     22  O   UNL     1       8.621  -6.226   0.405  0.00  0.00    -0.245 OA
BRANCH  21  23
ATOM     23  O   UNL     1       8.256  -6.788  -1.712  0.00  0.00    -0.461 OA
BRANCH  23  25
ATOM     24  C   UNL     1       9.871  -7.890  -3.164  0.00  0.00    +0.048 C 
ATOM     25  C   UNL     1       9.604  -7.324  -1.768  0.00  0.00    +0.229 C 
ENDBRANCH  23  25
ENDBRANCH  21  23
ENDBRANCH  15  21
ENDBRANCH  14  18
ENDBRANCH   1  14
BRANCH  11  26
ATOM     26  C   UNL     1       3.433   2.014  -1.764  0.00  0.00    -0.035 C 
BRANCH  26  27
ATOM     27  N   UNL     1       3.550   1.922  -3.225  0.00  0.00    +0.387 N 
ATOM     28  C   UNL     1       3.802   0.538  -3.646  0.00  0.00    -0.077 C 
ATOM     29  C   UNL     1       3.774   0.455  -5.174  0.00  0.00    -0.019 C 
ATOM     30  C   UNL     1       4.844   1.386  -5.751  0.00  0.00    -0.003 C 
ATOM     31  C   UNL     1       4.587   2.813  -5.258  0.00  0.00    -0.010 C 
ATOM     32  C   UNL     1       4.591   2.827  -3.728  0.00  0.00    -0.030 C 
ATOM     33  H   UNL     1       2.592   2.237  -3.663  0.00  0.00    -0.080 HD
BRANCH  32  34
ATOM     34  C   UNL     1       4.319   4.226  -3.238  0.00  0.00    -0.024 A 
ATOM     35  C   UNL     1       5.194   5.159  -2.789  0.00  0.00    +0.009 A 
ATOM     36  C   UNL     1       4.713   6.392  -2.390  0.00  0.00    +0.008 A 
ATOM     37  C   UNL     1       3.380   6.628  -2.449  0.00  0.00    +0.045 A 
ATOM     38  S   UNL     1       2.760   5.083  -3.093  0.00  0.00    -0.103 S 
ENDBRANCH  32  34
ENDBRANCH  26  27
ENDBRANCH  11  26
TORSDOF 9
