REMARK  Name = ZINC39671418
REMARK  6 active torsions:
REMARK  status: ('A' for Active; 'I' for Inactive)
REMARK    1  A    between atoms: C_6  and  C_11
REMARK    2  A    between atoms: C_11  and  N_12
REMARK    3  A    between atoms: C_13  and  C_15
REMARK    4  A    between atoms: C_26  and  C_28
REMARK    5  A    between atoms: C_28  and  C_29
REMARK    6  A    between atoms: C_29  and  C_30
REMARK                            x       y       z     vdW  Elec       q    Type
REMARK                         _______ _______ _______ _____ _____    ______ ____
ROOT
ATOM      1  C   UNL     1      -8.318   0.159   3.116  0.00  0.00    +0.100 C 
ATOM      2  C   UNL     1      -7.918  -1.226   3.673  0.00  0.00    +0.121 C 
ATOM      3  N   UNL     1      -9.070  -1.640   4.508  0.00  0.00    -0.300 N 
ATOM      4  C   UNL     1     -10.259  -1.196   3.743  0.00  0.00    +0.115 C 
ATOM      5  C   UNL     1      -9.855   0.174   3.162  0.00  0.00    -0.004 C 
ATOM      6  C   UNL     1     -10.425   0.340   1.757  0.00  0.00    -0.010 C 
ATOM      7  C   UNL     1     -11.953   0.411   1.835  0.00  0.00    -0.082 C 
ATOM      8  N   UNL     1     -12.349   1.543   2.682  0.00  0.00    +0.379 N 
ATOM      9  C   UNL     1     -11.876   1.330   4.055  0.00  0.00    -0.082 C 
ATOM     10  C   UNL     1     -10.345   1.298   4.071  0.00  0.00    -0.010 C 
ATOM     11  C   UNL     1      -9.042  -2.277   5.696  0.00  0.00    +0.216 C 
ATOM     12  O   UNL     1     -10.080  -2.550   6.261  0.00  0.00    -0.276 OA
ATOM     13  H   UNL     1     -11.945   2.392   2.316  0.00  0.00    -0.086 HD
ATOM     14  H   UNL     1     -13.354   1.625   2.683  0.00  0.00    -0.086 HD
ENDROOT
BRANCH   1  16
ATOM     15  N   UNL     1      -7.544   1.537   1.213  0.00  0.00    -0.309 N 
ATOM     16  C   UNL     1      -7.835   0.313   1.697  0.00  0.00    +0.219 C 
ATOM     17  O   UNL     1      -7.707  -0.664   0.990  0.00  0.00    -0.275 OA
ATOM     18  H   UNL     1      -7.647   2.319   1.778  0.00  0.00    +0.149 HD
BRANCH  15  19
ATOM     19  C   UNL     1      -7.074   1.687  -0.167  0.00  0.00    +0.157 C 
BRANCH  19  25
ATOM     20  C   UNL     1      -6.586   7.592  -1.554  0.00  0.00    +0.001 A 
ATOM     21  C   UNL     1      -5.321   7.439  -1.003  0.00  0.00    +0.002 A 
ATOM     22  C   UNL     1      -4.912   6.219  -0.511  0.00  0.00    +0.026 A 
ATOM     23  C   UNL     1      -5.773   5.128  -0.565  0.00  0.00    +0.047 A 
ATOM     24  N   UNL     1      -5.665   3.814  -0.169  0.00  0.00    -0.357 N 
ATOM     25  C   UNL     1      -6.823   3.144  -0.456  0.00  0.00    +0.034 A 
ATOM     26  H   UNL     1      -4.883   3.421   0.251  0.00  0.00    +0.166 HD
ATOM     27  C   UNL     1      -7.702   3.978  -1.034  0.00  0.00    +0.032 A 
ATOM     28  C   UNL     1      -7.054   5.289  -1.124  0.00  0.00    -0.000 A 
ATOM     29  C   UNL     1      -7.450   6.535  -1.613  0.00  0.00    +0.010 A 
ENDBRANCH  19  25
ENDBRANCH  15  19
ENDBRANCH   1  16
BRANCH  11  30
ATOM     30  C   UNL     1      -7.723  -2.648   6.321  0.00  0.00    +0.096 C 
BRANCH  30  31
ATOM     31  C   UNL     1      -7.971  -3.356   7.655  0.00  0.00    +0.013 C 
BRANCH  31  32
ATOM     32  C   UNL     1      -6.631  -3.733   8.290  0.00  0.00    -0.011 C 
ATOM     33  C   UNL     1      -5.938  -4.826   7.450  0.00  0.00    +0.003 C 
ATOM     34  C   UNL     1      -5.260  -5.740   8.501  0.00  0.00    +0.000 C 
ATOM     35  C   UNL     1      -6.299  -5.769   9.649  0.00  0.00    +0.000 C 
ATOM     36  C   UNL     1      -6.861  -4.333   9.688  0.00  0.00    +0.003 C 
ENDBRANCH  31  32
ENDBRANCH  30  31
ENDBRANCH  11  30
TORSDOF 6
