REMARK  Name = ZINC15724424
REMARK  4 active torsions:
REMARK  status: ('A' for Active; 'I' for Inactive)
REMARK    1  A    between atoms: C_4  and  N_23
REMARK    2  A    between atoms: C_6  and  C_7
REMARK    3  A    between atoms: N_8  and  N_9
REMARK    4  A    between atoms: N_12  and  C_13
REMARK                            x       y       z     vdW  Elec       q    Type
REMARK                         _______ _______ _______ _____ _____    ______ ____
ROOT
ATOM      1  N   UNL     1      -6.368   0.892   1.079  0.00  0.00    -0.191 N 
ATOM      2  C   UNL     1      -5.103   1.358   1.069  0.00  0.00    +0.320 C 
ATOM      3  O   UNL     1      -4.706   2.058   1.981  0.00  0.00    -0.251 OA
ATOM      4  N   UNL     1      -4.279   1.049   0.049  0.00  0.00    -0.293 N 
ATOM      5  H   UNL     1      -6.961   1.114   1.813  0.00  0.00    +0.179 HD
ATOM      6  H   UNL     1      -4.595   0.491  -0.679  0.00  0.00    +0.151 HD
ENDROOT
BRANCH   4   7
ATOM      7  C   UNL     1      -2.904   1.556   0.038  0.00  0.00    +0.037 C 
ATOM      8  C   UNL     1      -2.188   1.063  -1.221  0.00  0.00    +0.029 C 
ATOM      9  C   UNL     1      -0.753   1.593  -1.232  0.00  0.00    -0.008 C 
ATOM     10  C   UNL     1      -0.013   1.086   0.008  0.00  0.00    +0.007 C 
ATOM     11  C   UNL     1      -0.729   1.579   1.267  0.00  0.00    -0.008 C 
ATOM     12  C   UNL     1      -2.164   1.050   1.278  0.00  0.00    +0.029 C 
ATOM     13  C   UNL     1      -0.750   3.109   1.275  0.00  0.00    +0.007 C 
ATOM     14  C   UNL     1      -1.490   3.616   0.036  0.00  0.00    -0.008 C 
ATOM     15  C   UNL     1      -0.773   3.123  -1.223  0.00  0.00    +0.007 C 
ATOM     16  C   UNL     1      -2.925   3.086   0.047  0.00  0.00    +0.029 C 
ENDBRANCH   4   7
BRANCH   1  18
ATOM     17  C   UNL     1      -8.042  -0.363   0.037  0.00  0.00    +0.142 C 
ATOM     18  N   UNL     1      -6.825   0.086   0.028  0.00  0.00    -0.186 NA
BRANCH  17  24
ATOM     19  C   UNL     1      -9.832  -1.697  -1.062  0.00  0.00    +0.028 A 
ATOM     20  C   UNL     1     -10.277  -2.490  -2.101  0.00  0.00    +0.021 A 
ATOM     21  C   UNL     1      -9.429  -2.808  -3.149  0.00  0.00    +0.052 A 
ATOM     22  C   UNL     1      -8.130  -2.333  -3.165  0.00  0.00    +0.174 A 
ATOM     23  C   UNL     1      -7.671  -1.530  -2.135  0.00  0.00    +0.218 A 
ATOM     24  C   UNL     1      -8.523  -1.211  -1.069  0.00  0.00    +0.045 A 
ATOM     25 BR   UNL     1     -12.050  -3.147  -2.092  0.00  0.00    -0.050 Br
ATOM     26  O   UNL     1      -6.397  -1.058  -2.154  0.00  0.00    -0.285 OA
BRANCH  22  27
ATOM     27  N   UNL     1      -7.232  -2.678  -4.290  0.00  0.00    +0.060 N 
ATOM     28  O   UNL     1      -7.636  -3.379  -5.200  0.00  0.00    -0.126 OA
ATOM     29  O   UNL     1      -6.088  -2.260  -4.306  0.00  0.00    -0.126 OA
ENDBRANCH  22  27
ENDBRANCH  17  24
ENDBRANCH   1  18
TORSDOF 4
