REMARK  Name = ZINC12375700
REMARK  4 active torsions:
REMARK  status: ('A' for Active; 'I' for Inactive)
REMARK    1  A    between atoms: C_4  and  N_16
REMARK    2  A    between atoms: C_5  and  C_7
REMARK    3  A    between atoms: N_16  and  S_17
REMARK    4  A    between atoms: S_17  and  C_20
REMARK                            x       y       z     vdW  Elec       q    Type
REMARK                         _______ _______ _______ _____ _____    ______ ____
ROOT
ATOM      1  C   UNL     1       2.219  -0.204  -0.496  0.00  0.00    +0.001 A 
ATOM      2  C   UNL     1       2.304   1.174  -0.389  0.00  0.00    +0.002 A 
ATOM      3  C   UNL     1       1.164   1.933  -0.216  0.00  0.00    +0.025 A 
ATOM      4  C   UNL     1      -0.079   1.317  -0.149  0.00  0.00    +0.058 A 
ATOM      5  C   UNL     1      -0.168  -0.078  -0.258  0.00  0.00    +0.029 A 
ATOM      6  C   UNL     1       0.993  -0.833  -0.432  0.00  0.00    +0.012 A 
ENDROOT
BRANCH   5   7
ATOM      7  C   UNL     1      -1.484  -0.745  -0.187  0.00  0.00    +0.111 A 
ATOM      8  N   UNL     1      -1.764  -2.028  -0.268  0.00  0.00    -0.239 NA
ATOM      9  C   UNL     1      -3.023  -2.501  -0.187  0.00  0.00    +0.079 A 
ATOM     10  C   UNL     1      -3.459  -3.846  -0.258  0.00  0.00    +0.029 A 
ATOM     11  C   UNL     1      -4.779  -4.157  -0.157  0.00  0.00    +0.002 A 
ATOM     12  C   UNL     1      -5.747  -3.179   0.018  0.00  0.00    +0.001 A 
ATOM     13  C   UNL     1      -5.364  -1.852   0.092  0.00  0.00    +0.017 A 
ATOM     14  C   UNL     1      -4.034  -1.527  -0.008  0.00  0.00    +0.040 A 
ATOM     15  S   UNL     1      -3.100  -0.016   0.037  0.00  0.00    -0.067 S 
ENDBRANCH   5   7
BRANCH   4  16
ATOM     16  N   UNL     1      -1.230   2.081   0.019  0.00  0.00    -0.216 N 
ATOM     17  H   UNL     1      -1.964   1.741   0.555  0.00  0.00    +0.174 HD
BRANCH  16  18
ATOM     18  S   UNL     1      -1.347   3.570  -0.695  0.00  0.00    +0.073 S 
ATOM     19  O   UNL     1      -2.665   4.040  -0.442  0.00  0.00    -0.150 OA
ATOM     20  O   UNL     1      -0.191   4.299  -0.307  0.00  0.00    -0.150 OA
BRANCH  18  21
ATOM     21  C   UNL     1      -1.226   3.324  -2.436  0.00  0.00    +0.114 A 
ATOM     22  C   UNL     1       0.009   3.358  -3.054  0.00  0.00    +0.067 A 
ATOM     23  C   UNL     1       0.106   3.159  -4.421  0.00  0.00    +0.128 A 
ATOM     24  C   UNL     1      -1.036   2.938  -5.170  0.00  0.00    +0.076 A 
ATOM     25  C   UNL     1      -2.274   2.909  -4.551  0.00  0.00    +0.128 A 
ATOM     26  C   UNL     1      -2.368   3.103  -3.183  0.00  0.00    +0.067 A 
ATOM     27  F   UNL     1      -3.390   2.693  -5.281  0.00  0.00    -0.205 F 
ATOM     28  F   UNL     1       1.315   3.188  -5.024  0.00  0.00    -0.205 F 
ENDBRANCH  18  21
ENDBRANCH  16  18
ENDBRANCH   4  16
TORSDOF 4
