REMARK  Name = ZINC66527316
REMARK  7 active torsions:
REMARK  status: ('A' for Active; 'I' for Inactive)
REMARK    1  A    between atoms: C_1  and  C_2
REMARK    2  A    between atoms: C_2  and  C_4
REMARK    3  A    between atoms: C_2  and  N_17
REMARK    4  A    between atoms: N_6  and  C_7
REMARK    5  A    between atoms: C_7  and  C_8
REMARK    6  A    between atoms: C_7  and  C_9
REMARK    7  A    between atoms: C_7  and  C_10
REMARK                            x       y       z     vdW  Elec       q    Type
REMARK                         _______ _______ _______ _____ _____    ______ ____
ROOT
ATOM      1  C   UNL     1       0.033   1.471  -0.036  0.00  0.00    +0.038 C 
ATOM      2  C   UNL     1      -0.036  -0.057   0.003  0.00  0.00    +0.168 C 
ENDROOT
BRANCH   2   3
ATOM      3  N   UNL     1       0.595  -0.605  -1.200  0.00  0.00    -0.212 N 
ATOM      4  C   UNL     1      -0.042  -1.376  -2.108  0.00  0.00    +0.247 C 
ATOM      5  O   UNL     1      -1.200  -1.734  -2.085  0.00  0.00    -0.273 OA
ATOM      6  C   UNL     1       0.993  -1.696  -3.155  0.00  0.00    +0.113 C 
ATOM      7  C   UNL     1       0.561  -1.179  -4.534  0.00  0.00    +0.035 C 
ATOM      8  C   UNL     1       1.105  -2.245  -5.521  0.00  0.00    +0.003 C 
ATOM      9  C   UNL     1       0.895  -3.571  -4.746  0.00  0.00    +0.003 C 
ATOM     10  C   UNL     1       1.211  -3.206  -3.278  0.00  0.00    +0.035 C 
ATOM     11  N   UNL     1       2.205  -1.017  -2.692  0.00  0.00    -0.285 N 
ATOM     12  C   UNL     1       1.874  -0.399  -1.540  0.00  0.00    +0.310 C 
ATOM     13  O   UNL     1       2.650   0.267  -0.883  0.00  0.00    -0.252 OA
ATOM     14  H   UNL     1       3.072  -1.011  -3.128  0.00  0.00    +0.151 HD
ENDBRANCH   2   3
BRANCH   2  15
ATOM     15  C   UNL     1       0.689  -0.561   1.224  0.00  0.00    +0.234 C 
ATOM     16  O   UNL     1       1.639  -1.305   1.101  0.00  0.00    -0.274 OA
ATOM     17  N   UNL     1       0.282  -0.186   2.453  0.00  0.00    -0.305 N 
ATOM     18  H   UNL     1      -0.478   0.409   2.551  0.00  0.00    +0.150 HD
BRANCH  17  19
ATOM     19  C   UNL     1       0.986  -0.676   3.640  0.00  0.00    +0.054 C 
ATOM     20  C   UNL     1       0.894  -2.202   3.694  0.00  0.00    +0.036 C 
ATOM     21  C   UNL     1       2.456  -0.256   3.570  0.00  0.00    +0.036 C 
BRANCH  19  22
ATOM     22  C   UNL     1       0.355  -0.090   4.877  0.00  0.00    -0.025 A 
ATOM     23  C   UNL     1       0.473  -0.745   6.089  0.00  0.00    +0.007 A 
ATOM     24  C   UNL     1      -0.106  -0.208   7.223  0.00  0.00    +0.020 A 
ATOM     25  C   UNL     1      -0.804   0.984   7.146  0.00  0.00    +0.041 A 
ATOM     26  C   UNL     1      -0.922   1.639   5.932  0.00  0.00    +0.020 A 
ATOM     27  C   UNL     1      -0.338   1.104   4.800  0.00  0.00    +0.007 A 
ATOM     28 CL   UNL     1      -1.532   1.659   8.570  0.00  0.00    -0.084 Cl
ENDBRANCH  19  22
ENDBRANCH  17  19
ENDBRANCH   2  15
TORSDOF 4
