REMARK  Name = ZINC15862406
REMARK  7 active torsions:
REMARK  status: ('A' for Active; 'I' for Inactive)
REMARK    1  A    between atoms: C_1  and  C_2
REMARK    2  A    between atoms: C_2  and  C_3
REMARK    3  A    between atoms: C_2  and  C_4
REMARK    4  A    between atoms: C_7  and  N_10
REMARK    5  A    between atoms: C_24  and  C_25
REMARK    6  A    between atoms: C_24  and  C_26
REMARK    7  A    between atoms: N_28  and  C_29
REMARK                            x       y       z     vdW  Elec       q    Type
REMARK                         _______ _______ _______ _____ _____    ______ ____
ROOT
ATOM      1  N   UNL     1      -3.818   6.386   0.057  0.00  0.00    -0.243 N 
ATOM      2  C   UNL     1      -2.550   6.394   0.510  0.00  0.00    +0.269 C 
ATOM      3  O   UNL     1      -2.019   7.454   0.786  0.00  0.00    -0.268 OA
ATOM      4  C   UNL     1      -1.798   5.141   0.676  0.00  0.00    +0.113 A 
ATOM      5  C   UNL     1      -0.522   4.945   1.116  0.00  0.00    +0.041 A 
ATOM      6  C   UNL     1      -0.272   3.507   1.089  0.00  0.00    +0.002 A 
ATOM      7  C   UNL     1       0.831   2.711   1.418  0.00  0.00    +0.030 A 
ATOM      8  C   UNL     1       0.752   1.353   1.280  0.00  0.00    +0.042 A 
ATOM      9  C   UNL     1      -0.414   0.758   0.814  0.00  0.00    +0.022 A 
ATOM     10  C   UNL     1      -1.509   1.525   0.480  0.00  0.00    +0.028 A 
ATOM     11  C   UNL     1      -1.452   2.907   0.618  0.00  0.00    +0.057 A 
ATOM     12  N   UNL     1      -2.369   3.917   0.373  0.00  0.00    -0.273 N 
ATOM     13  C   UNL     1      -3.638   3.838  -0.086  0.00  0.00    +0.265 C 
ATOM     14  O   UNL     1      -4.125   2.759  -0.349  0.00  0.00    -0.269 OA
ATOM     15  C   UNL     1      -4.445   5.099  -0.272  0.00  0.00    +0.194 C 
ATOM     16  C   UNL     1      -5.710   4.968   0.579  0.00  0.00    +0.052 C 
ATOM     17 CL   UNL     1       2.120   0.365   1.688  0.00  0.00    -0.084 Cl
ENDROOT
BRANCH   1  21
ATOM     18  C   UNL     1      -5.927   9.948  -0.406  0.00  0.00    -0.045 A 
ATOM     19  C   UNL     1      -4.903   9.634  -1.280  0.00  0.00    +0.006 A 
ATOM     20  C   UNL     1      -4.202   8.454  -1.130  0.00  0.00    +0.024 A 
ATOM     21  C   UNL     1      -4.526   7.582  -0.099  0.00  0.00    +0.038 A 
ATOM     22  C   UNL     1      -5.559   7.897   0.775  0.00  0.00    +0.024 A 
ATOM     23  C   UNL     1      -6.253   9.082   0.621  0.00  0.00    +0.006 A 
BRANCH  18  25
ATOM     24  C   UNL     1      -8.171  10.926  -0.806  0.00  0.00    +0.012 C 
ATOM     25  C   UNL     1      -6.691  11.236  -0.574  0.00  0.00    +0.013 C 
ATOM     26  C   UNL     1      -6.540  12.086   0.689  0.00  0.00    +0.012 C 
ENDBRANCH  18  25
ENDBRANCH   1  21
BRANCH  15  27
ATOM     27  C   UNL     1      -4.878   5.156  -1.714  0.00  0.00    +0.246 C 
ATOM     28  O   UNL     1      -5.915   4.630  -2.058  0.00  0.00    -0.273 OA
ATOM     29  N   UNL     1      -4.112   5.792  -2.623  0.00  0.00    -0.310 N 
ATOM     30  H   UNL     1      -3.322   6.277  -2.337  0.00  0.00    +0.149 HD
BRANCH  29  31
ATOM     31  C   UNL     1      -4.473   5.752  -4.042  0.00  0.00    +0.073 C 
ATOM     32  C   UNL     1      -3.866   4.498  -4.706  0.00  0.00    +0.022 C 
ATOM     33  C   UNL     1      -3.454   4.980  -6.120  0.00  0.00    +0.002 C 
ATOM     34  C   UNL     1      -2.929   6.413  -5.854  0.00  0.00    +0.002 C 
ATOM     35  C   UNL     1      -3.877   6.969  -4.772  0.00  0.00    +0.022 C 
ENDBRANCH  29  31
ENDBRANCH  15  27
TORSDOF 4
