REMARK  Name = ZINC05954558
REMARK  12 active torsions:
REMARK  status: ('A' for Active; 'I' for Inactive)
REMARK    1  A    between atoms: C_1  and  C_2
REMARK    2  A    between atoms: C_2  and  C_3
REMARK    3  A    between atoms: C_3  and  C_5
REMARK    4  A    between atoms: C_5  and  C_6
REMARK    5  A    between atoms: C_5  and  C_28
REMARK    6  A    between atoms: C_5  and  C_34
REMARK    7  A    between atoms: C_6  and  C_7
REMARK    8  A    between atoms: C_7  and  N_76
REMARK    9  A    between atoms: C_10  and  N_13
REMARK   10  A    between atoms: C_20  and  C_24
REMARK   11  A    between atoms: C_24  and  C_25
REMARK   12  A    between atoms: C_25  and  C_26
REMARK                            x       y       z     vdW  Elec       q    Type
REMARK                         _______ _______ _______ _____ _____    ______ ____
ROOT
ATOM      1  C   UNL     1       0.465   1.006  -0.694  0.00  0.00    -0.077 C 
ATOM      2  C   UNL     1       1.952   1.333  -0.852  0.00  0.00    +0.004 C 
ATOM      3  C   UNL     1       2.512   0.570  -2.055  0.00  0.00    +0.078 C 
ATOM      4  C   UNL     1       2.282  -0.930  -1.851  0.00  0.00    +0.004 C 
ATOM      5  C   UNL     1       0.785  -1.191  -1.664  0.00  0.00    -0.077 C 
ATOM      6  N   UNL     1       0.313  -0.448  -0.476  0.00  0.00    +0.380 N 
ATOM      7  H   UNL     1       0.878  -0.724   0.335  0.00  0.00    -0.082 HD
ENDROOT
BRANCH   3   8
ATOM      8  N   UNL     1       3.948   0.832  -2.176  0.00  0.00    -0.268 N 
ATOM      9  C   UNL     1       4.541   1.411  -3.299  0.00  0.00    +0.040 A 
ATOM     10  C   UNL     1       3.984   1.854  -4.497  0.00  0.00    +0.024 A 
ATOM     11  C   UNL     1       4.789   2.399  -5.475  0.00  0.00    +0.002 A 
ATOM     12  C   UNL     1       6.153   2.512  -5.276  0.00  0.00    +0.000 A 
ATOM     13  C   UNL     1       6.714   2.075  -4.088  0.00  0.00    +0.006 A 
ATOM     14  C   UNL     1       5.912   1.529  -3.111  0.00  0.00    -0.014 A 
ATOM     15  C   UNL     1       6.203   0.970  -1.737  0.00  0.00    +0.108 C 
ATOM     16  C   UNL     1       4.845   0.549  -1.216  0.00  0.00    +0.228 C 
ATOM     17  O   UNL     1       4.611   0.048  -0.137  0.00  0.00    -0.275 OA
BRANCH  15  18
ATOM     18  C   UNL     1       7.141  -0.234  -1.836  0.00  0.00    +0.032 C 
BRANCH  18  19
ATOM     19  C   UNL     1       7.518  -0.703  -0.429  0.00  0.00    +0.119 C 
BRANCH  19  20
ATOM     20  C   UNL     1       8.421  -1.862  -0.524  0.00  0.00    +0.063 C 
ATOM     21  N   UNL     1       9.118  -2.756  -0.597  0.00  0.00    -0.197 NA
ENDBRANCH  19  20
ENDBRANCH  18  19
ENDBRANCH  15  18
ENDBRANCH   3   8
BRANCH   6  22
ATOM     22  C   UNL     1      -1.103  -0.773  -0.207  0.00  0.00    -0.077 C 
BRANCH  22  23
ATOM     23  C   UNL     1      -1.287  -2.291  -0.259  0.00  0.00    +0.005 C 
BRANCH  23  24
ATOM     24  C   UNL     1      -2.713  -2.646   0.168  0.00  0.00    +0.077 C 
BRANCH  24  25
ATOM     25  C   UNL     1      -3.689  -2.108  -0.846  0.00  0.00    -0.030 A 
ATOM     26  C   UNL     1      -3.853  -0.743  -0.992  0.00  0.00    +0.005 A 
ATOM     27  C   UNL     1      -4.745  -0.249  -1.925  0.00  0.00    +0.000 A 
ATOM     28  C   UNL     1      -5.481  -1.121  -2.706  0.00  0.00    +0.000 A 
ATOM     29  C   UNL     1      -5.322  -2.486  -2.556  0.00  0.00    +0.000 A 
ATOM     30  C   UNL     1      -4.426  -2.979  -1.627  0.00  0.00    +0.005 A 
ENDBRANCH  24  25
BRANCH  24  31
ATOM     31  C   UNL     1      -2.853  -4.144   0.254  0.00  0.00    -0.030 A 
ATOM     32  C   UNL     1      -1.819  -4.960  -0.166  0.00  0.00    +0.005 A 
ATOM     33  C   UNL     1      -1.945  -6.334  -0.081  0.00  0.00    +0.000 A 
ATOM     34  C   UNL     1      -3.110  -6.892   0.412  0.00  0.00    +0.000 A 
ATOM     35  C   UNL     1      -4.146  -6.076   0.826  0.00  0.00    +0.000 A 
ATOM     36  C   UNL     1      -4.017  -4.702   0.747  0.00  0.00    +0.005 A 
ENDBRANCH  24  31
BRANCH  24  37
ATOM     37  C   UNL     1      -3.001  -2.036   1.515  0.00  0.00    +0.148 C 
ATOM     38  O   UNL     1      -3.905  -1.246   1.640  0.00  0.00    -0.296 OA
BRANCH  37  40
ATOM     39  C   UNL     1      -2.658  -1.657   3.942  0.00  0.00    +0.012 C 
ATOM     40  C   UNL     1      -2.160  -2.412   2.708  0.00  0.00    +0.072 C 
ENDBRANCH  37  40
ENDBRANCH  24  37
ENDBRANCH  23  24
ENDBRANCH  22  23
ENDBRANCH   6  22
TORSDOF 11
