REMARK  Name = ZINC33429244
REMARK  11 active torsions:
REMARK  status: ('A' for Active; 'I' for Inactive)
REMARK    1  A    between atoms: C_1  and  C_2
REMARK    2  A    between atoms: C_2  and  C_3
REMARK    3  A    between atoms: C_3  and  C_5
REMARK    4  A    between atoms: C_3  and  C_6
REMARK    5  A    between atoms: C_6  and  C_36
REMARK    6  A    between atoms: C_11  and  C_14
REMARK    7  A    between atoms: C_16  and  C_21
REMARK    8  A    between atoms: C_19  and  C_20
REMARK    9  A    between atoms: N_24  and  C_27
REMARK   10  A    between atoms: C_30  and  C_33
REMARK   11  A    between atoms: C_33  and  C_35
REMARK                            x       y       z     vdW  Elec       q    Type
REMARK                         _______ _______ _______ _____ _____    ______ ____
ROOT
ATOM      1  C   UNL     1      -6.009   0.212  -0.193  0.00  0.00    +0.051 C 
ATOM      2  C   UNL     1      -4.582   0.559  -0.288  0.00  0.00    +0.086 C 
ATOM      3  C   UNL     1      -3.897  -0.675   0.423  0.00  0.00    +0.077 C 
ATOM      4  C   UNL     1      -4.653  -1.779  -0.317  0.00  0.00    -0.026 C 
ATOM      5  N   UNL     1      -6.021  -1.232  -0.558  0.00  0.00    +0.396 N 
ATOM      6  C   UNL     1      -2.490  -0.329   0.006  0.00  0.00    +0.229 C 
ATOM      7  O   UNL     1      -1.599  -1.100  -0.279  0.00  0.00    -0.275 OA
ATOM      8  N   UNL     1      -2.426   1.036   0.019  0.00  0.00    -0.210 N 
ATOM      9  C   UNL     1      -3.666   1.625   0.028  0.00  0.00    +0.229 C 
ATOM     10  O   UNL     1      -3.931   2.787   0.253  0.00  0.00    -0.275 OA
ATOM     11  H   UNL     1      -6.758  -1.762   0.064  0.00  0.00    -0.083 HD
ATOM     12  H   UNL     1      -6.293  -1.340  -1.619  0.00  0.00    -0.083 HD
ENDROOT
BRANCH   4  13
ATOM     13  C   UNL     1      -3.975  -2.087  -1.627  0.00  0.00    -0.057 A 
ATOM     14  C   UNL     1      -4.411  -1.482  -2.791  0.00  0.00    +0.005 A 
ATOM     15  C   UNL     1      -3.786  -1.761  -3.992  0.00  0.00    -0.050 A 
ATOM     16  C   UNL     1      -2.730  -2.653  -4.030  0.00  0.00    +0.003 A 
ATOM     17  C   UNL     1      -2.297  -3.262  -2.868  0.00  0.00    +0.004 A 
ATOM     18  C   UNL     1      -2.920  -2.979  -1.666  0.00  0.00    -0.049 A 
ATOM     19  C   UNL     1      -2.447  -3.643  -0.398  0.00  0.00    +0.044 C 
ATOM     20  C   UNL     1      -4.258  -1.097  -5.259  0.00  0.00    +0.044 C 
ENDBRANCH   4  13
BRANCH   8  21
ATOM     21  C   UNL     1      -1.228   1.754   0.017  0.00  0.00    +0.044 A 
ATOM     22  C   UNL     1      -0.013   1.076   0.008  0.00  0.00    +0.024 A 
ATOM     23  C   UNL     1       1.170   1.779   0.000  0.00  0.00    +0.013 A 
ATOM     24  C   UNL     1       1.150   3.179   0.008  0.00  0.00    +0.017 A 
ATOM     25  C   UNL     1      -0.075   3.857   0.024  0.00  0.00    +0.013 A 
ATOM     26  C   UNL     1      -1.253   3.145   0.031  0.00  0.00    +0.024 A 
BRANCH  24  27
ATOM     27  C   UNL     1       2.410   3.934   0.001  0.00  0.00    +0.160 C 
ATOM     28  O   UNL     1       3.470   3.345  -0.012  0.00  0.00    -0.292 OA
ATOM     29  C   UNL     1       2.385   5.441   0.009  0.00  0.00    +0.091 C 
ENDBRANCH  24  27
ENDBRANCH   8  21
BRANCH   1  30
ATOM     30  C   UNL     1      -6.513   0.389   1.217  0.00  0.00    +0.347 C 
ATOM     31  O   UNL     1      -5.959   1.160   1.964  0.00  0.00    -0.248 OA
ATOM     32  O   UNL     1      -7.576  -0.311   1.642  0.00  0.00    -0.248 OA
ENDBRANCH   1  30
BRANCH   1  33
ATOM     33  C   UNL     1      -6.840   1.042  -1.175  0.00  0.00    -0.014 C 
ATOM     34  C   UNL     1      -6.576   2.530  -0.936  0.00  0.00    +0.006 C 
BRANCH  33  36
ATOM     35  C   UNL     1      -9.148   1.479  -2.024  0.00  0.00    +0.004 C 
ATOM     36  C   UNL     1      -8.326   0.747  -0.962  0.00  0.00    -0.001 C 
ENDBRANCH  33  36
ENDBRANCH   1  33
TORSDOF 6
