REMARK  Name = ZINC37318415
REMARK  5 active torsions:
REMARK  status: ('A' for Active; 'I' for Inactive)
REMARK    1  A    between atoms: C_2  and  C_3
REMARK    2  A    between atoms: C_3  and  N_4
REMARK    3  A    between atoms: C_7  and  N_10
REMARK    4  A    between atoms: N_10  and  C_11
REMARK    5  A    between atoms: C_16  and  N_17
REMARK                            x       y       z     vdW  Elec       q    Type
REMARK                         _______ _______ _______ _____ _____    ______ ____
ROOT
ATOM      1  N   UNL     1       5.082   3.884  -1.464  0.00  0.00    -0.339 N 
ATOM      2  H   UNL     1       5.777   3.279  -1.161  0.00  0.00    +0.146 HD
ENDROOT
BRANCH   1   6
ATOM      3  N   UNL     1       1.638   1.466  -1.228  0.00  0.00    +0.387 N 
ATOM      4  C   UNL     1       2.454   1.336  -2.441  0.00  0.00    -0.076 C 
ATOM      5  C   UNL     1       3.856   1.890  -2.179  0.00  0.00    +0.003 C 
ATOM      6  C   UNL     1       3.751   3.367  -1.790  0.00  0.00    +0.067 C 
ATOM      7  C   UNL     1       2.837   3.499  -0.568  0.00  0.00    +0.003 C 
ATOM      8  C   UNL     1       1.472   2.885  -0.890  0.00  0.00    -0.076 C 
ATOM      9  H   UNL     1       2.095   0.991  -0.465  0.00  0.00    -0.080 HD
BRANCH   3  10
ATOM     10  C   UNL     1       0.319   0.863  -1.460  0.00  0.00    +0.012 C 
BRANCH  10  12
ATOM     11  C   UNL     1       0.596  -1.738  -1.858  0.00  0.00    +0.002 C 
ATOM     12  C   UNL     1       0.473  -0.584  -1.681  0.00  0.00    -0.124 C 
ENDBRANCH  10  12
ENDBRANCH   3  10
ENDBRANCH   1   6
BRANCH   1  13
ATOM     13  C   UNL     1       5.351   5.250  -1.588  0.00  0.00    +0.058 A 
ATOM     14  C   UNL     1       4.396   6.100  -2.131  0.00  0.00    +0.026 A 
ATOM     15  C   UNL     1       4.665   7.449  -2.253  0.00  0.00    +0.017 A 
ATOM     16  C   UNL     1       5.884   7.954  -1.835  0.00  0.00    +0.020 A 
ATOM     17  C   UNL     1       6.836   7.109  -1.294  0.00  0.00    +0.050 A 
ATOM     18  C   UNL     1       6.571   5.760  -1.163  0.00  0.00    +0.148 A 
ATOM     19 BR   UNL     1       6.248   9.802  -2.003  0.00  0.00    -0.050 Br
BRANCH  18  20
ATOM     20  N   UNL     1       7.588   4.858  -0.578  0.00  0.00    +0.058 N 
ATOM     21  O   UNL     1       7.247   3.947   0.140  0.00  0.00    -0.126 OA
ATOM     22  O   UNL     1       8.760   5.031  -0.819  0.00  0.00    -0.126 OA
ENDBRANCH  18  20
ENDBRANCH   1  13
TORSDOF 5
