REMARK  Name = ZINC19924579
REMARK  3 active torsions:
REMARK  status: ('A' for Active; 'I' for Inactive)
REMARK    1  A    between atoms: C_4  and  C_7
REMARK    2  A    between atoms: C_17  and  N_21
REMARK    3  A    between atoms: N_21  and  C_22
REMARK                            x       y       z     vdW  Elec       q    Type
REMARK                         _______ _______ _______ _____ _____    ______ ____
ROOT
ATOM      1  C   UNL     1       4.281  -0.576  -0.866  0.00  0.00    +0.283 C 
ATOM      2  O   UNL     1       5.098  -0.472  -2.036  0.00  0.00    -0.343 OA
ATOM      3  C   UNL     1       6.288  -1.264  -1.969  0.00  0.00    +0.211 C 
ATOM      4  C   UNL     1       5.913  -2.728  -1.743  0.00  0.00    +0.235 C 
ATOM      5  C   UNL     1       4.966  -2.849  -0.550  0.00  0.00    +0.189 C 
ATOM      6  O   UNL     1       3.886  -1.937  -0.687  0.00  0.00    -0.336 OA
ATOM      7  C   UNL     1       4.421  -4.251  -0.466  0.00  0.00    +0.038 C 
ATOM      8  C   UNL     1       4.412  -5.056  -1.530  0.00  0.00    +0.115 C 
ATOM      9  C   UNL     1       4.953  -4.573  -2.820  0.00  0.00    +0.354 C 
ATOM     10  O   UNL     1       5.103  -5.326  -3.762  0.00  0.00    -0.244 OA
ATOM     11  O   UNL     1       5.262  -3.252  -2.905  0.00  0.00    -0.452 OA
ENDROOT
BRANCH   1  15
ATOM     12  C   UNL     1       0.810   1.869  -1.329  0.00  0.00    +0.000 A 
ATOM     13  C   UNL     1       2.068   2.441  -1.369  0.00  0.00    +0.000 A 
ATOM     14  C   UNL     1       3.191   1.649  -1.219  0.00  0.00    +0.008 A 
ATOM     15  C   UNL     1       3.057   0.287  -1.029  0.00  0.00    +0.008 A 
ATOM     16  C   UNL     1       1.798  -0.284  -0.988  0.00  0.00    +0.008 A 
ATOM     17  C   UNL     1       0.675   0.507  -1.140  0.00  0.00    +0.000 A 
ENDBRANCH   1  15
BRANCH   8  18
ATOM     18  N   UNL     1       3.893  -6.351  -1.427  0.00  0.00    -0.312 N 
ATOM     19  H   UNL     1       4.284  -6.982  -0.802  0.00  0.00    +0.152 HD
BRANCH  18  20
ATOM     20  C   UNL     1       2.840  -6.727  -2.205  0.00  0.00    +0.012 C 
ATOM     21  C   UNL     1       2.233  -5.810  -2.989  0.00  0.00    +0.065 C 
ATOM     22  C   UNL     1       1.151  -6.144  -3.810  0.00  0.00    +0.158 C 
ATOM     23  O   UNL     1       0.632  -5.290  -4.500  0.00  0.00    -0.293 OA
ATOM     24  C   UNL     1       0.625  -7.556  -3.847  0.00  0.00    +0.079 C 
ATOM     25  C   UNL     1       1.769  -8.526  -3.535  0.00  0.00    +0.014 C 
ATOM     26  C   UNL     1       2.377  -8.160  -2.181  0.00  0.00    +0.051 C 
ENDBRANCH  18  20
ENDBRANCH   8  18
TORSDOF 3
