REMARK  Name = ZINC21882469
REMARK  6 active torsions:
REMARK  status: ('A' for Active; 'I' for Inactive)
REMARK    1  A    between atoms: C_1  and  C_2
REMARK    2  A    between atoms: C_5  and  N_9
REMARK    3  A    between atoms: C_7  and  C_8
REMARK    4  A    between atoms: C_10  and  C_12
REMARK    5  A    between atoms: C_12  and  C_13
REMARK    6  A    between atoms: C_13  and  C_14
REMARK                            x       y       z     vdW  Elec       q    Type
REMARK                         _______ _______ _______ _____ _____    ______ ____
ROOT
ATOM      1  C   UNL     1       1.116   2.089   0.364  0.00  0.00    +0.111 A 
ATOM      2  N   UNL     1      -0.029   1.379   0.539  0.00  0.00    -0.310 N 
ATOM      3  H   UNL     1      -0.984   1.904   0.689  0.00  0.00    +0.170 HD
ATOM      4  C   UNL     1      -0.025   0.033   0.533  0.00  0.00    +0.260 A 
ATOM      5  O   UNL     1      -1.061  -0.590   0.690  0.00  0.00    -0.267 OA
ATOM      6  C   UNL     1       1.218  -0.654   0.340  0.00  0.00    +0.075 A 
ATOM      7  C   UNL     1       1.455  -2.100   0.296  0.00  0.00    -0.023 A 
ATOM      8  C   UNL     1       2.729  -2.500   0.106  0.00  0.00    -0.004 A 
ATOM      9  S   UNL     1       3.668  -1.001  -0.039  0.00  0.00    -0.073 S 
ATOM     10  C   UNL     1       2.345   0.163   0.168  0.00  0.00    +0.116 A 
ATOM     11  N   UNL     1       2.263   1.491   0.184  0.00  0.00    -0.227 NA
ATOM     12  C   UNL     1       3.252  -3.901   0.037  0.00  0.00    +0.043 C 
ATOM     13  C   UNL     1       2.387  -4.717  -0.933  0.00  0.00    +0.005 C 
ATOM     14  C   UNL     1       1.240  -5.342  -0.145  0.00  0.00    +0.001 C 
ATOM     15  C   UNL     1       0.822  -4.414   0.995  0.00  0.00    +0.005 C 
ATOM     16  C   UNL     1       0.304  -3.091   0.445  0.00  0.00    +0.037 C 
ENDROOT
BRANCH   1  17
ATOM     17  C   UNL     1       1.061   3.595   0.377  0.00  0.00    +0.083 C 
BRANCH  17  18
ATOM     18  C   UNL     1       2.467   4.158   0.161  0.00  0.00    +0.104 C 
BRANCH  18  20
ATOM     19  N   UNL     1       3.541   6.381   0.002  0.00  0.00    -0.285 N 
ATOM     20  C   UNL     1       2.413   5.664   0.174  0.00  0.00    +0.218 C 
ATOM     21  O   UNL     1       1.354   6.231   0.341  0.00  0.00    -0.275 OA
ATOM     22  H   UNL     1       4.513   5.870  -0.062  0.00  0.00    +0.155 HD
BRANCH  19  27
ATOM     23  C   UNL     1       3.278  12.034  -0.394  0.00  0.00    +0.044 C 
ATOM     24  C   UNL     1       3.348  10.532  -0.289  0.00  0.00    -0.047 A 
ATOM     25  C   UNL     1       2.315   9.757  -0.783  0.00  0.00    +0.005 A 
ATOM     26  C   UNL     1       2.379   8.381  -0.694  0.00  0.00    +0.023 A 
ATOM     27  C   UNL     1       3.477   7.775  -0.096  0.00  0.00    +0.034 A 
ATOM     28  C   UNL     1       4.512   8.556   0.399  0.00  0.00    +0.027 A 
ATOM     29  C   UNL     1       4.445   9.933   0.301  0.00  0.00    -0.046 A 
ATOM     30  C   UNL     1       5.569  10.781   0.838  0.00  0.00    +0.044 C 
ENDBRANCH  19  27
ENDBRANCH  18  20
ENDBRANCH  17  18
ENDBRANCH   1  17
TORSDOF 4
