REMARK  Name = ZINC37017346
REMARK  7 active torsions:
REMARK  status: ('A' for Active; 'I' for Inactive)
REMARK    1  A    between atoms: C_1  and  C_2
REMARK    2  A    between atoms: C_2  and  C_4
REMARK    3  A    between atoms: C_2  and  N_11
REMARK    4  A    between atoms: N_11  and  C_12
REMARK    5  A    between atoms: C_12  and  C_14
REMARK    6  A    between atoms: C_12  and  C_15
REMARK    7  A    between atoms: N_19  and  C_20
REMARK                            x       y       z     vdW  Elec       q    Type
REMARK                         _______ _______ _______ _____ _____    ______ ____
ROOT
ATOM      1  N   UNL     1      -1.370  -0.512   0.133  0.00  0.00    +0.390 N 
ATOM      2  H   UNL     1      -1.977  -0.257  -0.632  0.00  0.00    -0.084 HD
ATOM      3  H   UNL     1      -1.271  -1.516   0.163  0.00  0.00    -0.084 HD
ENDROOT
BRANCH   1   5
ATOM      4  C   UNL     1      -0.216   1.612  -0.258  0.00  0.00    -0.009 C 
ATOM      5  C   UNL     1      -0.051   0.103  -0.062  0.00  0.00    -0.043 C 
BRANCH   5   6
ATOM      6  C   UNL     1       0.606  -0.492  -1.281  0.00  0.00    -0.061 A 
ATOM      7  C   UNL     1      -0.143  -0.751  -2.414  0.00  0.00    +0.002 A 
ATOM      8  C   UNL     1       0.459  -1.297  -3.531  0.00  0.00    +0.001 A 
ATOM      9  C   UNL     1       1.811  -1.585  -3.517  0.00  0.00    +0.015 A 
ATOM     10  C   UNL     1       2.561  -1.326  -2.385  0.00  0.00    +0.018 A 
ATOM     11  C   UNL     1       1.959  -0.775  -1.268  0.00  0.00    +0.017 A 
ATOM     12 BR   UNL     1       4.410  -1.721  -2.364  0.00  0.00    -0.050 Br
ENDBRANCH   5   6
ENDBRANCH   1   5
BRANCH   1  13
ATOM     13  C   UNL     1      -1.950  -0.038   1.397  0.00  0.00    -0.005 C 
ATOM     14  C   UNL     1      -3.378  -0.568   1.533  0.00  0.00    -0.006 C 
BRANCH  13  15
ATOM     15  C   UNL     1      -1.117  -0.536   2.549  0.00  0.00    +0.119 A 
ATOM     16  N   UNL     1      -0.647  -1.745   2.699  0.00  0.00    -0.136 NA
ATOM     17  N   UNL     1       0.020  -1.818   3.796  0.00  0.00    -0.138 NA
ATOM     18  C   UNL     1       0.006  -0.659   4.396  0.00  0.00    +0.224 A 
ATOM     19  N   UNL     1      -0.712   0.189   3.620  0.00  0.00    -0.322 N 
ATOM     20  C   UNL     1      -0.994   1.601   3.885  0.00  0.00    +0.151 C 
ENDBRANCH  13  15
ENDBRANCH   1  13
TORSDOF 4
