REMARK  Name = ZINC40925992
REMARK  9 active torsions:
REMARK  status: ('A' for Active; 'I' for Inactive)
REMARK    1  A    between atoms: C_1  and  C_2
REMARK    2  A    between atoms: C_2  and  C_3
REMARK    3  A    between atoms: C_3  and  C_5
REMARK    4  A    between atoms: C_3  and  N_6
REMARK    5  A    between atoms: C_7  and  C_9
REMARK    6  A    between atoms: C_18  and  C_21
REMARK    7  A    between atoms: C_24  and  C_27
REMARK    8  A    between atoms: C_27  and  C_28
REMARK    9  A    between atoms: C_27  and  C_29
REMARK                            x       y       z     vdW  Elec       q    Type
REMARK                         _______ _______ _______ _____ _____    ______ ____
ROOT
ATOM      1  C   UNL     1       4.321   0.364  -2.461  0.00  0.00    +0.078 C 
ATOM      2  C   UNL     1       4.246   1.787  -1.902  0.00  0.00    +0.031 C 
ATOM      3  C   UNL     1       5.665   2.309  -1.654  0.00  0.00    +0.107 C 
ATOM      4  N   UNL     1       6.438   2.189  -2.897  0.00  0.00    -0.314 N 
ATOM      5  C   UNL     1       6.500   0.882  -3.567  0.00  0.00    +0.107 C 
ATOM      6  C   UNL     1       5.072   0.376  -3.794  0.00  0.00    +0.031 C 
ATOM      7  C   UNL     1       7.097   3.290  -3.430  0.00  0.00    +0.144 A 
ATOM      8  C   UNL     1       7.215   4.463  -2.683  0.00  0.00    +0.047 A 
ATOM      9  C   UNL     1       7.880   5.533  -3.254  0.00  0.00    +0.033 A 
ATOM     10  C   UNL     1       8.393   5.372  -4.546  0.00  0.00    +0.093 A 
ATOM     11  N   UNL     1       8.232   4.219  -5.181  0.00  0.00    -0.147 NA
ATOM     12  N   UNL     1       7.619   3.226  -4.647  0.00  0.00    -0.134 NA
ENDROOT
BRANCH  10  13
ATOM     13  C   UNL     1       9.114   6.489  -5.204  0.00  0.00    +0.002 A 
ATOM     14  C   UNL     1       9.288   7.699  -4.536  0.00  0.00    +0.010 A 
ATOM     15  C   UNL     1       9.960   8.735  -5.153  0.00  0.00    +0.004 A 
ATOM     16  C   UNL     1      10.460   8.573  -6.432  0.00  0.00    -0.045 A 
ATOM     17  C   UNL     1      10.290   7.374  -7.101  0.00  0.00    +0.004 A 
ATOM     18  C   UNL     1       9.625   6.330  -6.491  0.00  0.00    +0.010 A 
BRANCH  16  19
ATOM     19  C   UNL     1      11.193   9.708  -7.101  0.00  0.00    +0.013 C 
ATOM     20  C   UNL     1      12.618   9.266  -7.439  0.00  0.00    +0.012 C 
ATOM     21  C   UNL     1      10.462  10.099  -8.387  0.00  0.00    +0.012 C 
ENDBRANCH  16  19
ENDBRANCH  10  13
BRANCH   1  23
ATOM     22  N   UNL     1       2.077  -0.268  -1.633  0.00  0.00    -0.313 N 
ATOM     23  C   UNL     1       2.926  -0.166  -2.675  0.00  0.00    +0.216 C 
ATOM     24  O   UNL     1       2.568  -0.500  -3.784  0.00  0.00    -0.276 OA
ATOM     25  H   UNL     1       2.363  -0.000  -0.746  0.00  0.00    +0.149 HD
BRANCH  22  26
ATOM     26  C   UNL     1       0.721  -0.782  -1.841  0.00  0.00    +0.070 C 
ATOM     27  C   UNL     1       0.742  -2.311  -1.785  0.00  0.00    +0.028 C 
BRANCH  26  29
ATOM     28  C   UNL     1      -0.321   1.275  -0.881  0.00  0.00    +0.005 C 
ATOM     29  C   UNL     1      -0.202  -0.244  -0.747  0.00  0.00    +0.018 C 
ENDBRANCH  26  29
ENDBRANCH  22  26
ENDBRANCH   1  23
TORSDOF 5
