REMARK  Name = ZINC16250153
REMARK  8 active torsions:
REMARK  status: ('A' for Active; 'I' for Inactive)
REMARK    1  A    between atoms: C_1  and  C_2
REMARK    2  A    between atoms: C_3  and  C_11
REMARK    3  A    between atoms: C_7  and  N_8
REMARK    4  A    between atoms: N_13  and  C_14
REMARK    5  A    between atoms: C_14  and  N_16
REMARK    6  A    between atoms: C_19  and  C_22
REMARK    7  A    between atoms: C_25  and  O_29
REMARK    8  A    between atoms: O_29  and  C_30
REMARK                            x       y       z     vdW  Elec       q    Type
REMARK                         _______ _______ _______ _____ _____    ______ ____
ROOT
ATOM      1  C   UNL     1       4.772   0.488  -0.232  0.00  0.00    +0.163 C 
ATOM      2  S   UNL     1       4.749  -1.223  -0.217  0.00  0.00    -0.016 S 
ENDROOT
BRANCH   1   3
ATOM      3  N   UNL     1       3.615   1.177  -0.278  0.00  0.00    -0.169 NA
ATOM      4  C   UNL     1       2.404   0.499  -0.314  0.00  0.00    +0.162 A 
ATOM      5  N   UNL     1       1.176   0.982  -0.360  0.00  0.00    -0.335 N 
ATOM      6  C   UNL     1       0.122   0.180  -0.389  0.00  0.00    +0.055 A 
ATOM      7  C   UNL     1       0.308  -1.173  -0.369  0.00  0.00    +0.074 A 
ATOM      8  S   UNL     1       2.093  -1.262  -0.307  0.00  0.00    -0.060 S 
ATOM      9  H   UNL     1       1.013   2.070  -0.376  0.00  0.00    +0.168 HD
BRANCH   6  10
ATOM     10  C   UNL     1      -1.248   0.747  -0.447  0.00  0.00    +0.000 A 
ATOM     11  C   UNL     1      -1.432   2.128  -0.467  0.00  0.00    +0.013 A 
ATOM     12  C   UNL     1      -2.707   2.652  -0.521  0.00  0.00    +0.047 A 
ATOM     13  C   UNL     1      -3.806   1.806  -0.556  0.00  0.00    +0.134 A 
ATOM     14  C   UNL     1      -3.627   0.429  -0.536  0.00  0.00    +0.060 A 
ATOM     15  C   UNL     1      -2.353  -0.102  -0.488  0.00  0.00    +0.029 A 
ATOM     16 BR   UNL     1      -5.127  -0.721  -0.584  0.00  0.00    -0.046 Br
BRANCH  13  17
ATOM     17  O   UNL     1      -5.061   2.325  -0.609  0.00  0.00    -0.494 OA
ATOM     18  C   UNL     1      -5.174   3.749  -0.627  0.00  0.00    +0.277 C 
ENDBRANCH  13  17
ENDBRANCH   6  10
ENDBRANCH   1   3
BRANCH   1  21
ATOM     19  C   UNL     1       7.105   0.458  -0.151  0.00  0.00    +0.250 C 
ATOM     20  O   UNL     1       7.089  -0.757  -0.141  0.00  0.00    -0.270 OA
ATOM     21  N   UNL     1       5.947   1.147  -0.198  0.00  0.00    -0.262 N 
ATOM     22  H   UNL     1       5.962   2.247  -0.207  0.00  0.00    +0.157 HD
BRANCH  19  25
ATOM     23  C   UNL     1       9.562  -1.020   0.237  0.00  0.00    +0.047 C 
ATOM     24  C   UNL     1       9.586   0.478   0.073  0.00  0.00    -0.008 A 
ATOM     25  C   UNL     1       8.393   1.181  -0.114  0.00  0.00    +0.042 A 
ATOM     26  C   UNL     1       8.424   2.568  -0.260  0.00  0.00    +0.013 A 
ATOM     27  C   UNL     1       9.630   3.237  -0.223  0.00  0.00    +0.003 A 
ATOM     28  C   UNL     1      10.808   2.534  -0.043  0.00  0.00    +0.033 A 
ATOM     29  C   UNL     1      10.786   1.158   0.103  0.00  0.00    +0.130 A 
BRANCH  29  30
ATOM     30  N   UNL     1      12.051   0.415   0.296  0.00  0.00    +0.057 N 
ATOM     31  O   UNL     1      13.096   1.021   0.451  0.00  0.00    -0.126 OA
ATOM     32  O   UNL     1      12.047  -0.803   0.300  0.00  0.00    -0.126 OA
ENDBRANCH  29  30
ENDBRANCH  19  25
ENDBRANCH   1  21
TORSDOF 6
