REMARK  Name = ZINC14539262
REMARK  8 active torsions:
REMARK  status: ('A' for Active; 'I' for Inactive)
REMARK    1  A    between atoms: C_1  and  N_2
REMARK    2  A    between atoms: C_5  and  C_7
REMARK    3  A    between atoms: C_17  and  N_63
REMARK    4  A    between atoms: C_21  and  C_22
REMARK    5  A    between atoms: C_21  and  N_63
REMARK    6  A    between atoms: C_22  and  C_23
REMARK    7  A    between atoms: C_28  and  O_29
REMARK    8  A    between atoms: O_29  and  C_30
REMARK                            x       y       z     vdW  Elec       q    Type
REMARK                         _______ _______ _______ _____ _____    ______ ____
ROOT
ATOM      1  C   UNL     1      -2.781   3.930   2.994  0.00  0.00    +0.172 C 
ATOM      2  N   UNL     1      -1.930   2.832   2.528  0.00  0.00    -0.270 N 
ATOM      3  C   UNL     1      -1.710   2.521   1.240  0.00  0.00    +0.043 A 
ATOM      4  C   UNL     1      -0.877   1.451   1.222  0.00  0.00    +0.004 A 
ATOM      5  C   UNL     1      -0.611   1.145   2.568  0.00  0.00    +0.151 A 
ATOM      6  N   UNL     1      -1.282   2.022   3.295  0.00  0.00    -0.166 NA
ATOM      7  C   UNL     1      -0.379   0.778  -0.027  0.00  0.00    +0.023 C 
ATOM      8  C   UNL     1      -1.265   1.220  -1.199  0.00  0.00    -0.067 C 
ATOM      9  C   UNL     1      -1.395   2.745  -1.195  0.00  0.00    -0.009 C 
ATOM     10  C   UNL     1      -2.249   3.187   0.000  0.00  0.00    +0.054 C 
ENDROOT
BRANCH   5  11
ATOM     11  C   UNL     1       0.250   0.055   3.071  0.00  0.00    +0.267 C 
ATOM     12  O   UNL     1       0.894  -0.619   2.292  0.00  0.00    -0.268 OA
ATOM     13  N   UNL     1       0.320  -0.191   4.394  0.00  0.00    -0.296 N 
ATOM     14  C   UNL     1      -0.546   0.549   5.284  0.00  0.00    +0.108 C 
ATOM     15  C   UNL     1       0.147   1.854   5.728  0.00  0.00    +0.019 C 
ATOM     16  C   UNL     1       1.251   1.556   6.654  0.00  0.00    +0.002 C 
ATOM     17  C   UNL     1       2.372   0.718   6.047  0.00  0.00    +0.002 C 
ATOM     18  C   UNL     1       2.015  -0.744   6.151  0.00  0.00    +0.019 C 
ATOM     19  C   UNL     1       1.282  -1.201   4.876  0.00  0.00    +0.108 C 
ENDBRANCH   5  11
BRANCH   8  20
ATOM     20  N   UNL     1      -0.647   0.782  -2.465  0.00  0.00    +0.381 N 
ATOM     21  H   UNL     1      -0.183  -0.122  -2.320  0.00  0.00    -0.086 HD
ATOM     22  H   UNL     1       0.045   1.479  -2.763  0.00  0.00    -0.086 HD
BRANCH  20  23
ATOM     23  C   UNL     1      -1.675   0.638  -3.513  0.00  0.00    -0.077 C 
BRANCH  23  24
ATOM     24  C   UNL     1      -1.006   0.183  -4.812  0.00  0.00    +0.020 C 
BRANCH  24  25
ATOM     25  C   UNL     1      -2.050   0.034  -5.889  0.00  0.00    -0.007 A 
ATOM     26  C   UNL     1      -2.612  -1.203  -6.139  0.00  0.00    +0.007 A 
ATOM     27  C   UNL     1      -3.573  -1.340  -7.124  0.00  0.00    +0.000 A 
ATOM     28  C   UNL     1      -3.966  -0.242  -7.867  0.00  0.00    +0.004 A 
ATOM     29  C   UNL     1      -3.403   0.995  -7.624  0.00  0.00    +0.046 A 
ATOM     30  C   UNL     1      -2.442   1.136  -6.633  0.00  0.00    +0.123 A 
BRANCH  30  31
ATOM     31  O   UNL     1      -1.886   2.353  -6.393  0.00  0.00    -0.495 OA
ATOM     32  C   UNL     1      -2.339   3.444  -7.197  0.00  0.00    +0.277 C 
ENDBRANCH  30  31
ENDBRANCH  24  25
ENDBRANCH  23  24
ENDBRANCH  20  23
ENDBRANCH   8  20
TORSDOF 6
