REMARK  Name = ZINC49473407
REMARK  6 active torsions:
REMARK  status: ('A' for Active; 'I' for Inactive)
REMARK    1  A    between atoms: C_1  and  C_2
REMARK    2  A    between atoms: C_2  and  C_3
REMARK    3  A    between atoms: C_13  and  N_15
REMARK    4  A    between atoms: C_16  and  C_18
REMARK    5  A    between atoms: C_18  and  C_19
REMARK    6  A    between atoms: C_18  and  C_25
REMARK                            x       y       z     vdW  Elec       q    Type
REMARK                         _______ _______ _______ _____ _____    ______ ____
ROOT
ATOM      1  N   UNL     1       6.366  -0.983   1.342  0.00  0.00    -0.285 N 
ATOM      2  C   UNL     1       7.044  -0.764   0.198  0.00  0.00    +0.229 C 
ATOM      3  O   UNL     1       6.460  -0.362  -0.786  0.00  0.00    -0.274 OA
ATOM      4  H   UNL     1       6.842  -1.251   2.144  0.00  0.00    +0.155 HD
ENDROOT
BRANCH   1  15
ATOM      5  C   UNL     1       0.777  -0.351   1.475  0.00  0.00    -0.033 A 
ATOM      6  C   UNL     1       0.231   0.641   0.727  0.00  0.00    +0.074 A 
ATOM      7  C   UNL     1       1.054   1.474  -0.059  0.00  0.00    +0.249 A 
ATOM      8  O   UNL     1       0.543   2.359  -0.723  0.00  0.00    -0.268 OA
ATOM      9  N   UNL     1       2.389   1.317  -0.093  0.00  0.00    -0.322 N 
ATOM     10  H   UNL     1       2.926   1.908  -0.644  0.00  0.00    +0.169 HD
ATOM     11  C   UNL     1       3.006   0.329   0.645  0.00  0.00    +0.051 A 
ATOM     12  C   UNL     1       2.229  -0.527   1.450  0.00  0.00    +0.002 A 
ATOM     13  C   UNL     1       2.848  -1.530   2.206  0.00  0.00    +0.012 A 
ATOM     14  C   UNL     1       4.204  -1.671   2.164  0.00  0.00    +0.024 A 
ATOM     15  C   UNL     1       4.980  -0.824   1.373  0.00  0.00    +0.035 A 
ATOM     16  C   UNL     1       4.385   0.168   0.610  0.00  0.00    +0.049 A 
BRANCH   5  18
ATOM     17  C   UNL     1      -0.415  -2.524   1.540  0.00  0.00    +0.009 C 
ATOM     18  C   UNL     1      -0.093  -1.247   2.318  0.00  0.00    +0.032 C 
ENDBRANCH   5  18
ENDBRANCH   1  15
BRANCH   2  19
ATOM     19  C   UNL     1       8.528  -1.019   0.141  0.00  0.00    +0.135 C 
BRANCH  19  20
ATOM     20  C   UNL     1       8.802  -2.468   0.455  0.00  0.00    -0.031 A 
ATOM     21  C   UNL     1       7.934  -3.447   0.009  0.00  0.00    +0.005 A 
ATOM     22  C   UNL     1       8.185  -4.776   0.298  0.00  0.00    +0.000 A 
ATOM     23  C   UNL     1       9.303  -5.125   1.031  0.00  0.00    +0.000 A 
ATOM     24  C   UNL     1      10.171  -4.145   1.476  0.00  0.00    +0.000 A 
ATOM     25  C   UNL     1       9.923  -2.817   1.185  0.00  0.00    +0.005 A 
ENDBRANCH  19  20
BRANCH  19  26
ATOM     26  C   UNL     1       9.041  -0.700  -1.240  0.00  0.00    -0.031 A 
ATOM     27  C   UNL     1       8.617  -1.444  -2.324  0.00  0.00    +0.005 A 
ATOM     28  C   UNL     1       9.087  -1.151  -3.590  0.00  0.00    +0.000 A 
ATOM     29  C   UNL     1       9.980  -0.113  -3.773  0.00  0.00    +0.000 A 
ATOM     30  C   UNL     1      10.404   0.633  -2.688  0.00  0.00    +0.000 A 
ATOM     31  C   UNL     1       9.931   0.343  -1.422  0.00  0.00    +0.005 A 
ENDBRANCH  19  26
ENDBRANCH   2  19
TORSDOF 5
