REMARK  Name = ZINC38789155
REMARK  7 active torsions:
REMARK  status: ('A' for Active; 'I' for Inactive)
REMARK    1  A    between atoms: C_1  and  C_2
REMARK    2  A    between atoms: C_10  and  C_12
REMARK    3  A    between atoms: C_15  and  N_18
REMARK    4  A    between atoms: N_18  and  C_19
REMARK    5  A    between atoms: C_19  and  C_20
REMARK    6  A    between atoms: C_25  and  O_32
REMARK    7  A    between atoms: O_32  and  C_33
REMARK                            x       y       z     vdW  Elec       q    Type
REMARK                         _______ _______ _______ _____ _____    ______ ____
ROOT
ATOM      1  C   UNL     1       0.087  -5.574   2.239  0.00  0.00    +0.017 A 
ATOM      2  C   UNL     1       0.089  -5.630   3.634  0.00  0.00    +0.013 A 
ATOM      3  C   UNL     1       0.107  -6.850   4.273  0.00  0.00    +0.023 A 
ATOM      4  C   UNL     1       0.125  -8.026   3.530  0.00  0.00    +0.027 A 
ATOM      5  C   UNL     1       0.123  -7.973   2.139  0.00  0.00    +0.023 A 
ATOM      6  C   UNL     1       0.098  -6.756   1.495  0.00  0.00    +0.013 A 
ENDROOT
BRANCH   1  16
ATOM      7  C   UNL     1      -0.018   1.503   0.010  0.00  0.00    +0.044 C 
ATOM      8  C   UNL     1       0.002  -0.004   0.002  0.00  0.00    -0.048 A 
ATOM      9  C   UNL     1       0.006  -0.686  -1.206  0.00  0.00    +0.005 A 
ATOM     10  C   UNL     1       0.024  -2.052  -1.235  0.00  0.00    +0.030 A 
ATOM     11  C   UNL     1       0.039  -2.775  -0.038  0.00  0.00    +0.089 A 
ATOM     12  C   UNL     1       0.036  -2.083   1.186  0.00  0.00    +0.067 A 
ATOM     13  C   UNL     1       0.023  -0.695   1.195  0.00  0.00    +0.031 A 
ATOM     14  N   UNL     1       0.053  -3.048   2.175  0.00  0.00    -0.338 N 
ATOM     15  H   UNL     1       0.056  -2.892   3.132  0.00  0.00    +0.167 HD
ATOM     16  C   UNL     1       0.066  -4.267   1.551  0.00  0.00    +0.139 A 
ATOM     17  N   UNL     1       0.058  -4.099   0.250  0.00  0.00    -0.228 NA
ENDBRANCH   1  16
BRANCH   4  18
ATOM     18  N   UNL     1       0.145  -9.259   4.179  0.00  0.00    -0.343 N 
ATOM     19  H   UNL     1       0.147  -9.297   5.148  0.00  0.00    +0.146 HD
BRANCH  18  20
ATOM     20  C   UNL     1       0.163 -10.498   3.397  0.00  0.00    +0.118 C 
BRANCH  20  21
ATOM     21  C   UNL     1       0.183 -11.699   4.345  0.00  0.00    +0.115 C 
ATOM     22  C   UNL     1      -0.020 -12.951   3.514  0.00  0.00    -0.003 C 
ATOM     23  C   UNL     1       0.950 -13.907   3.578  0.00  0.00    -0.004 A 
ATOM     24  C   UNL     1       0.832 -15.146   2.809  0.00  0.00    +0.055 A 
ATOM     25  C   UNL     1       1.825 -16.074   2.904  0.00  0.00    +0.121 A 
ATOM     26  C   UNL     1       2.943 -15.861   3.719  0.00  0.00    +0.047 A 
ATOM     27  C   UNL     1       3.107 -14.733   4.455  0.00  0.00    +0.027 A 
ATOM     28  C   UNL     1       2.138 -13.712   4.427  0.00  0.00    +0.041 A 
ATOM     29  N   UNL     1       2.313 -12.609   5.155  0.00  0.00    -0.284 N 
ATOM     30  C   UNL     1       1.444 -11.613   5.176  0.00  0.00    +0.226 C 
ATOM     31  O   UNL     1       1.658 -10.631   5.861  0.00  0.00    -0.275 OA
ATOM     32  H   UNL     1       3.115 -12.534   5.695  0.00  0.00    +0.155 HD
BRANCH  25  33
ATOM     33  O   UNL     1       1.727 -17.229   2.193  0.00  0.00    -0.495 OA
ATOM     34  C   UNL     1       2.796 -18.167   2.331  0.00  0.00    +0.277 C 
ENDBRANCH  25  33
ENDBRANCH  20  21
ENDBRANCH  18  20
ENDBRANCH   4  18
TORSDOF 5
