REMARK  Name = ZINC44172627
REMARK  8 active torsions:
REMARK  status: ('A' for Active; 'I' for Inactive)
REMARK    1  A    between atoms: C_1  and  C_2
REMARK    2  A    between atoms: C_2  and  C_4
REMARK    3  A    between atoms: C_2  and  O_40
REMARK    4  A    between atoms: C_4  and  C_37
REMARK    5  A    between atoms: C_9  and  C_12
REMARK    6  A    between atoms: C_15  and  C_18
REMARK    7  A    between atoms: C_19  and  C_20
REMARK    8  A    between atoms: N_28  and  C_31
REMARK                            x       y       z     vdW  Elec       q    Type
REMARK                         _______ _______ _______ _____ _____    ______ ____
ROOT
ATOM      1  C   UNL     1       0.742  -0.511   1.242  0.00  0.00    +0.074 C 
ATOM      2  C   UNL     1       0.933  -2.016   1.161  0.00  0.00    +0.088 C 
ATOM      3  C   UNL     1       2.271  -2.037   0.326  0.00  0.00    +0.077 C 
ATOM      4  C   UNL     1       3.100  -1.062   1.055  0.00  0.00    -0.027 C 
ATOM      5  N   UNL     1       2.119   0.066   1.293  0.00  0.00    +0.397 N 
ATOM      6  C   UNL     1       2.313  -3.406  -0.125  0.00  0.00    +0.225 C 
ATOM      7  O   UNL     1       3.294  -4.096  -0.295  0.00  0.00    -0.275 OA
ATOM      8  N   UNL     1       1.000  -3.757  -0.321  0.00  0.00    -0.239 N 
ATOM      9  C   UNL     1       0.115  -2.859   0.233  0.00  0.00    +0.225 C 
ATOM     10  O   UNL     1      -1.074  -2.763   0.016  0.00  0.00    -0.275 OA
ATOM     11  H   UNL     1       2.221   0.772   0.579  0.00  0.00    -0.083 HD
ATOM     12  H   UNL     1       2.287   0.471   2.201  0.00  0.00    -0.083 HD
ENDROOT
BRANCH   4  13
ATOM     13  C   UNL     1       3.602  -1.647   2.350  0.00  0.00    -0.061 A 
ATOM     14  C   UNL     1       2.768  -1.695   3.453  0.00  0.00    +0.002 A 
ATOM     15  C   UNL     1       3.221  -2.230   4.641  0.00  0.00    +0.008 A 
ATOM     16  C   UNL     1       4.525  -2.724   4.729  0.00  0.00    -0.025 A 
ATOM     17  C   UNL     1       5.361  -2.672   3.611  0.00  0.00    +0.008 A 
ATOM     18  C   UNL     1       4.893  -2.140   2.428  0.00  0.00    +0.002 A 
BRANCH  16  19
ATOM     19  C   UNL     1       5.016  -3.296   5.995  0.00  0.00    +0.008 C 
ATOM     20  C   UNL     1       6.269  -3.770   6.076  0.00  0.00    +0.008 C 
BRANCH  20  21
ATOM     21  C   UNL     1       6.761  -4.342   7.342  0.00  0.00    -0.025 A 
ATOM     22  C   UNL     1       5.923  -4.399   8.459  0.00  0.00    +0.008 A 
ATOM     23  C   UNL     1       6.389  -4.936   9.641  0.00  0.00    +0.001 A 
ATOM     24  C   UNL     1       7.684  -5.419   9.722  0.00  0.00    +0.000 A 
ATOM     25  C   UNL     1       8.519  -5.366   8.620  0.00  0.00    +0.001 A 
ATOM     26  C   UNL     1       8.065  -4.837   7.430  0.00  0.00    +0.008 A 
ENDBRANCH  20  21
ENDBRANCH  16  19
ENDBRANCH   4  13
BRANCH   8  27
ATOM     27  C   UNL     1       0.581  -4.965  -1.036  0.00  0.00    +0.084 C 
ATOM     28  C   UNL     1       1.137  -6.199  -0.321  0.00  0.00    +0.023 C 
ATOM     29  C   UNL     1       0.699  -7.461  -1.068  0.00  0.00    +0.002 C 
ATOM     30  C   UNL     1       1.235  -7.417  -2.500  0.00  0.00    +0.000 C 
ATOM     31  C   UNL     1       0.679  -6.184  -3.215  0.00  0.00    +0.002 C 
ATOM     32  C   UNL     1       1.117  -4.922  -2.469  0.00  0.00    +0.023 C 
ENDBRANCH   8  27
BRANCH   1  33
ATOM     33  C   UNL     1      -0.022  -0.147   2.489  0.00  0.00    +0.349 C 
ATOM     34  O   UNL     1      -1.154  -0.567   2.654  0.00  0.00    -0.248 OA
ATOM     35  O   UNL     1       0.493   0.567   3.332  0.00  0.00    -0.248 OA
ENDBRANCH   1  33
BRANCH   1  37
ATOM     36  C   UNL     1      -0.019   1.526   0.010  0.00  0.00    +0.037 C 
ATOM     37  C   UNL     1       0.002  -0.004   0.002  0.00  0.00    +0.112 C 
BRANCH  37  38
ATOM     38  O   UNL     1      -1.339  -0.499   0.012  0.00  0.00    -0.393 OA
ATOM     39  H   UNL     1      -1.853  -0.225   0.784  0.00  0.00    +0.210 HD
ENDBRANCH  37  38
ENDBRANCH   1  37
TORSDOF 7
