REMARK  Name = ZINC45703008
REMARK  6 active torsions:
REMARK  status: ('A' for Active; 'I' for Inactive)
REMARK    1  A    between atoms: C_1  and  C_2
REMARK    2  A    between atoms: N_5  and  C_11
REMARK    3  A    between atoms: C_7  and  C_9
REMARK    4  A    between atoms: C_7  and  C_10
REMARK    5  A    between atoms: C_11  and  C_12
REMARK    6  A    between atoms: C_14  and  C_17
REMARK                            x       y       z     vdW  Elec       q    Type
REMARK                         _______ _______ _______ _____ _____    ______ ____
ROOT
ATOM      1  C   UNL     1      -0.019   1.526   0.010  0.00  0.00    +0.039 C 
ATOM      2  C   UNL     1       0.002  -0.004   0.002  0.00  0.00    +0.130 C 
ATOM      3  C   UNL     1       0.720  -0.499  -1.256  0.00  0.00    +0.116 C 
ATOM      4  N   UNL     1       0.805  -1.966  -1.221  0.00  0.00    -0.291 NA
ATOM      5  C   UNL     1       1.523  -2.417  -0.020  0.00  0.00    +0.119 C 
ATOM      6  C   UNL     1       0.797  -1.904   1.226  0.00  0.00    +0.077 C 
ATOM      7  O   UNL     1       0.695  -0.479   1.159  0.00  0.00    -0.368 OA
ATOM      8  C   UNL     1       1.583  -2.302   2.476  0.00  0.00    +0.042 C 
ATOM      9  C   UNL     1      -0.605  -2.513   1.287  0.00  0.00    +0.042 C 
ENDROOT
BRANCH   4  10
ATOM     10  C   UNL     1       1.439  -2.486  -2.440  0.00  0.00    +0.147 C 
BRANCH  10  11
ATOM     11  C   UNL     1       0.552  -2.207  -3.626  0.00  0.00    +0.093 A 
ATOM     12  N   UNL     1       0.547  -1.157  -4.409  0.00  0.00    -0.246 NA
ATOM     13  C   UNL     1      -0.298  -1.056  -5.416  0.00  0.00    +0.063 A 
ATOM     14  C   UNL     1      -1.160  -2.088  -5.601  0.00  0.00    +0.071 A 
ATOM     15  S   UNL     1      -0.668  -3.171  -4.269  0.00  0.00    -0.079 S 
BRANCH  13  16
ATOM     16  C   UNL     1      -0.307   0.150  -6.319  0.00  0.00    +0.164 C 
ATOM     17 CL   UNL     1       0.817  -0.126  -7.701  0.00  0.00    -0.119 Cl
ENDBRANCH  13  16
ENDBRANCH  10  11
ENDBRANCH   4  10
TORSDOF 3
