REMARK  Name = ZINC67082683
REMARK  5 active torsions:
REMARK  status: ('A' for Active; 'I' for Inactive)
REMARK    1  A    between atoms: C_1  and  C_2
REMARK    2  A    between atoms: C_3  and  C_12
REMARK    3  A    between atoms: C_12  and  C_13
REMARK    4  A    between atoms: C_13  and  N_14
REMARK    5  A    between atoms: C_21  and  C_24
REMARK                            x       y       z     vdW  Elec       q    Type
REMARK                         _______ _______ _______ _____ _____    ______ ____
ROOT
ATOM      1  N   UNL     1       1.418   0.367  -4.406  0.00  0.00    -0.299 N 
ATOM      2  C   UNL     1       2.579   0.605  -5.049  0.00  0.00    +0.302 C 
ATOM      3  O   UNL     1       3.634   0.515  -4.452  0.00  0.00    -0.253 OA
ATOM      4  N   UNL     1       2.569   0.941  -6.354  0.00  0.00    -0.281 N 
ATOM      5  C   UNL     1       3.825   1.087  -7.108  0.00  0.00    +0.137 C 
ATOM      6  C   UNL     1       3.797   2.436  -7.836  0.00  0.00    +0.179 C 
ATOM      7  O   UNL     1       2.588   2.538  -8.592  0.00  0.00    -0.369 OA
ATOM      8  C   UNL     1       1.399   2.516  -7.799  0.00  0.00    +0.166 C 
ATOM      9  C   UNL     1       1.303   1.166  -7.070  0.00  0.00    +0.145 C 
ATOM     10  H   UNL     1       0.573   0.509  -4.862  0.00  0.00    +0.150 HD
ENDROOT
BRANCH   8  11
ATOM     11  C   UNL     1       0.197   2.692  -8.690  0.00  0.00    -0.015 A 
ATOM     12  C   UNL     1       0.148   2.058  -9.917  0.00  0.00    +0.009 A 
ATOM     13  C   UNL     1      -0.954   2.218 -10.736  0.00  0.00    +0.041 A 
ATOM     14  C   UNL     1      -2.010   3.014 -10.328  0.00  0.00    +0.158 A 
ATOM     15  C   UNL     1      -1.962   3.650  -9.097  0.00  0.00    +0.159 A 
ATOM     16  C   UNL     1      -0.859   3.484  -8.277  0.00  0.00    +0.047 A 
ATOM     17  F   UNL     1      -2.991   4.428  -8.696  0.00  0.00    -0.202 F 
ATOM     18  F   UNL     1      -3.087   3.171 -11.128  0.00  0.00    -0.202 F 
ENDBRANCH   8  11
BRANCH   1  19
ATOM     19  C   UNL     1       1.432  -0.103  -3.019  0.00  0.00    +0.110 C 
BRANCH  19  20
ATOM     20  C   UNL     1      -0.006  -0.293  -2.530  0.00  0.00    +0.056 C 
BRANCH  20  23
ATOM     21  C   UNL     1      -0.027   1.494   0.007  0.00  0.00    +0.063 C 
ATOM     22  C   UNL     1      -0.001  -0.012  -0.000  0.00  0.00    +0.017 A 
ATOM     23  C   UNL     1       0.009  -0.777  -1.103  0.00  0.00    -0.018 A 
ATOM     24  C   UNL     1       0.036  -2.172  -0.657  0.00  0.00    +0.003 A 
ATOM     25  C   UNL     1       0.055  -3.402  -1.317  0.00  0.00    +0.010 A 
ATOM     26  C   UNL     1       0.079  -4.561  -0.593  0.00  0.00    +0.001 A 
ATOM     27  C   UNL     1       0.084  -4.525   0.794  0.00  0.00    +0.002 A 
ATOM     28  C   UNL     1       0.065  -3.322   1.466  0.00  0.00    +0.026 A 
ATOM     29  C   UNL     1       0.040  -2.130   0.749  0.00  0.00    +0.047 A 
ATOM     30  N   UNL     1       0.023  -0.803   1.116  0.00  0.00    -0.358 N 
ATOM     31  H   UNL     1       0.025  -0.478   2.030  0.00  0.00    +0.166 HD
ENDBRANCH  20  23
ENDBRANCH  19  20
ENDBRANCH   1  19
TORSDOF 4
