REMARK  Name = ZINC01082741
REMARK  2 active torsions:
REMARK  status: ('A' for Active; 'I' for Inactive)
REMARK    1  A    between atoms: C_4  and  C_7
REMARK    2  A    between atoms: C_12  and  C_22
REMARK                            x       y       z     vdW  Elec       q    Type
REMARK                         _______ _______ _______ _____ _____    ______ ____
ROOT
ATOM      1  C   UNL     1      -2.678   0.468   0.561  0.00  0.00    +0.032 C 
ATOM      2  C   UNL     1      -1.669  -0.439  -0.142  0.00  0.00    +0.059 C 
ATOM      3  C   UNL     1      -0.281   0.172  -0.062  0.00  0.00    +0.017 C 
ATOM      4  C   UNL     1      -0.122   1.507  -0.064  0.00  0.00    +0.036 C 
ATOM      5  C   UNL     1       1.194   2.242   0.003  0.00  0.00    +0.136 C 
ATOM      6  N   UNL     1       2.361   1.407  -0.190  0.00  0.00    -0.331 N 
ATOM      7  C   UNL     1       2.686   0.405   0.724  0.00  0.00    +0.049 A 
ATOM      8  C   UNL     1       3.815   0.492   1.522  0.00  0.00    +0.025 A 
ATOM      9  C   UNL     1       4.036  -0.469   2.493  0.00  0.00    +0.002 A 
ATOM     10  C   UNL     1       3.140  -1.508   2.667  0.00  0.00    +0.002 A 
ATOM     11  C   UNL     1       2.022  -1.609   1.857  0.00  0.00    +0.025 A 
ATOM     12  C   UNL     1       1.809  -0.660   0.873  0.00  0.00    +0.052 A 
ATOM     13  N   UNL     1       0.735  -0.727  -0.006  0.00  0.00    -0.316 N 
ATOM     14  C   UNL     1      -1.252   2.357  -0.119  0.00  0.00    +0.163 C 
ATOM     15  O   UNL     1      -1.079   3.560  -0.144  0.00  0.00    -0.292 OA
ATOM     16  C   UNL     1      -2.654   1.828  -0.147  0.00  0.00    +0.088 C 
ATOM     17  H   UNL     1       2.926   1.546  -0.966  0.00  0.00    +0.147 HD
ATOM     18  H   UNL     1       0.709  -1.472  -0.626  0.00  0.00    +0.152 HD
ENDROOT
BRANCH   5  19
ATOM     19  C   UNL     1       1.302   2.907   1.351  0.00  0.00    -0.023 A 
ATOM     20  C   UNL     1       1.335   2.139   2.500  0.00  0.00    +0.007 A 
ATOM     21  C   UNL     1       1.438   2.749   3.736  0.00  0.00    +0.015 A 
ATOM     22  C   UNL     1       1.497   4.128   3.824  0.00  0.00    +0.018 A 
ATOM     23  C   UNL     1       1.458   4.896   2.675  0.00  0.00    +0.015 A 
ATOM     24  C   UNL     1       1.360   4.286   1.438  0.00  0.00    +0.007 A 
ATOM     25 BR   UNL     1       1.631   4.962   5.516  0.00  0.00    -0.050 Br
ENDBRANCH   5  19
BRANCH   1  29
ATOM     26  C   UNL     1      -6.587  -1.234   0.295  0.00  0.00    +0.000 A 
ATOM     27  C   UNL     1      -6.016  -1.004   1.533  0.00  0.00    +0.000 A 
ATOM     28  C   UNL     1      -4.751  -0.453   1.619  0.00  0.00    +0.004 A 
ATOM     29  C   UNL     1      -4.057  -0.132   0.467  0.00  0.00    -0.044 A 
ATOM     30  C   UNL     1      -4.630  -0.357  -0.770  0.00  0.00    +0.004 A 
ATOM     31  C   UNL     1      -5.894  -0.912  -0.856  0.00  0.00    +0.000 A 
ENDBRANCH   1  29
TORSDOF 2
