REMARK  Name = ZINC64491792
REMARK  6 active torsions:
REMARK  status: ('A' for Active; 'I' for Inactive)
REMARK    1  A    between atoms: C_1  and  C_2
REMARK    2  A    between atoms: C_4  and  C_21
REMARK    3  A    between atoms: N_12  and  C_13
REMARK    4  A    between atoms: C_13  and  C_14
REMARK    5  A    between atoms: N_24  and  S_27
REMARK    6  A    between atoms: S_27  and  C_30
REMARK                            x       y       z     vdW  Elec       q    Type
REMARK                         _______ _______ _______ _____ _____    ______ ____
ROOT
ATOM      1  C   UNL     1      -0.016   1.533   0.000  0.00  0.00    +0.028 C 
ATOM      2  C   UNL     1      -0.001   0.003  -0.003  0.00  0.00    +0.078 C 
ATOM      3  C   UNL     1       0.748  -0.521  -1.239  0.00  0.00    +0.044 C 
ATOM      4  C   UNL     1       1.911  -1.306  -0.675  0.00  0.00    -0.021 A 
ATOM      5  C   UNL     1       2.925  -2.002  -1.304  0.00  0.00    +0.006 A 
ATOM      6  C   UNL     1       3.890  -2.650  -0.556  0.00  0.00    +0.000 A 
ATOM      7  C   UNL     1       3.839  -2.600   0.825  0.00  0.00    +0.002 A 
ATOM      8  C   UNL     1       2.830  -1.906   1.457  0.00  0.00    +0.023 A 
ATOM      9  C   UNL     1       1.851  -1.249   0.709  0.00  0.00    +0.034 A 
ATOM     10  N   UNL     1       0.755  -0.500   1.148  0.00  0.00    -0.322 N 
ENDROOT
BRANCH   3  11
ATOM     11  C   UNL     1      -0.161  -1.430  -2.068  0.00  0.00    +0.001 C 
ATOM     12  C   UNL     1      -1.452  -0.684  -2.413  0.00  0.00    +0.021 C 
ATOM     13  C   UNL     1      -2.374  -1.609  -3.213  0.00  0.00    +0.110 C 
ATOM     14  N   UNL     1      -1.639  -2.114  -4.381  0.00  0.00    -0.175 NA
ATOM     15  C   UNL     1      -0.341  -2.769  -4.170  0.00  0.00    +0.110 C 
ATOM     16  C   UNL     1       0.558  -1.831  -3.358  0.00  0.00    +0.021 C 
BRANCH  14  17
ATOM     17  S   UNL     1      -2.262  -1.949  -5.906  0.00  0.00    +0.080 S 
ATOM     18  O   UNL     1      -1.667  -2.966  -6.700  0.00  0.00    -0.151 OA
ATOM     19  O   UNL     1      -3.670  -1.823  -5.758  0.00  0.00    -0.151 OA
BRANCH  17  20
ATOM     20  C   UNL     1      -1.684  -0.410  -6.542  0.00  0.00    +0.211 A 
ATOM     21  H   UNL     1       0.218   1.562  -8.032  0.00  0.00    +0.166 HD
ATOM     22  C   UNL     1      -0.548  -0.219  -7.239  0.00  0.00    +0.133 A 
ATOM     23  N   UNL     1      -0.485   1.116  -7.536  0.00  0.00    -0.349 N 
ATOM     24  C   UNL     1      -1.586   1.694  -7.009  0.00  0.00    +0.198 A 
ATOM     25  N   UNL     1      -2.301   0.774  -6.420  0.00  0.00    -0.217 NA
ENDBRANCH  17  20
ENDBRANCH  14  17
ENDBRANCH   3  11
BRANCH  10  26
ATOM     26  C   UNL     1       0.412  -0.252   2.550  0.00  0.00    +0.140 C 
BRANCH  26  27
ATOM     27  C   UNL     1      -0.505  -1.342   3.043  0.00  0.00    -0.030 A 
ATOM     28  C   UNL     1      -1.874  -1.201   2.918  0.00  0.00    +0.008 A 
ATOM     29  C   UNL     1      -2.716  -2.200   3.369  0.00  0.00    +0.038 A 
ATOM     30  C   UNL     1      -2.187  -3.342   3.947  0.00  0.00    +0.123 A 
ATOM     31  C   UNL     1      -0.816  -3.482   4.071  0.00  0.00    +0.038 A 
ATOM     32  C   UNL     1       0.025  -2.484   3.615  0.00  0.00    +0.008 A 
ATOM     33  F   UNL     1      -3.009  -4.319   4.389  0.00  0.00    -0.205 F 
ENDBRANCH  26  27
ENDBRANCH  10  26
TORSDOF 5
