REMARK  Name = ZINC13638501
REMARK  3 active torsions:
REMARK  status: ('A' for Active; 'I' for Inactive)
REMARK    1  A    between atoms: C_11  and  S_14
REMARK    2  A    between atoms: S_14  and  C_15
REMARK    3  A    between atoms: C_15  and  C_16
REMARK                            x       y       z     vdW  Elec       q    Type
REMARK                         _______ _______ _______ _____ _____    ______ ____
ROOT
ATOM      1  S   UNL     1       5.980   0.323  -0.056  0.00  0.00    -0.076 S 
ENDROOT
BRANCH   1  12
ATOM      2  C   UNL     1      -0.017   1.376   0.010  0.00  0.00    +0.002 A 
ATOM      3  C   UNL     1       1.169   2.090   0.002  0.00  0.00    +0.002 A 
ATOM      4  C   UNL     1       2.381   1.427  -0.013  0.00  0.00    +0.028 A 
ATOM      5  C   UNL     1       2.410   0.040  -0.021  0.00  0.00    +0.075 A 
ATOM      6  C   UNL     1       1.215  -0.680  -0.013  0.00  0.00    +0.066 A 
ATOM      7  C   UNL     1       0.002  -0.004   0.002  0.00  0.00    +0.028 A 
ATOM      8  N   UNL     1       1.542  -2.032  -0.024  0.00  0.00    -0.322 N 
ATOM      9  H   UNL     1       0.913  -2.770  -0.023  0.00  0.00    +0.169 HD
ATOM     10  C   UNL     1       2.922  -2.140  -0.039  0.00  0.00    +0.235 A 
ATOM     11  N   UNL     1       3.458  -0.883  -0.037  0.00  0.00    -0.255 N 
ATOM     12  C   UNL     1       4.822  -1.005  -0.051  0.00  0.00    +0.198 A 
ATOM     13  N   UNL     1       5.114  -2.283  -0.062  0.00  0.00    -0.120 NA
ATOM     14  N   UNL     1       3.913  -3.003  -0.053  0.00  0.00    -0.110 NA
ENDBRANCH   1  12
BRANCH   1  15
ATOM     15  C   UNL     1       7.595  -0.503  -0.077  0.00  0.00    +0.173 C 
BRANCH  15  16
ATOM     16  C   UNL     1       8.689   0.533  -0.082  0.00  0.00    +0.229 C 
ATOM     17  O   UNL     1       8.408   1.712  -0.073  0.00  0.00    -0.275 OA
ATOM     18  N   UNL     1       9.981   0.148  -0.098  0.00  0.00    -0.264 N 
ATOM     19  C   UNL     1      10.987   1.101  -0.103  0.00  0.00    +0.165 A 
ATOM     20  N   UNL     1      10.882   2.409  -0.088  0.00  0.00    -0.225 NA
ATOM     21  C   UNL     1      11.959   3.224  -0.095  0.00  0.00    +0.080 A 
ATOM     22  C   UNL     1      11.985   4.638  -0.082  0.00  0.00    +0.029 A 
ATOM     23  C   UNL     1      13.175   5.316  -0.093  0.00  0.00    +0.002 A 
ATOM     24  C   UNL     1      14.391   4.648  -0.116  0.00  0.00    +0.001 A 
ATOM     25  C   UNL     1      14.403   3.265  -0.129  0.00  0.00    +0.017 A 
ATOM     26  C   UNL     1      13.216   2.577  -0.119  0.00  0.00    +0.041 A 
ATOM     27  S   UNL     1      12.758   0.860  -0.122  0.00  0.00    -0.052 S 
ATOM     28  H   UNL     1      10.206  -0.795  -0.105  0.00  0.00    +0.157 HD
ENDBRANCH  15  16
ENDBRANCH   1  15
TORSDOF 3
