REMARK  Name = ZINC07924402
REMARK  7 active torsions:
REMARK  status: ('A' for Active; 'I' for Inactive)
REMARK    1  A    between atoms: C_1  and  C_2
REMARK    2  A    between atoms: C_2  and  C_4
REMARK    3  A    between atoms: C_2  and  N_43
REMARK    4  A    between atoms: N_6  and  C_7
REMARK    5  A    between atoms: C_14  and  C_16
REMARK    6  A    between atoms: C_14  and  C_22
REMARK    7  A    between atoms: C_14  and  N_43
REMARK                            x       y       z     vdW  Elec       q    Type
REMARK                         _______ _______ _______ _____ _____    ______ ____
ROOT
ATOM      1  N   UNL     1      -0.026   1.469   0.012  0.00  0.00    +0.394 N 
ATOM      2  H   UNL     1      -0.523   1.799  -0.824  0.00  0.00    -0.083 HD
ATOM      3  H   UNL     1      -0.515   1.799   0.853  0.00  0.00    -0.083 HD
ENDROOT
BRANCH   1   5
ATOM      4  C   UNL     1       1.861   2.079  -1.434  0.00  0.00    -0.004 C 
ATOM      5  C   UNL     1       1.348   2.007   0.006  0.00  0.00    +0.014 C 
BRANCH   5   6
ATOM      6  C   UNL     1       1.341   3.389   0.606  0.00  0.00    +0.203 C 
ATOM      7  O   UNL     1       0.301   3.874   1.001  0.00  0.00    -0.277 OA
ATOM      8  N   UNL     1       2.489   4.087   0.705  0.00  0.00    -0.287 N 
ATOM      9  H   UNL     1       3.330   3.675   0.452  0.00  0.00    +0.155 HD
BRANCH   8  10
ATOM     10  C   UNL     1       2.469   5.406   1.172  0.00  0.00    +0.033 A 
ATOM     11  C   UNL     1       3.356   6.341   0.655  0.00  0.00    +0.024 A 
ATOM     12  C   UNL     1       3.330   7.643   1.114  0.00  0.00    +0.017 A 
ATOM     13  C   UNL     1       2.429   8.014   2.096  0.00  0.00    +0.018 A 
ATOM     14  C   UNL     1       1.548   7.083   2.618  0.00  0.00    +0.017 A 
ATOM     15  C   UNL     1       1.566   5.781   2.158  0.00  0.00    +0.024 A 
ATOM     16 BR   UNL     1       2.401   9.797   2.727  0.00  0.00    -0.050 Br
ENDBRANCH   8  10
ENDBRANCH   5   6
ENDBRANCH   1   5
BRANCH   1  17
ATOM     17  C   UNL     1       0.001  -0.005   0.013  0.00  0.00    -0.002 C 
BRANCH  17  18
ATOM     18  C   UNL     1      -1.277  -0.524   0.619  0.00  0.00    -0.057 A 
ATOM     19  C   UNL     1      -2.478   0.099   0.336  0.00  0.00    +0.002 A 
ATOM     20  C   UNL     1      -3.652  -0.380   0.889  0.00  0.00    +0.000 A 
ATOM     21  C   UNL     1      -3.622  -1.475   1.733  0.00  0.00    +0.000 A 
ATOM     22  C   UNL     1      -2.420  -2.094   2.019  0.00  0.00    +0.000 A 
ATOM     23  C   UNL     1      -1.248  -1.619   1.463  0.00  0.00    +0.002 A 
ENDBRANCH  17  18
BRANCH  17  24
ATOM     24  C   UNL     1       0.125  -0.506  -1.403  0.00  0.00    -0.020 A 
ATOM     25  C   UNL     1       0.861  -1.539  -1.883  0.00  0.00    +0.010 A 
ATOM     26  C   UNL     1       0.817  -1.822  -3.235  0.00  0.00    +0.008 A 
ATOM     27  C   UNL     1       0.048  -1.053  -4.043  0.00  0.00    +0.045 A 
ATOM     28  S   UNL     1      -0.654   0.111  -2.886  0.00  0.00    -0.103 S 
ENDBRANCH  17  24
ENDBRANCH   1  17
TORSDOF 6
