REMARK  Name = ZINC16732071
REMARK  4 active torsions:
REMARK  status: ('A' for Active; 'I' for Inactive)
REMARK    1  A    between atoms: C_4  and  C_7
REMARK    2  A    between atoms: C_7  and  C_8
REMARK    3  A    between atoms: C_18  and  C_19
REMARK    4  A    between atoms: C_20  and  C_21
REMARK                            x       y       z     vdW  Elec       q    Type
REMARK                         _______ _______ _______ _____ _____    ______ ____
ROOT
ATOM      1  C   UNL     1       8.367  -5.736  -0.109  0.00  0.00    +0.132 A 
ATOM      2  C   UNL     1       8.002  -7.157  -0.113  0.00  0.00    +0.296 A 
ATOM      3  O   UNL     1       8.862  -8.024  -0.126  0.00  0.00    -0.264 OA
ATOM      4  N   UNL     1       6.702  -7.479  -0.102  0.00  0.00    -0.181 NA
ATOM      5  C   UNL     1       5.784  -6.544  -0.087  0.00  0.00    +0.201 A 
ATOM      6  N   UNL     1       6.064  -5.203  -0.083  0.00  0.00    -0.170 N 
ATOM      7  N   UNL     1       7.436  -4.834  -0.094  0.00  0.00    -0.161 NA
ATOM      8  C   UNL     1       5.037  -4.338  -0.075  0.00  0.00    +0.287 A 
ATOM      9  O   UNL     1       5.232  -3.136  -0.077  0.00  0.00    -0.265 OA
ATOM     10  C   UNL     1       3.675  -4.878  -0.058  0.00  0.00    +0.082 A 
ATOM     11  C   UNL     1       2.470  -4.214  -0.043  0.00  0.00    +0.020 C 
ATOM     12  S   UNL     1       4.005  -6.633  -0.071  0.00  0.00    -0.044 S 
ENDROOT
BRANCH  11  13
ATOM     13  C   UNL     1       2.442  -2.807  -0.036  0.00  0.00    +0.002 C 
ATOM     14  C   UNL     1       1.255  -2.153  -0.021  0.00  0.00    +0.008 C 
BRANCH  14  15
ATOM     15  C   UNL     1       1.226  -0.683  -0.013  0.00  0.00    -0.025 A 
ATOM     16  C   UNL     1       0.002  -0.004   0.002  0.00  0.00    +0.008 A 
ATOM     17  C   UNL     1      -0.017   1.374   0.010  0.00  0.00    +0.001 A 
ATOM     18  C   UNL     1       1.170   2.087   0.002  0.00  0.00    +0.000 A 
ATOM     19  C   UNL     1       2.385   1.422  -0.013  0.00  0.00    +0.001 A 
ATOM     20  C   UNL     1       2.421   0.044  -0.021  0.00  0.00    +0.008 A 
ENDBRANCH  14  15
ENDBRANCH  11  13
BRANCH   1  21
ATOM     21  C   UNL     1       9.817  -5.327  -0.122  0.00  0.00    +0.098 C 
BRANCH  21  25
ATOM     22  C   UNL     1      11.688  -6.599   3.502  0.00  0.00    +0.000 A 
ATOM     23  C   UNL     1      11.674  -7.434   2.401  0.00  0.00    +0.000 A 
ATOM     24  C   UNL     1      11.069  -7.023   1.228  0.00  0.00    +0.004 A 
ATOM     25  C   UNL     1      10.477  -5.776   1.157  0.00  0.00    -0.041 A 
ATOM     26  C   UNL     1      10.495  -4.938   2.256  0.00  0.00    +0.004 A 
ATOM     27  C   UNL     1      11.096  -5.352   3.430  0.00  0.00    +0.000 A 
ENDBRANCH  21  25
ENDBRANCH   1  21
TORSDOF 4
