REMARK  Name = ZINC66193156
REMARK  9 active torsions:
REMARK  status: ('A' for Active; 'I' for Inactive)
REMARK    1  A    between atoms: C_1  and  C_2
REMARK    2  A    between atoms: C_2  and  C_3
REMARK    3  A    between atoms: C_3  and  N_4
REMARK    4  A    between atoms: C_7  and  N_10
REMARK    5  A    between atoms: N_10  and  C_11
REMARK    6  A    between atoms: N_14  and  C_15
REMARK    7  A    between atoms: C_15  and  C_16
REMARK    8  A    between atoms: C_16  and  C_17
REMARK    9  A    between atoms: C_25  and  C_27
REMARK                            x       y       z     vdW  Elec       q    Type
REMARK                         _______ _______ _______ _____ _____    ______ ____
ROOT
ATOM      1  N   UNL     1      -2.018  -6.065   0.950  0.00  0.00    -0.286 N 
ATOM      2  C   UNL     1      -1.265  -6.668  -0.153  0.00  0.00    +0.134 C 
ATOM      3  C   UNL     1      -2.625  -6.852   1.860  0.00  0.00    +0.302 C 
ATOM      4  O   UNL     1      -3.250  -6.352   2.776  0.00  0.00    -0.253 OA
ATOM      5  N   UNL     1      -2.541  -8.193   1.756  0.00  0.00    -0.299 N 
ATOM      6  H   UNL     1      -2.043  -8.592   1.025  0.00  0.00    +0.150 HD
ENDROOT
BRANCH   1  10
ATOM      7  N   UNL     1      -1.413  -2.002   0.005  0.00  0.00    +0.380 N 
ATOM      8  C   UNL     1      -0.802  -2.489   1.247  0.00  0.00    -0.077 C 
ATOM      9  C   UNL     1      -0.705  -4.016   1.209  0.00  0.00    +0.004 C 
ATOM     10  C   UNL     1      -2.110  -4.607   1.064  0.00  0.00    +0.074 C 
ATOM     11  C   UNL     1      -2.766  -4.036  -0.196  0.00  0.00    +0.004 C 
ATOM     12  C   UNL     1      -2.787  -2.508  -0.105  0.00  0.00    -0.077 C 
ATOM     13  H   UNL     1      -0.873  -2.326  -0.783  0.00  0.00    -0.082 HD
BRANCH   7  14
ATOM     14  C   UNL     1      -1.433  -0.534   0.013  0.00  0.00    -0.079 C 
BRANCH  14  16
ATOM     15  C   UNL     1      -0.019   1.526   0.010  0.00  0.00    +0.002 C 
ATOM     16  C   UNL     1       0.002  -0.004   0.002  0.00  0.00    -0.022 C 
ENDBRANCH  14  16
ENDBRANCH   7  14
ENDBRANCH   1  10
BRANCH   5  17
ATOM     17  C   UNL     1      -3.201  -9.048   2.745  0.00  0.00    +0.110 C 
BRANCH  17  18
ATOM     18  C   UNL     1      -2.951 -10.517   2.398  0.00  0.00    +0.056 C 
BRANCH  18  19
ATOM     19  C   UNL     1      -3.631 -11.396   3.415  0.00  0.00    -0.021 A 
ATOM     20  C   UNL     1      -3.071 -11.925   4.515  0.00  0.00    +0.087 A 
ATOM     21  N   UNL     1      -3.994 -12.668   5.198  0.00  0.00    -0.360 N 
ATOM     22  H   UNL     1      -3.824 -13.146   6.024  0.00  0.00    +0.165 HD
ATOM     23  C   UNL     1      -5.202 -12.634   4.538  0.00  0.00    +0.047 A 
ATOM     24  C   UNL     1      -5.029 -11.831   3.396  0.00  0.00    +0.003 A 
ATOM     25  C   UNL     1      -6.102 -11.612   2.530  0.00  0.00    +0.010 A 
ATOM     26  C   UNL     1      -7.317 -12.176   2.798  0.00  0.00    +0.004 A 
ATOM     27  C   UNL     1      -7.494 -12.966   3.926  0.00  0.00    -0.048 A 
ATOM     28  C   UNL     1      -6.447 -13.203   4.789  0.00  0.00    +0.029 A 
ATOM     29  C   UNL     1      -8.843 -13.578   4.204  0.00  0.00    +0.044 C 
ENDBRANCH  18  19
ENDBRANCH  17  18
ENDBRANCH   5  17
TORSDOF 6
