REMARK  Name = ZINC16678119
REMARK  5 active torsions:
REMARK  status: ('A' for Active; 'I' for Inactive)
REMARK    1  A    between atoms: C_1  and  C_2
REMARK    2  A    between atoms: C_2  and  C_3
REMARK    3  A    between atoms: C_2  and  C_4
REMARK    4  A    between atoms: C_2  and  O_5
REMARK    5  A    between atoms: O_5  and  C_6
REMARK                            x       y       z     vdW  Elec       q    Type
REMARK                         _______ _______ _______ _____ _____    ______ ____
ROOT
ATOM      1  C   UNL     1       3.979   5.067  -0.010  0.00  0.00    +0.403 C 
ATOM      2  O   UNL     1       4.209   5.630  -1.062  0.00  0.00    -0.226 OA
ATOM      3  N   UNL     1       3.447   3.828  -0.011  0.00  0.00    -0.267 N 
ATOM      4  C   UNL     1       3.140   3.148  -1.276  0.00  0.00    +0.112 C 
ATOM      5  C   UNL     1       1.672   2.708  -1.255  0.00  0.00    +0.032 C 
ATOM      6  C   UNL     1       1.409   1.878  -0.001  0.00  0.00    +0.016 C 
ATOM      7  C   UNL     1       1.696   2.695   1.255  0.00  0.00    +0.032 C 
ATOM      8  C   UNL     1       3.164   3.135   1.253  0.00  0.00    +0.112 C 
ATOM      9  C   UNL     1       2.267   0.607  -0.016  0.00  0.00    +0.113 C 
ATOM     10  N   UNL     1       1.307  -0.501  -0.013  0.00  0.00    -0.343 N 
ATOM     11  C   UNL     1       0.002  -0.004   0.002  0.00  0.00    +0.031 A 
ATOM     12  C   UNL     1      -0.017   1.383   0.010  0.00  0.00    -0.019 A 
ATOM     13  C   UNL     1      -1.217   2.066   0.020  0.00  0.00    +0.006 A 
ATOM     14  C   UNL     1      -2.413   1.372   0.032  0.00  0.00    +0.000 A 
ATOM     15  C   UNL     1      -2.405  -0.011   0.025  0.00  0.00    +0.002 A 
ATOM     16  C   UNL     1      -1.209  -0.698   0.010  0.00  0.00    +0.023 A 
ATOM     17  H   UNL     1       1.543  -1.442  -0.019  0.00  0.00    +0.146 HD
ENDROOT
BRANCH   1  18
ATOM     18  O   UNL     1       4.256   5.679   1.157  0.00  0.00    -0.445 OA
BRANCH  18  20
ATOM     19  C   UNL     1       3.859   7.942   0.349  0.00  0.00    +0.055 C 
ATOM     20  C   UNL     1       4.828   7.012   1.082  0.00  0.00    +0.107 C 
ATOM     21  C   UNL     1       5.072   7.542   2.496  0.00  0.00    +0.055 C 
ATOM     22  C   UNL     1       6.154   6.956   0.322  0.00  0.00    +0.055 C 
ENDBRANCH  18  20
ENDBRANCH   1  18
TORSDOF 2
