REMARK  Name = ZINC49563357
REMARK  7 active torsions:
REMARK  status: ('A' for Active; 'I' for Inactive)
REMARK    1  A    between atoms: C_1  and  C_2
REMARK    2  A    between atoms: C_5  and  S_9
REMARK    3  A    between atoms: C_6  and  N_8
REMARK    4  A    between atoms: S_9  and  N_12
REMARK    5  A    between atoms: N_12  and  C_13
REMARK    6  A    between atoms: C_18  and  O_19
REMARK    7  A    between atoms: O_19  and  C_20
REMARK                            x       y       z     vdW  Elec       q    Type
REMARK                         _______ _______ _______ _____ _____    ______ ____
ROOT
ATOM      1  S   UNL     1       0.209  -4.394  -0.269  0.00  0.00    +0.074 S 
ATOM      2  O   UNL     1      -0.850  -4.998   0.462  0.00  0.00    -0.150 OA
ATOM      3  O   UNL     1       0.377  -4.587  -1.666  0.00  0.00    -0.150 OA
ENDROOT
BRANCH   1   8
ATOM      4  C   UNL     1      -0.273   1.561   0.612  0.00  0.00    +0.044 C 
ATOM      5  C   UNL     1      -0.149   0.075   0.390  0.00  0.00    -0.049 A 
ATOM      6  C   UNL     1      -1.065  -0.787   0.964  0.00  0.00    +0.005 A 
ATOM      7  C   UNL     1      -0.956  -2.151   0.762  0.00  0.00    +0.031 A 
ATOM      8  C   UNL     1       0.070  -2.656  -0.013  0.00  0.00    +0.129 A 
ATOM      9  C   UNL     1       0.991  -1.792  -0.592  0.00  0.00    +0.052 A 
ATOM     10  C   UNL     1       0.875  -0.422  -0.392  0.00  0.00    +0.028 A 
BRANCH   9  11
ATOM     11  N   UNL     1       2.029  -2.300  -1.377  0.00  0.00    -0.356 N 
ATOM     12  H   UNL     1       2.067  -3.248  -1.576  0.00  0.00    +0.142 HD
ATOM     13  H   UNL     1       2.712  -1.703  -1.722  0.00  0.00    +0.142 HD
ENDBRANCH   9  11
ENDBRANCH   1   8
BRANCH   1  14
ATOM     14  N   UNL     1       1.619  -4.883   0.449  0.00  0.00    -0.213 N 
ATOM     15  H   UNL     1       2.313  -5.303  -0.082  0.00  0.00    +0.174 HD
BRANCH  14  16
ATOM     16  C   UNL     1       1.808  -4.690   1.823  0.00  0.00    +0.091 A 
ATOM     17  C   UNL     1       0.737  -4.809   2.696  0.00  0.00    +0.043 A 
ATOM     18  C   UNL     1       0.926  -4.618   4.052  0.00  0.00    +0.020 A 
ATOM     19  C   UNL     1       2.183  -4.309   4.541  0.00  0.00    +0.019 A 
ATOM     20  C   UNL     1       3.255  -4.189   3.676  0.00  0.00    +0.048 A 
ATOM     21  C   UNL     1       3.074  -4.384   2.317  0.00  0.00    +0.142 A 
ATOM     22 BR   UNL     1      -0.535  -4.780   5.241  0.00  0.00    -0.050 Br
BRANCH  21  23
ATOM     23  O   UNL     1       4.129  -4.272   1.466  0.00  0.00    -0.493 OA
ATOM     24  C   UNL     1       5.398  -3.956   2.043  0.00  0.00    +0.277 C 
ENDBRANCH  21  23
ENDBRANCH  14  16
ENDBRANCH   1  14
TORSDOF 5
