REMARK  Name = ZINC53127765
REMARK  5 active torsions:
REMARK  status: ('A' for Active; 'I' for Inactive)
REMARK    1  A    between atoms: C_1  and  C_2
REMARK    2  A    between atoms: C_7  and  C_9
REMARK    3  A    between atoms: C_7  and  N_11
REMARK    4  A    between atoms: C_9  and  O_10
REMARK    5  A    between atoms: C_12  and  C_14
REMARK                            x       y       z     vdW  Elec       q    Type
REMARK                         _______ _______ _______ _____ _____    ______ ____
ROOT
ATOM      1  N   UNL     1      -0.357   1.372   2.258  0.00  0.00    -0.309 N 
ATOM      2  C   UNL     1      -0.407   2.268   3.264  0.00  0.00    +0.200 C 
ATOM      3  O   UNL     1      -0.601   1.892   4.401  0.00  0.00    -0.278 OA
ATOM      4  H   UNL     1      -0.205   1.672   1.348  0.00  0.00    +0.149 HD
ENDROOT
BRANCH   2   5
ATOM      5  C   UNL     1      -0.223   3.735   2.976  0.00  0.00    +0.017 C 
ATOM      6  C   UNL     1       1.264   4.035   2.704  0.00  0.00    -0.005 C 
ATOM      7  C   UNL     1       1.677   5.042   3.814  0.00  0.00    -0.026 C 
ATOM      8  C   UNL     1       2.240   4.213   4.971  0.00  0.00    +0.002 C 
ATOM      9  C   UNL     1       2.311   5.044   6.249  0.00  0.00    +0.000 C 
ATOM     10  C   UNL     1       0.891   5.471   6.634  0.00  0.00    -0.002 C 
ATOM     11  C   UNL     1       0.343   6.373   5.528  0.00  0.00    -0.015 C 
ATOM     12  C   UNL     1       0.323   5.672   4.186  0.00  0.00    -0.068 C 
ATOM     13  N   UNL     1      -0.624   4.536   4.158  0.00  0.00    +0.389 N 
ATOM     14  H   UNL     1      -1.571   4.868   4.052  0.00  0.00    -0.084 HD
ATOM     15  H   UNL     1      -0.535   3.987   4.999  0.00  0.00    -0.084 HD
ENDBRANCH   2   5
BRANCH   1  21
ATOM     16  C   UNL     1       2.128   1.169   2.435  0.00  0.00    +0.007 C 
ATOM     17  C   UNL     1       1.946  -0.321   2.728  0.00  0.00    -0.012 C 
ATOM     18  C   UNL     1       1.962  -1.105   1.414  0.00  0.00    +0.003 C 
ATOM     19  C   UNL     1       0.823  -0.619   0.516  0.00  0.00    +0.002 C 
ATOM     20  C   UNL     1      -0.515  -0.839   1.225  0.00  0.00    +0.028 C 
ATOM     21  C   UNL     1      -0.531  -0.055   2.538  0.00  0.00    +0.058 C 
ATOM     22  C   UNL     1       0.608  -0.542   3.437  0.00  0.00    +0.031 C 
BRANCH  21  23
ATOM     23  C   UNL     1      -1.869  -0.276   3.247  0.00  0.00    +0.181 C 
BRANCH  23  24
ATOM     24  O   UNL     1      -2.923   0.287   2.462  0.00  0.00    -0.393 OA
ATOM     25  H   UNL     1      -3.802   0.184   2.852  0.00  0.00    +0.209 HD
ENDBRANCH  23  24
ENDBRANCH  21  23
ENDBRANCH   1  21
TORSDOF 4
