REMARK  Name = ZINC20134607
REMARK  7 active torsions:
REMARK  status: ('A' for Active; 'I' for Inactive)
REMARK    1  A    between atoms: C_1  and  C_2
REMARK    2  A    between atoms: C_2  and  C_3
REMARK    3  A    between atoms: C_3  and  C_4
REMARK    4  A    between atoms: C_4  and  C_5
REMARK    5  A    between atoms: C_8  and  N_11
REMARK    6  A    between atoms: C_15  and  C_22
REMARK    7  A    between atoms: C_16  and  N_21
REMARK                            x       y       z     vdW  Elec       q    Type
REMARK                         _______ _______ _______ _____ _____    ______ ____
ROOT
ATOM      1  N   UNL     1      -2.668   2.915   4.677  0.00  0.00    -0.149 N 
ATOM      2  N   UNL     1      -2.391   4.027   5.266  0.00  0.00    -0.147 NA
ATOM      3  C   UNL     1      -3.184   4.164   6.317  0.00  0.00    +0.115 A 
ATOM      4  C   UNL     1      -3.374   5.120   7.330  0.00  0.00    +0.037 A 
ATOM      5  C   UNL     1      -4.318   4.909   8.283  0.00  0.00    -0.027 A 
ATOM      6  C   UNL     1      -5.114   3.756   8.287  0.00  0.00    +0.044 A 
ATOM      7  C   UNL     1      -4.977   2.790   7.332  0.00  0.00    +0.068 A 
ATOM      8  C   UNL     1      -4.017   2.952   6.318  0.00  0.00    +0.129 A 
ATOM      9  N   UNL     1      -3.609   2.261   5.264  0.00  0.00    -0.146 NA
ATOM     10 BR   UNL     1      -6.070   1.247   7.372  0.00  0.00    -0.046 Br
ATOM     11  C   UNL     1      -4.514   5.941   9.364  0.00  0.00    +0.046 C 
ENDROOT
BRANCH   1  15
ATOM     12  C   UNL     1      -0.718   1.572   1.248  0.00  0.00    -0.047 A 
ATOM     13  C   UNL     1      -0.358   2.780   1.818  0.00  0.00    +0.006 A 
ATOM     14  C   UNL     1      -1.006   3.230   2.951  0.00  0.00    +0.030 A 
ATOM     15  C   UNL     1      -2.013   2.464   3.525  0.00  0.00    +0.086 A 
ATOM     16  C   UNL     1      -2.368   1.249   2.953  0.00  0.00    +0.030 A 
ATOM     17  C   UNL     1      -1.720   0.806   1.817  0.00  0.00    +0.006 A 
BRANCH  12  18
ATOM     18  C   UNL     1      -0.013   1.086   0.008  0.00  0.00    +0.035 C 
BRANCH  18  19
ATOM     19  C   UNL     1      -0.753   1.593  -1.232  0.00  0.00    +0.004 C 
BRANCH  19  21
ATOM     20  C   UNL     1      -0.777   1.606  -3.730  0.00  0.00    +0.004 C 
ATOM     21  C   UNL     1      -0.037   1.099  -2.490  0.00  0.00    -0.003 C 
ENDBRANCH  19  21
ENDBRANCH  18  19
ENDBRANCH  12  18
ENDBRANCH   1  15
BRANCH   6  22
ATOM     22  N   UNL     1      -6.070   3.590   9.293  0.00  0.00    -0.357 N 
ATOM     23  H   UNL     1      -6.702   2.690   9.309  0.00  0.00    +0.142 HD
ATOM     24  H   UNL     1      -6.191   4.360  10.069  0.00  0.00    +0.142 HD
ENDBRANCH   6  22
TORSDOF 5
