REMARK  Name = ZINC12311563
REMARK  4 active torsions:
REMARK  status: ('A' for Active; 'I' for Inactive)
REMARK    1  A    between atoms: C_4  and  N_17
REMARK    2  A    between atoms: C_5  and  C_7
REMARK    3  A    between atoms: C_18  and  C_20
REMARK    4  A    between atoms: C_21  and  C_22
REMARK                            x       y       z     vdW  Elec       q    Type
REMARK                         _______ _______ _______ _____ _____    ______ ____
ROOT
ATOM      1  C   UNL     1      -1.375   7.177   0.136  0.00  0.00    +0.001 A 
ATOM      2  C   UNL     1      -2.740   7.134  -0.094  0.00  0.00    +0.002 A 
ATOM      3  C   UNL     1      -3.394   5.922  -0.193  0.00  0.00    +0.024 A 
ATOM      4  C   UNL     1      -2.684   4.736  -0.066  0.00  0.00    +0.044 A 
ATOM      5  C   UNL     1      -1.303   4.776   0.172  0.00  0.00    +0.038 A 
ATOM      6  C   UNL     1      -0.655   6.008   0.269  0.00  0.00    +0.013 A 
ENDROOT
BRANCH   5   7
ATOM      7  C   UNL     1      -0.537   3.521   0.313  0.00  0.00    +0.141 A 
ATOM      8  N   UNL     1       0.825   3.437   0.422  0.00  0.00    -0.338 N 
ATOM      9  H   UNL     1       1.469   4.202   0.420  0.00  0.00    +0.167 HD
ATOM     10  C   UNL     1       1.144   2.098   0.535  0.00  0.00    +0.066 A 
ATOM     11  C   UNL     1       2.336   1.400   0.672  0.00  0.00    +0.028 A 
ATOM     12  C   UNL     1       2.316   0.024   0.762  0.00  0.00    +0.002 A 
ATOM     13  C   UNL     1       1.113  -0.667   0.717  0.00  0.00    +0.002 A 
ATOM     14  C   UNL     1      -0.070   0.003   0.582  0.00  0.00    +0.030 A 
ATOM     15  C   UNL     1      -0.074   1.398   0.489  0.00  0.00    +0.089 A 
ATOM     16  N   UNL     1      -1.059   2.318   0.348  0.00  0.00    -0.228 NA
ENDBRANCH   5   7
BRANCH   4  17
ATOM     17  N   UNL     1      -3.342   3.512  -0.170  0.00  0.00    -0.281 N 
ATOM     18  C   UNL     1      -4.622   3.398   0.235  0.00  0.00    +0.241 C 
ATOM     19  O   UNL     1      -5.231   4.382   0.613  0.00  0.00    -0.270 OA
ATOM     20  H   UNL     1      -2.878   2.741  -0.533  0.00  0.00    +0.155 HD
BRANCH  18  21
ATOM     21  C   UNL     1      -5.281   2.091   0.220  0.00  0.00    +0.068 C 
ATOM     22  C   UNL     1      -6.563   1.978   0.625  0.00  0.00    +0.013 C 
BRANCH  22  23
ATOM     23  C   UNL     1      -7.225   0.664   0.610  0.00  0.00    -0.025 A 
ATOM     24  C   UNL     1      -6.531  -0.468   0.171  0.00  0.00    +0.009 A 
ATOM     25  C   UNL     1      -7.157  -1.696   0.164  0.00  0.00    +0.020 A 
ATOM     26  C   UNL     1      -8.473  -1.809   0.581  0.00  0.00    +0.041 A 
ATOM     27  C   UNL     1      -9.168  -0.691   1.013  0.00  0.00    +0.020 A 
ATOM     28  C   UNL     1      -8.554   0.542   1.030  0.00  0.00    +0.009 A 
ATOM     29 CL   UNL     1      -9.255  -3.359   0.562  0.00  0.00    -0.084 Cl
ENDBRANCH  22  23
ENDBRANCH  18  21
ENDBRANCH   4  17
TORSDOF 4
