REMARK  Name = ZINC20723667
REMARK  9 active torsions:
REMARK  status: ('A' for Active; 'I' for Inactive)
REMARK    1  A    between atoms: C_1  and  C_2
REMARK    2  A    between atoms: C_2  and  C_3
REMARK    3  A    between atoms: C_3  and  C_5
REMARK    4  A    between atoms: C_3  and  C_6
REMARK    5  A    between atoms: C_6  and  C_8
REMARK    6  A    between atoms: C_6  and  N_12
REMARK    7  A    between atoms: C_8  and  O_10
REMARK    8  A    between atoms: O_10  and  C_11
REMARK    9  A    between atoms: C_24  and  C_26
REMARK                            x       y       z     vdW  Elec       q    Type
REMARK                         _______ _______ _______ _____ _____    ______ ____
ROOT
ATOM      1  N   UNL     1       0.723  -3.749   1.861  0.00  0.00    -0.286 N 
ATOM      2  C   UNL     1       1.429  -2.708   2.343  0.00  0.00    +0.304 C 
ATOM      3  O   UNL     1       1.487  -1.669   1.714  0.00  0.00    -0.253 OA
ATOM      4  N   UNL     1       2.072  -2.817   3.523  0.00  0.00    -0.273 N 
ATOM      5  C   UNL     1       2.752  -1.659   4.122  0.00  0.00    +0.116 C 
ATOM      6  C   UNL     1       2.062  -1.299   5.444  0.00  0.00    +0.076 C 
ATOM      7  C   UNL     1       1.823  -2.564   6.229  0.00  0.00    +0.066 A 
ATOM      8  C   UNL     1       1.841  -3.806   5.699  0.00  0.00    +0.064 A 
ATOM      9  N   UNL     1       1.581  -4.680   6.708  0.00  0.00    -0.346 N 
ATOM     10  H   UNL     1       1.526  -5.646   6.636  0.00  0.00    +0.167 HD
ATOM     11  C   UNL     1       1.414  -3.946   7.833  0.00  0.00    +0.197 A 
ATOM     12  N   UNL     1       1.561  -2.681   7.535  0.00  0.00    -0.240 NA
ATOM     13  C   UNL     1       2.108  -4.101   4.248  0.00  0.00    +0.159 C 
ATOM     14  H   UNL     1       0.737  -4.601   2.325  0.00  0.00    +0.151 HD
ENDROOT
BRANCH  13  15
ATOM     15  C   UNL     1       3.466  -4.737   4.099  0.00  0.00    +0.015 A 
ATOM     16  C   UNL     1       4.120  -5.237   5.209  0.00  0.00    +0.028 A 
ATOM     17  C   UNL     1       5.367  -5.822   5.072  0.00  0.00    +0.041 A 
ATOM     18  C   UNL     1       5.959  -5.906   3.824  0.00  0.00    +0.023 A 
ATOM     19  C   UNL     1       5.306  -5.405   2.714  0.00  0.00    +0.040 A 
ATOM     20  C   UNL     1       4.056  -4.825   2.850  0.00  0.00    +0.129 A 
ATOM     21  F   UNL     1       3.414  -4.342   1.764  0.00  0.00    -0.205 F 
ATOM     22 CL   UNL     1       6.188  -6.449   6.467  0.00  0.00    -0.084 Cl
ENDBRANCH  13  15
BRANCH   1  23
ATOM     23  C   UNL     1      -0.066  -3.595   0.636  0.00  0.00    +0.186 C 
BRANCH  23  24
ATOM     24  C   UNL     1      -0.244  -4.960  -0.031  0.00  0.00    +0.017 C 
ATOM     25  C   UNL     1      -1.001  -5.895   0.915  0.00  0.00    +0.010 C 
BRANCH  24  27
ATOM     26  C   UNL     1       0.951  -6.865  -1.119  0.00  0.00    +0.004 C 
ATOM     27  C   UNL     1       1.129  -5.556  -0.347  0.00  0.00    +0.002 C 
ENDBRANCH  24  27
ENDBRANCH  23  24
BRANCH  23  28
ATOM     28  C   UNL     1      -1.418  -3.023   0.978  0.00  0.00    +0.328 C 
ATOM     29  O   UNL     1      -1.822  -3.068   2.116  0.00  0.00    -0.249 OA
BRANCH  28  30
ATOM     30  O   UNL     1      -2.172  -2.463   0.019  0.00  0.00    -0.467 OA
ATOM     31  C   UNL     1      -3.442  -1.941   0.415  0.00  0.00    +0.280 C 
ENDBRANCH  28  30
ENDBRANCH  23  28
ENDBRANCH   1  23
TORSDOF 6
