REMARK  Name = ZINC33597631
REMARK  9 active torsions:
REMARK  status: ('A' for Active; 'I' for Inactive)
REMARK    1  A    between atoms: C_1  and  O_2
REMARK    2  A    between atoms: O_2  and  C_3
REMARK    3  A    between atoms: C_8  and  C_9
REMARK    4  A    between atoms: N_17  and  C_20
REMARK    5  A    between atoms: C_24  and  N_26
REMARK    6  A    between atoms: C_29  and  C_31
REMARK    7  A    between atoms: C_29  and  C_39
REMARK    8  A    between atoms: C_31  and  C_32
REMARK    9  A    between atoms: C_35  and  O_38
REMARK                            x       y       z     vdW  Elec       q    Type
REMARK                         _______ _______ _______ _____ _____    ______ ____
ROOT
ATOM      1  C   UNL     1       0.018  -2.829  -0.013  0.00  0.00    -0.023 C 
ATOM      2  C   UNL     1       0.588  -2.964   1.396  0.00  0.00    +0.077 C 
ATOM      3  C   UNL     1       1.540  -4.186   1.105  0.00  0.00    +0.086 C 
ATOM      4  C   UNL     1       2.434  -4.145   2.237  0.00  0.00    +0.229 C 
ATOM      5  O   UNL     1       2.954  -5.083   2.802  0.00  0.00    -0.275 OA
ATOM      6  N   UNL     1       2.568  -2.811   2.535  0.00  0.00    -0.210 N 
ATOM      7  C   UNL     1       1.633  -2.020   1.901  0.00  0.00    +0.229 C 
ATOM      8  O   UNL     1       1.650  -0.815   1.770  0.00  0.00    -0.275 OA
ATOM      9  C   UNL     1       0.674  -5.131   0.388  0.00  0.00    +0.052 C 
ATOM     10  N   UNL     1      -0.257  -4.248  -0.410  0.00  0.00    +0.396 N 
ATOM     11  H   UNL     1      -1.213  -4.486  -0.190  0.00  0.00    -0.083 HD
ATOM     12  H   UNL     1      -0.093  -4.365  -1.398  0.00  0.00    -0.083 HD
ENDROOT
BRANCH   1  18
ATOM     13  C   UNL     1      -1.217  -0.658  -0.240  0.00  0.00    +0.122 A 
ATOM     14  C   UNL     1      -2.392   0.080  -0.230  0.00  0.00    +0.046 A 
ATOM     15  C   UNL     1      -3.596  -0.546   0.028  0.00  0.00    +0.004 A 
ATOM     16  C   UNL     1      -3.632  -1.906   0.275  0.00  0.00    +0.000 A 
ATOM     17  C   UNL     1      -2.462  -2.643   0.265  0.00  0.00    +0.005 A 
ATOM     18  C   UNL     1      -1.255  -2.023   0.003  0.00  0.00    -0.019 A 
BRANCH  13  20
ATOM     19  C   UNL     1      -0.066   1.363  -0.734  0.00  0.00    +0.277 C 
ATOM     20  O   UNL     1      -0.030  -0.045  -0.493  0.00  0.00    -0.495 OA
ENDBRANCH  13  20
ENDBRANCH   1  18
BRANCH   6  21
ATOM     21  C   UNL     1       3.544  -2.304   3.404  0.00  0.00    +0.046 A 
ATOM     22  C   UNL     1       4.448  -3.164   4.013  0.00  0.00    +0.024 A 
ATOM     23  C   UNL     1       5.408  -2.662   4.868  0.00  0.00    +0.004 A 
ATOM     24  C   UNL     1       5.471  -1.303   5.119  0.00  0.00    +0.033 A 
ATOM     25  C   UNL     1       4.572  -0.444   4.514  0.00  0.00    +0.128 A 
ATOM     26  C   UNL     1       3.612  -0.940   3.652  0.00  0.00    +0.056 A 
BRANCH  25  27
ATOM     27  N   UNL     1       4.641   1.009   4.785  0.00  0.00    +0.056 N 
ATOM     28  O   UNL     1       5.484   1.445   5.535  0.00  0.00    -0.126 OA
ATOM     29  O   UNL     1       3.856   1.761   4.257  0.00  0.00    -0.126 OA
ENDBRANCH  25  27
ENDBRANCH   6  21
BRANCH   9  30
ATOM     30  C   UNL     1      -0.085  -5.993   1.364  0.00  0.00    +0.347 C 
ATOM     31  O   UNL     1      -1.304  -5.979   1.369  0.00  0.00    -0.248 OA
ATOM     32  O   UNL     1       0.520  -6.704   2.148  0.00  0.00    -0.248 OA
ENDBRANCH   9  30
BRANCH   9  33
ATOM     33  C   UNL     1       1.503  -6.000  -0.560  0.00  0.00    +0.035 C 
BRANCH  33  34
ATOM     34  C   UNL     1       0.584  -6.874  -1.373  0.00  0.00    -0.048 A 
ATOM     35  C   UNL     1       0.226  -8.124  -0.903  0.00  0.00    +0.007 A 
ATOM     36  C   UNL     1      -0.616  -8.928  -1.647  0.00  0.00    +0.045 A 
ATOM     37  C   UNL     1      -1.103  -8.480  -2.866  0.00  0.00    +0.117 A 
ATOM     38  C   UNL     1      -0.744  -7.225  -3.335  0.00  0.00    +0.045 A 
ATOM     39  C   UNL     1       0.095  -6.423  -2.585  0.00  0.00    +0.007 A 
BRANCH  37  40
ATOM     40  O   UNL     1      -1.932  -9.269  -3.599  0.00  0.00    -0.507 OA
ATOM     41  H   UNL     1      -2.870  -9.145  -3.402  0.00  0.00    +0.292 HD
ENDBRANCH  37  40
ENDBRANCH  33  34
ENDBRANCH   9  33
TORSDOF 8
