REMARK  Name = ZINC33750045
REMARK  9 active torsions:
REMARK  status: ('A' for Active; 'I' for Inactive)
REMARK    1  A    between atoms: C_1  and  C_2
REMARK    2  A    between atoms: C_3  and  C_16
REMARK    3  A    between atoms: N_5  and  C_7
REMARK    4  A    between atoms: C_7  and  C_8
REMARK    5  A    between atoms: C_17  and  C_18
REMARK    6  A    between atoms: C_18  and  O_20
REMARK    7  A    between atoms: O_20  and  C_21
REMARK    8  A    between atoms: C_21  and  C_23
REMARK    9  A    between atoms: C_21  and  C_24
REMARK                            x       y       z     vdW  Elec       q    Type
REMARK                         _______ _______ _______ _____ _____    ______ ____
ROOT
ATOM      1  C   UNL     1      -0.005  -0.379  -2.545  0.00  0.00    +0.020 C 
ATOM      2  C   UNL     1       0.895  -0.875  -3.424  0.00  0.00    +0.092 C 
ENDROOT
BRANCH   1   5
ATOM      3  C   UNL     1      -0.018   1.503   0.010  0.00  0.00    +0.068 C 
ATOM      4  C   UNL     1       0.002  -0.004   0.002  0.00  0.00    +0.069 A 
ATOM      5  C   UNL     1       0.008  -0.829  -1.148  0.00  0.00    +0.034 A 
ATOM      6  C   UNL     1       0.029  -2.142  -0.706  0.00  0.00    +0.135 A 
ATOM      7  N   UNL     1       0.035  -2.112   0.638  0.00  0.00    -0.248 N 
ATOM      8  N   UNL     1       0.023  -0.776   1.053  0.00  0.00    -0.174 NA
ATOM      9 CL   UNL     1       0.044  -3.563  -1.703  0.00  0.00    -0.062 Cl
BRANCH   7  10
ATOM     10  C   UNL     1       0.055  -3.281   1.520  0.00  0.00    +0.181 C 
BRANCH  10  11
ATOM     11  C   UNL     1       1.482  -3.663   1.816  0.00  0.00    -0.008 A 
ATOM     12  C   UNL     1       2.111  -4.631   1.055  0.00  0.00    +0.007 A 
ATOM     13  C   UNL     1       3.420  -4.981   1.326  0.00  0.00    +0.000 A 
ATOM     14  C   UNL     1       4.102  -4.364   2.358  0.00  0.00    +0.001 A 
ATOM     15  C   UNL     1       3.475  -3.396   3.119  0.00  0.00    +0.020 A 
ATOM     16  C   UNL     1       2.166  -3.041   2.845  0.00  0.00    +0.046 A 
ATOM     17 CL   UNL     1       1.380  -1.820   3.797  0.00  0.00    -0.083 Cl
ENDBRANCH  10  11
ENDBRANCH   7  10
ENDBRANCH   1   5
BRANCH   2  18
ATOM     18  C   UNL     1       0.881  -0.440  -4.771  0.00  0.00    +0.333 C 
ATOM     19  O   UNL     1       0.060   0.379  -5.138  0.00  0.00    -0.246 OA
BRANCH  18  20
ATOM     20  O   UNL     1       1.780  -0.935  -5.648  0.00  0.00    -0.449 OA
BRANCH  20  21
ATOM     21  C   UNL     1       1.709  -0.453  -6.991  0.00  0.00    +0.259 C 
ATOM     22  C   UNL     1       2.597   0.785  -7.136  0.00  0.00    +0.062 C 
BRANCH  21  23
ATOM     23  C   UNL     1       2.184  -1.526  -7.936  0.00  0.00    +0.261 C 
ATOM     24  O   UNL     1       2.547  -2.598  -7.503  0.00  0.00    -0.271 OA
ATOM     25  N   UNL     1       2.205  -1.293  -9.264  0.00  0.00    -0.237 N 
ATOM     26  C   UNL     1       2.630  -2.253 -10.109  0.00  0.00    +0.303 C 
ATOM     27  O   UNL     1       2.994  -3.328  -9.675  0.00  0.00    -0.253 OA
ATOM     28  N   UNL     1       2.650  -2.021 -11.437  0.00  0.00    -0.313 N 
ATOM     29  H   UNL     1       1.914  -0.436  -9.611  0.00  0.00    +0.159 HD
ATOM     30  H   UNL     1       2.360  -1.163 -11.784  0.00  0.00    +0.146 HD
ATOM     31  H   UNL     1       2.956  -2.712 -12.045  0.00  0.00    +0.146 HD
ENDBRANCH  21  23
ENDBRANCH  20  21
ENDBRANCH  18  20
ENDBRANCH   2  18
TORSDOF 7
