REMARK  Name = ZINC58846594
REMARK  7 active torsions:
REMARK  status: ('A' for Active; 'I' for Inactive)
REMARK    1  A    between atoms: C_1  and  C_2
REMARK    2  A    between atoms: C_5  and  N_9
REMARK    3  A    between atoms: C_7  and  C_8
REMARK    4  A    between atoms: N_9  and  S_10
REMARK    5  A    between atoms: S_10  and  C_13
REMARK    6  A    between atoms: C_26  and  C_29
REMARK    7  A    between atoms: C_34  and  C_35
REMARK                            x       y       z     vdW  Elec       q    Type
REMARK                         _______ _______ _______ _____ _____    ______ ____
ROOT
ATOM      1  C   UNL     1       2.986  -3.976  -0.967  0.00  0.00    +0.109 A 
ATOM      2  C   UNL     1       3.780  -2.919  -1.374  0.00  0.00    +0.030 A 
ATOM      3  C   UNL     1       5.052  -2.779  -0.857  0.00  0.00    +0.025 A 
ATOM      4  C   UNL     1       5.533  -3.696   0.071  0.00  0.00    +0.031 A 
ATOM      5  C   UNL     1       4.734  -4.749   0.490  0.00  0.00    -0.018 A 
ATOM      6  C   UNL     1       3.458  -4.881  -0.038  0.00  0.00    +0.034 A 
ATOM      7  C   UNL     1       5.200  -5.729   1.513  0.00  0.00    +0.049 C 
ATOM      8  C   UNL     1       5.594  -7.047   0.898  0.00  0.00    -0.023 C 
ATOM      9  C   UNL     1       6.619  -7.556   1.535  0.00  0.00    -0.030 C 
ATOM     10  C   UNL     1       7.060  -6.647   2.661  0.00  0.00    +0.033 C 
ATOM     11  C   UNL     1       6.427  -5.282   2.305  0.00  0.00    +0.029 C 
ATOM     12  C   UNL     1       7.430  -4.496   1.486  0.00  0.00    +0.106 C 
ATOM     13  N   UNL     1       6.823  -3.553   0.569  0.00  0.00    -0.336 N 
ATOM     14  H   UNL     1       7.351  -2.797   0.269  0.00  0.00    +0.147 HD
ENDROOT
BRANCH  12  15
ATOM     15  C   UNL     1       8.289  -5.468   0.719  0.00  0.00    -0.013 A 
ATOM     16  C   UNL     1       7.890  -5.911  -0.525  0.00  0.00    +0.006 A 
ATOM     17  C   UNL     1       8.677  -6.803  -1.231  0.00  0.00    +0.000 A 
ATOM     18  C   UNL     1       9.869  -7.258  -0.695  0.00  0.00    +0.001 A 
ATOM     19  C   UNL     1      10.280  -6.825   0.548  0.00  0.00    +0.015 A 
ATOM     20  C   UNL     1       9.493  -5.919   1.264  0.00  0.00    +0.068 A 
BRANCH  20  21
ATOM     21  C   UNL     1       9.930  -5.445   2.591  0.00  0.00    +0.387 C 
ATOM     22  O   UNL     1      11.040  -5.740   3.011  0.00  0.00    -0.241 OA
ATOM     23  O   UNL     1       9.182  -4.757   3.271  0.00  0.00    -0.241 OA
ENDBRANCH  20  21
ENDBRANCH  12  15
BRANCH   1  24
ATOM     24  S   UNL     1       1.364  -4.163  -1.631  0.00  0.00    +0.072 S 
ATOM     25  O   UNL     1       1.025  -5.536  -1.493  0.00  0.00    -0.150 OA
ATOM     26  O   UNL     1       1.361  -3.499  -2.887  0.00  0.00    -0.150 OA
BRANCH  24  27
ATOM     27  N   UNL     1       0.332  -3.320  -0.647  0.00  0.00    -0.216 N 
ATOM     28  H   UNL     1      -0.346  -3.791  -0.138  0.00  0.00    +0.174 HD
BRANCH  27  33
ATOM     29  C   UNL     1       0.763   2.321  -0.255  0.00  0.00    +0.044 C 
ATOM     30  C   UNL     1       0.649   0.822  -0.359  0.00  0.00    -0.047 A 
ATOM     31  C   UNL     1       0.700   0.210  -1.599  0.00  0.00    +0.005 A 
ATOM     32  C   UNL     1       0.596  -1.163  -1.698  0.00  0.00    +0.025 A 
ATOM     33  C   UNL     1       0.439  -1.931  -0.551  0.00  0.00    +0.048 A 
ATOM     34  C   UNL     1       0.388  -1.313   0.693  0.00  0.00    +0.028 A 
ATOM     35  C   UNL     1       0.498   0.060   0.785  0.00  0.00    -0.046 A 
ATOM     36  C   UNL     1       0.449   0.730   2.134  0.00  0.00    +0.044 C 
ENDBRANCH  27  33
ENDBRANCH  24  27
ENDBRANCH   1  24
TORSDOF 5
