REMARK  Name = ZINC21235273
REMARK  5 active torsions:
REMARK  status: ('A' for Active; 'I' for Inactive)
REMARK    1  A    between atoms: C_1  and  C_2
REMARK    2  A    between atoms: C_2  and  C_3
REMARK    3  A    between atoms: C_6  and  C_9
REMARK    4  A    between atoms: C_14  and  C_20
REMARK    5  A    between atoms: C_24  and  O_26
REMARK                            x       y       z     vdW  Elec       q    Type
REMARK                         _______ _______ _______ _____ _____    ______ ____
ROOT
ATOM      1  C   UNL     1       1.919   6.128  -3.695  0.00  0.00    +0.032 C 
ATOM      2  C   UNL     1       2.686   6.539  -2.436  0.00  0.00    +0.059 C 
ATOM      3  C   UNL     1       1.971   6.017  -1.214  0.00  0.00    +0.018 C 
ATOM      4  C   UNL     1       0.630   5.868  -1.209  0.00  0.00    +0.020 C 
ATOM      5  C   UNL     1      -0.065   5.351   0.029  0.00  0.00    +0.063 C 
ATOM      6  C   UNL     1       0.664   5.863   1.272  0.00  0.00    +0.109 C 
ATOM      7  C   UNL     1       2.143   5.621   1.112  0.00  0.00    +0.218 C 
ATOM      8  O   UNL     1       2.821   5.358   2.081  0.00  0.00    -0.275 OA
ATOM      9  N   UNL     1       2.711   5.697  -0.104  0.00  0.00    -0.289 N 
ATOM     10  C   UNL     1      -0.146   6.182  -2.337  0.00  0.00    +0.162 C 
ATOM     11  O   UNL     1      -1.353   6.046  -2.290  0.00  0.00    -0.292 OA
ATOM     12  C   UNL     1       0.494   6.685  -3.603  0.00  0.00    +0.088 C 
ATOM     13  H   UNL     1       3.788   5.497  -0.201  0.00  0.00    +0.155 HD
ENDROOT
BRANCH   1  17
ATOM     14  C   UNL     1       3.864   7.726  -7.146  0.00  0.00    -0.048 A 
ATOM     15  C   UNL     1       3.694   6.361  -7.018  0.00  0.00    +0.004 A 
ATOM     16  C   UNL     1       3.065   5.843  -5.902  0.00  0.00    +0.004 A 
ATOM     17  C   UNL     1       2.605   6.692  -4.912  0.00  0.00    -0.043 A 
ATOM     18  C   UNL     1       2.769   8.058  -5.042  0.00  0.00    +0.004 A 
ATOM     19  C   UNL     1       3.403   8.575  -6.156  0.00  0.00    +0.004 A 
BRANCH  14  21
ATOM     20  C   UNL     1       3.508   8.576  -9.448  0.00  0.00    +0.009 C 
ATOM     21  C   UNL     1       4.549   8.291  -8.364  0.00  0.00    +0.032 C 
ENDBRANCH  14  21
ENDBRANCH   1  17
BRANCH   5  22
ATOM     22  C   UNL     1      -0.049   3.844   0.022  0.00  0.00    -0.036 A 
ATOM     23  C   UNL     1       1.156   3.166   0.007  0.00  0.00    +0.004 A 
ATOM     24  C   UNL     1       1.174   1.783   0.000  0.00  0.00    +0.004 A 
ATOM     25  C   UNL     1      -0.013   1.076   0.008  0.00  0.00    +0.045 A 
ATOM     26  C   UNL     1      -1.223   1.754   0.017  0.00  0.00    +0.117 A 
ATOM     27  C   UNL     1      -1.238   3.141   0.029  0.00  0.00    +0.049 A 
BRANCH  26  28
ATOM     28  O   UNL     1      -2.391   1.060   0.019  0.00  0.00    -0.507 OA
ATOM     29  H   UNL     1      -3.351   1.598   0.027  0.00  0.00    +0.292 HD
ENDBRANCH  26  28
ENDBRANCH   5  22
TORSDOF 4
