REMARK  Name = ZINC25048977
REMARK  6 active torsions:
REMARK  status: ('A' for Active; 'I' for Inactive)
REMARK    1  A    between atoms: C_1  and  C_2
REMARK    2  A    between atoms: C_15  and  C_17
REMARK    3  A    between atoms: C_17  and  N_18
REMARK    4  A    between atoms: N_18  and  C_19
REMARK    5  A    between atoms: C_19  and  C_21
REMARK    6  A    between atoms: C_19  and  C_28
REMARK                            x       y       z     vdW  Elec       q    Type
REMARK                         _______ _______ _______ _____ _____    ______ ____
ROOT
ATOM      1  C   UNL     1       0.715   5.271   2.320  0.00  0.00    +0.017 C 
ENDROOT
BRANCH   1  15
ATOM      2  C   UNL     1       0.663   5.879  -2.271  0.00  0.00    +0.029 C 
ATOM      3  C   UNL     1      -0.487   5.909  -1.262  0.00  0.00    +0.087 C 
ATOM      4  C   UNL     1      -1.699   5.187  -1.853  0.00  0.00    +0.118 C 
ATOM      5  C   UNL     1      -2.686   4.856  -0.765  0.00  0.00    +0.219 C 
ATOM      6  O   UNL     1      -3.702   5.509  -0.654  0.00  0.00    -0.275 OA
ATOM      7  N   UNL     1      -2.447   3.836   0.088  0.00  0.00    -0.284 N 
ATOM      8  C   UNL     1      -1.238   3.133   0.034  0.00  0.00    +0.055 A 
ATOM      9  C   UNL     1      -1.221   1.748   0.017  0.00  0.00    +0.025 A 
ATOM     10  C   UNL     1      -0.013   1.076   0.008  0.00  0.00    +0.002 A 
ATOM     11  C   UNL     1       1.177   1.781   0.000  0.00  0.00    +0.002 A 
ATOM     12  C   UNL     1       1.168   3.164  -0.002  0.00  0.00    +0.025 A 
ATOM     13  C   UNL     1      -0.038   3.845   0.010  0.00  0.00    +0.058 A 
ATOM     14  N   UNL     1      -0.067   5.246  -0.026  0.00  0.00    -0.268 N 
ATOM     15  C   UNL     1       0.284   5.968   1.056  0.00  0.00    +0.203 C 
ATOM     16  O   UNL     1       0.255   7.180   1.012  0.00  0.00    -0.277 OA
ATOM     17  H   UNL     1      -3.206   3.553   0.832  0.00  0.00    +0.155 HD
ENDBRANCH   1  15
BRANCH   1  18
ATOM     18  N   UNL     1       1.044   6.271   3.344  0.00  0.00    +0.392 N 
ATOM     19  H   UNL     1       1.862   6.911   2.982  0.00  0.00    -0.084 HD
ATOM     20  H   UNL     1       0.158   6.890   3.550  0.00  0.00    -0.084 HD
BRANCH  18  21
ATOM     21  C   UNL     1       1.468   5.626   4.594  0.00  0.00    -0.003 C 
BRANCH  21  22
ATOM     22  C   UNL     1       2.349   6.569   5.372  0.00  0.00    -0.056 A 
ATOM     23  C   UNL     1       2.045   7.917   5.421  0.00  0.00    +0.005 A 
ATOM     24  C   UNL     1       2.849   8.782   6.139  0.00  0.00    +0.038 A 
ATOM     25  C   UNL     1       3.965   8.300   6.801  0.00  0.00    +0.123 A 
ATOM     26  C   UNL     1       4.272   6.951   6.746  0.00  0.00    +0.038 A 
ATOM     27  C   UNL     1       3.464   6.087   6.032  0.00  0.00    +0.005 A 
ATOM     28  F   UNL     1       4.755   9.145   7.498  0.00  0.00    -0.205 F 
ENDBRANCH  21  22
BRANCH  21  29
ATOM     29  C   UNL     1       0.254   5.278   5.417  0.00  0.00    -0.020 A 
ATOM     30  C   UNL     1       0.010   4.164   6.149  0.00  0.00    +0.010 A 
ATOM     31  C   UNL     1      -1.186   4.061   6.834  0.00  0.00    +0.008 A 
ATOM     32  C   UNL     1      -2.083   5.072   6.746  0.00  0.00    +0.045 A 
ATOM     33  S   UNL     1      -1.238   6.223   5.674  0.00  0.00    -0.103 S 
ENDBRANCH  21  29
ENDBRANCH  18  21
ENDBRANCH   1  18
TORSDOF 5
