REMARK  Name = ZINC63384321
REMARK  8 active torsions:
REMARK  status: ('A' for Active; 'I' for Inactive)
REMARK    1  A    between atoms: C_1  and  C_2
REMARK    2  A    between atoms: C_2  and  C_3
REMARK    3  A    between atoms: C_2  and  C_4
REMARK    4  A    between atoms: C_4  and  C_6
REMARK    5  A    between atoms: C_4  and  N_16
REMARK    6  A    between atoms: N_8  and  C_9
REMARK    7  A    between atoms: C_9  and  C_10
REMARK    8  A    between atoms: C_17  and  C_19
REMARK                            x       y       z     vdW  Elec       q    Type
REMARK                         _______ _______ _______ _____ _____    ______ ____
ROOT
ATOM      1  C   UNL     1      -0.290  -3.847   1.535  0.00  0.00    +0.167 C 
ATOM      2  C   UNL     1      -1.354  -4.834   1.016  0.00  0.00    +0.065 C 
ATOM      3  C   UNL     1      -1.721  -5.734   2.170  0.00  0.00    -0.034 C 
ATOM      4  C   UNL     1      -2.910  -6.052   2.672  0.00  0.00    -0.001 A 
ATOM      5  C   UNL     1      -4.276  -5.727   2.231  0.00  0.00    +0.010 A 
ATOM      6  C   UNL     1      -5.286  -6.211   3.002  0.00  0.00    +0.001 A 
ATOM      7  C   UNL     1      -5.076  -6.975   4.154  0.00  0.00    +0.002 A 
ATOM      8  C   UNL     1      -3.854  -7.327   4.629  0.00  0.00    +0.026 A 
ATOM      9  C   UNL     1      -2.714  -6.884   3.898  0.00  0.00    +0.043 A 
ATOM     10  N   UNL     1      -1.448  -7.089   4.109  0.00  0.00    -0.375 N 
ATOM     11  C   UNL     1      -0.692  -6.465   3.021  0.00  0.00    +0.131 C 
ATOM     12  C   UNL     1       0.297  -5.421   3.535  0.00  0.00    +0.134 C 
ATOM     13  N   UNL     1      -0.079  -4.113   2.964  0.00  0.00    -0.276 N 
ATOM     14  C   UNL     1      -0.211  -3.228   3.970  0.00  0.00    +0.248 C 
ATOM     15  O   UNL     1      -0.400  -2.035   3.828  0.00  0.00    -0.270 OA
ATOM     16  C   UNL     1      -0.094  -3.912   5.259  0.00  0.00    +0.042 A 
ATOM     17  C   UNL     1       0.221  -5.275   5.019  0.00  0.00    -0.013 A 
ATOM     18  C   UNL     1       0.393  -6.180   6.043  0.00  0.00    +0.006 A 
ATOM     19  C   UNL     1       0.253  -5.699   7.342  0.00  0.00    +0.000 A 
ATOM     20  C   UNL     1      -0.043  -4.376   7.600  0.00  0.00    +0.001 A 
ATOM     21  C   UNL     1      -0.231  -3.431   6.564  0.00  0.00    +0.013 A 
ATOM     22  H   UNL     1      -1.068  -7.572   4.859  0.00  0.00    +0.160 HD
ENDROOT
BRANCH   1  24
ATOM     23  N   UNL     1      -1.846  -1.989   2.031  0.00  0.00    -0.302 N 
ATOM     24  C   UNL     1      -0.773  -2.432   1.346  0.00  0.00    +0.235 C 
ATOM     25  O   UNL     1      -0.197  -1.692   0.577  0.00  0.00    -0.274 OA
ATOM     26  H   UNL     1      -2.307  -2.581   2.646  0.00  0.00    +0.150 HD
BRANCH  23  27
ATOM     27  C   UNL     1      -2.315  -0.614   1.847  0.00  0.00    +0.161 C 
BRANCH  27  28
ATOM     28  C   UNL     1      -3.062  -0.169   3.079  0.00  0.00    +0.234 C 
ATOM     29  O   UNL     1      -3.470  -0.992   3.871  0.00  0.00    -0.274 OA
ATOM     30  N   UNL     1      -3.277   1.143   3.299  0.00  0.00    -0.310 N 
ATOM     31  H   UNL     1      -2.887   1.805   2.707  0.00  0.00    +0.149 HD
BRANCH  30  32
ATOM     32  C   UNL     1      -4.099   1.570   4.434  0.00  0.00    +0.139 C 
BRANCH  32  33
ATOM     33  C   UNL     1      -4.182   3.074   4.457  0.00  0.00    -0.030 A 
ATOM     34  C   UNL     1      -3.241   3.808   5.154  0.00  0.00    +0.005 A 
ATOM     35  C   UNL     1      -3.317   5.188   5.174  0.00  0.00    +0.000 A 
ATOM     36  C   UNL     1      -4.334   5.835   4.497  0.00  0.00    +0.000 A 
ATOM     37  C   UNL     1      -5.275   5.101   3.800  0.00  0.00    +0.000 A 
ATOM     38  C   UNL     1      -5.196   3.721   3.775  0.00  0.00    +0.005 A 
ENDBRANCH  32  33
ENDBRANCH  30  32
ENDBRANCH  27  28
BRANCH  27  40
ATOM     39  C   UNL     1      -2.465  -0.913  -0.629  0.00  0.00    +0.009 C 
ATOM     40  C   UNL     1      -3.247  -0.550   0.635  0.00  0.00    +0.012 C 
ATOM     41  C   UNL     1      -4.398  -1.540   0.824  0.00  0.00    +0.009 C 
ENDBRANCH  27  40
ENDBRANCH  23  27
ENDBRANCH   1  24
TORSDOF 6
