REMARK  Name = ZINC31973570
REMARK  8 active torsions:
REMARK  status: ('A' for Active; 'I' for Inactive)
REMARK    1  A    between atoms: C_1  and  C_2
REMARK    2  A    between atoms: C_4  and  C_9
REMARK    3  A    between atoms: C_10  and  C_21
REMARK    4  A    between atoms: C_12  and  C_17
REMARK    5  A    between atoms: C_17  and  C_18
REMARK    6  A    between atoms: C_17  and  C_19
REMARK    7  A    between atoms: C_17  and  C_20
REMARK    8  A    between atoms: C_21  and  N_22
REMARK                            x       y       z     vdW  Elec       q    Type
REMARK                         _______ _______ _______ _____ _____    ______ ____
ROOT
ATOM      1  C   UNL     1      -1.167   0.562  -0.066  0.00  0.00    +0.092 A 
ATOM      2  C   UNL     1      -2.247   0.503   0.750  0.00  0.00    +0.034 A 
ATOM      3  N   UNL     1      -2.811  -0.760   0.610  0.00  0.00    -0.295 N 
ATOM      4  C   UNL     1      -3.878  -1.469   1.117  0.00  0.00    +0.038 A 
ATOM      5  C   UNL     1      -4.114  -2.721   0.726  0.00  0.00    +0.071 A 
ATOM      6  S   UNL     1      -2.788  -3.000  -0.437  0.00  0.00    -0.057 S 
ATOM      7  C   UNL     1      -2.018  -1.404  -0.305  0.00  0.00    +0.178 A 
ATOM      8  N   UNL     1      -1.058  -0.622  -0.703  0.00  0.00    -0.221 NA
ENDROOT
BRANCH   1  12
ATOM      9  C   UNL     1       3.443   2.436  -0.472  0.00  0.00    +0.045 C 
ATOM     10  C   UNL     1       1.950   2.633  -0.429  0.00  0.00    -0.032 A 
ATOM     11  C   UNL     1       1.115   1.545  -0.273  0.00  0.00    +0.015 A 
ATOM     12  C   UNL     1      -0.265   1.729  -0.234  0.00  0.00    +0.002 A 
ATOM     13  C   UNL     1      -0.797   3.012  -0.353  0.00  0.00    +0.011 A 
ATOM     14  C   UNL     1       0.046   4.093  -0.510  0.00  0.00    +0.021 A 
ATOM     15  C   UNL     1       1.417   3.905  -0.547  0.00  0.00    +0.044 A 
ATOM     16 CL   UNL     1       2.472   5.270  -0.744  0.00  0.00    -0.083 Cl
ENDBRANCH   1  12
BRANCH   4  17
ATOM     17  C   UNL     1      -4.790  -0.821   2.127  0.00  0.00    +0.003 C 
ATOM     18  C   UNL     1      -5.848  -1.829   2.580  0.00  0.00    +0.017 C 
ATOM     19  C   UNL     1      -3.969  -0.364   3.335  0.00  0.00    +0.017 C 
ATOM     20  C   UNL     1      -5.477   0.389   1.491  0.00  0.00    +0.017 C 
ENDBRANCH   4  17
BRANCH   2  21
ATOM     21  C   UNL     1      -2.747   1.606   1.647  0.00  0.00    -0.029 C 
BRANCH  21  22
ATOM     22  N   UNL     1      -1.775   1.840   2.723  0.00  0.00    +0.382 N 
ATOM     23  H   UNL     1      -2.140   2.645   3.378  0.00  0.00    -0.090 HD
ATOM     24  H   UNL     1      -0.808   2.132   2.287  0.00  0.00    -0.090 HD
ATOM     25  H   UNL     1      -1.649   0.918   3.311  0.00  0.00    -0.090 HD
ENDBRANCH  21  22
ENDBRANCH   2  21
TORSDOF 4
