REMARK  Name = ZINC59960158
REMARK  9 active torsions:
REMARK  status: ('A' for Active; 'I' for Inactive)
REMARK    1  A    between atoms: C_1  and  C_2
REMARK    2  A    between atoms: C_7  and  N_8
REMARK    3  A    between atoms: C_9  and  C_11
REMARK    4  A    between atoms: N_13  and  N_14
REMARK    5  A    between atoms: C_15  and  C_16
REMARK    6  A    between atoms: C_19  and  O_22
REMARK    7  A    between atoms: O_22  and  C_23
REMARK    8  A    between atoms: C_23  and  C_24
REMARK    9  A    between atoms: N_26  and  C_27
REMARK                            x       y       z     vdW  Elec       q    Type
REMARK                         _______ _______ _______ _____ _____    ______ ____
ROOT
ATOM      1  N   UNL     1      -0.353   0.059   7.240  0.00  0.00    -0.187 NA
ATOM      2  C   UNL     1      -0.432  -0.596   8.360  0.00  0.00    +0.138 C 
ENDROOT
BRANCH   2   3
ATOM      3  C   UNL     1      -0.541   0.134   9.635  0.00  0.00    -0.005 A 
ATOM      4  C   UNL     1      -0.566   1.532   9.642  0.00  0.00    +0.013 A 
ATOM      5  C   UNL     1      -0.669   2.211  10.837  0.00  0.00    +0.046 A 
ATOM      6  C   UNL     1      -0.746   1.508  12.033  0.00  0.00    +0.121 A 
ATOM      7  C   UNL     1      -0.722   0.119  12.030  0.00  0.00    +0.046 A 
ATOM      8  C   UNL     1      -0.626  -0.568  10.840  0.00  0.00    +0.013 A 
BRANCH   6   9
ATOM      9  O   UNL     1      -0.846   2.181  13.208  0.00  0.00    -0.483 OA
BRANCH   9  10
ATOM     10  C   UNL     1      -0.922   1.397  14.400  0.00  0.00    +0.324 C 
BRANCH  10  11
ATOM     11  C   UNL     1      -1.028   2.309  15.595  0.00  0.00    +0.251 C 
ATOM     12  O   UNL     1      -1.037   3.512  15.441  0.00  0.00    -0.272 OA
ATOM     13  N   UNL     1      -1.112   1.788  16.836  0.00  0.00    -0.310 N 
ATOM     14  H   UNL     1      -1.104   0.826  16.959  0.00  0.00    +0.149 HD
BRANCH  13  15
ATOM     15  C   UNL     1      -1.214   2.675  17.997  0.00  0.00    +0.073 C 
ATOM     16  C   UNL     1      -2.679   3.059  18.218  0.00  0.00    +0.022 C 
ATOM     17  C   UNL     1      -2.786   3.985  19.431  0.00  0.00    +0.002 C 
ATOM     18  C   UNL     1      -2.255   3.264  20.672  0.00  0.00    +0.000 C 
ATOM     19  C   UNL     1      -0.790   2.880  20.451  0.00  0.00    +0.002 C 
ATOM     20  C   UNL     1      -0.683   1.954  19.238  0.00  0.00    +0.022 C 
ENDBRANCH  13  15
ENDBRANCH  10  11
ENDBRANCH   9  10
ENDBRANCH   6   9
ENDBRANCH   2   3
BRANCH   1  23
ATOM     21  C   UNL     1      -0.168   0.044   4.867  0.00  0.00    +0.318 C 
ATOM     22  O   UNL     1      -0.184   1.258   4.872  0.00  0.00    -0.263 OA
ATOM     23  N   UNL     1      -0.249  -0.635   6.028  0.00  0.00    -0.199 N 
ATOM     24  H   UNL     1      -0.236  -1.605   6.024  0.00  0.00    +0.178 HD
BRANCH  21  26
ATOM     25  N   UNL     1       0.025  -0.015   2.416  0.00  0.00    -0.277 N 
ATOM     26  C   UNL     1      -0.057  -0.695   3.577  0.00  0.00    +0.305 C 
ATOM     27  O   UNL     1      -0.040  -1.909   3.572  0.00  0.00    -0.265 OA
ATOM     28  H   UNL     1       0.077   0.953   2.424  0.00  0.00    +0.155 HD
BRANCH  25  35
ATOM     29  C   UNL     1      -1.266   1.183   0.181  0.00  0.00    +0.046 C 
ATOM     30  C   UNL     1      -0.585  -0.158   0.084  0.00  0.00    -0.028 A 
ATOM     31  C   UNL     1      -0.570  -0.841  -1.116  0.00  0.00    +0.025 A 
ATOM     32  C   UNL     1       0.055  -2.072  -1.206  0.00  0.00    +0.041 A 
ATOM     33  C   UNL     1       0.668  -2.623  -0.094  0.00  0.00    +0.022 A 
ATOM     34  C   UNL     1       0.656  -1.945   1.109  0.00  0.00    +0.025 A 
ATOM     35  C   UNL     1       0.033  -0.706   1.201  0.00  0.00    +0.037 A 
ATOM     36 CL   UNL     1       0.071  -2.927  -2.717  0.00  0.00    -0.084 Cl
ENDBRANCH  25  35
ENDBRANCH  21  26
ENDBRANCH   1  23
TORSDOF 8
