REMARK  Name = ZINC42477255
REMARK  7 active torsions:
REMARK  status: ('A' for Active; 'I' for Inactive)
REMARK    1  A    between atoms: C_1  and  C_2
REMARK    2  A    between atoms: C_7  and  N_10
REMARK    3  A    between atoms: N_10  and  C_11
REMARK    4  A    between atoms: C_11  and  C_12
REMARK    5  A    between atoms: C_12  and  C_13
REMARK    6  A    between atoms: C_16  and  S_19
REMARK    7  A    between atoms: S_19  and  N_22
REMARK                            x       y       z     vdW  Elec       q    Type
REMARK                         _______ _______ _______ _____ _____    ______ ____
ROOT
ATOM      1  C   UNL     1       2.130  -4.500   3.718  0.00  0.00    +0.016 C 
ENDROOT
BRANCH   1   2
ATOM      2  C   UNL     1       2.045  -6.003   3.774  0.00  0.00    -0.049 A 
ATOM      3  C   UNL     1       0.992  -6.612   4.431  0.00  0.00    +0.005 A 
ATOM      4  C   UNL     1       0.914  -7.991   4.483  0.00  0.00    +0.029 A 
ATOM      5  C   UNL     1       1.888  -8.762   3.877  0.00  0.00    +0.105 A 
ATOM      6  C   UNL     1       2.940  -8.153   3.218  0.00  0.00    +0.029 A 
ATOM      7  C   UNL     1       3.016  -6.774   3.163  0.00  0.00    +0.005 A 
BRANCH   5   8
ATOM      8  S   UNL     1       1.789 -10.520   3.943  0.00  0.00    +0.056 S 
ATOM      9  O   UNL     1       3.112 -11.008   3.768  0.00  0.00    -0.153 OA
ATOM     10  O   UNL     1       1.004 -10.839   5.084  0.00  0.00    -0.153 OA
BRANCH   8  11
ATOM     11  N   UNL     1       0.923 -11.012   2.620  0.00  0.00    -0.204 NA
ATOM     12  H   UNL     1       0.583 -10.356   1.991  0.00  0.00    +0.144 HD
ATOM     13  H   UNL     1       0.756 -11.956   2.474  0.00  0.00    +0.144 HD
ENDBRANCH   8  11
ENDBRANCH   5   8
ENDBRANCH   1   2
BRANCH   1  14
ATOM     14  C   UNL     1       1.390  -3.993   2.478  0.00  0.00    -0.078 C 
BRANCH  14  15
ATOM     15  N   UNL     1       1.473  -2.527   2.423  0.00  0.00    +0.381 N 
ATOM     16  H   UNL     1       2.441  -2.247   2.375  0.00  0.00    -0.086 HD
ATOM     17  H   UNL     1       1.050  -2.135   3.251  0.00  0.00    -0.086 HD
BRANCH  15  23
ATOM     18  C   UNL     1      -0.019   1.526   0.010  0.00  0.00    +0.007 C 
ATOM     19  C   UNL     1       0.002  -0.004   0.002  0.00  0.00    -0.016 C 
ATOM     20  C   UNL     1       0.718  -0.497  -1.257  0.00  0.00    +0.003 C 
ATOM     21  C   UNL     1       0.739  -2.027  -1.265  0.00  0.00    -0.001 C 
ATOM     22  C   UNL     1       1.479  -2.534  -0.026  0.00  0.00    -0.016 C 
ATOM     23  C   UNL     1       0.763  -2.041   1.233  0.00  0.00    -0.072 C 
ATOM     24  C   UNL     1       0.742  -0.511   1.242  0.00  0.00    -0.013 C 
ENDBRANCH  15  23
ENDBRANCH  14  15
ENDBRANCH   1  14
TORSDOF 6
