REMARK  Name = ZINC41531401
REMARK  5 active torsions:
REMARK  status: ('A' for Active; 'I' for Inactive)
REMARK    1  A    between atoms: C_11  and  C_13
REMARK    2  A    between atoms: C_13  and  C_14
REMARK    3  A    between atoms: C_14  and  C_15
REMARK    4  A    between atoms: N_17  and  C_18
REMARK    5  A    between atoms: C_18  and  C_21
REMARK                            x       y       z     vdW  Elec       q    Type
REMARK                         _______ _______ _______ _____ _____    ______ ____
ROOT
ATOM      1  C   UNL     1       6.097  -1.780  -0.169  0.00  0.00    +0.102 C 
ENDROOT
BRANCH   1   2
ATOM      2  C   UNL     1       7.486  -2.365  -0.178  0.00  0.00    +0.214 C 
ATOM      3  O   UNL     1       7.638  -3.565  -0.253  0.00  0.00    -0.276 OA
ATOM      4  N   UNL     1       8.559  -1.553  -0.102  0.00  0.00    -0.306 N 
ATOM      5  H   UNL     1       8.441  -0.590  -0.119  0.00  0.00    +0.150 HD
BRANCH   4   6
ATOM      6  C   UNL     1       9.903  -2.124   0.005  0.00  0.00    +0.060 C 
ATOM      7  C   UNL     1      10.979  -1.581  -0.937  0.00  0.00    +0.033 C 
ATOM      8  C   UNL     1      10.402  -2.981  -1.160  0.00  0.00    +0.033 C 
BRANCH   6   9
ATOM      9  C   UNL     1      10.331  -2.522   1.394  0.00  0.00    -0.024 A 
ATOM     10  C   UNL     1      11.554  -3.136   1.591  0.00  0.00    +0.007 A 
ATOM     11  C   UNL     1      11.947  -3.502   2.865  0.00  0.00    +0.020 A 
ATOM     12  C   UNL     1      11.116  -3.253   3.943  0.00  0.00    +0.041 A 
ATOM     13  C   UNL     1       9.893  -2.638   3.745  0.00  0.00    +0.020 A 
ATOM     14  C   UNL     1       9.503  -2.268   2.472  0.00  0.00    +0.007 A 
ATOM     15 CL   UNL     1      11.608  -3.712   5.543  0.00  0.00    -0.084 Cl
ENDBRANCH   6   9
ENDBRANCH   4   6
ENDBRANCH   1   2
BRANCH   1  16
ATOM     16  C   UNL     1       5.068  -2.908  -0.264  0.00  0.00    +0.070 C 
BRANCH  16  27
ATOM     17  C   UNL     1      -0.240   0.656  -0.143  0.00  0.00    +0.002 A 
ATOM     18  C   UNL     1       0.891   1.459  -0.067  0.00  0.00    +0.002 A 
ATOM     19  C   UNL     1       2.138   0.906  -0.077  0.00  0.00    +0.030 A 
ATOM     20  C   UNL     1       2.288  -0.486  -0.165  0.00  0.00    +0.088 A 
ATOM     21  C   UNL     1       1.142  -1.300  -0.242  0.00  0.00    +0.068 A 
ATOM     22  C   UNL     1      -0.121  -0.714  -0.230  0.00  0.00    +0.028 A 
ATOM     23  N   UNL     1       1.274  -2.671  -0.328  0.00  0.00    -0.319 N 
ATOM     24  H   UNL     1       0.489  -3.239  -0.382  0.00  0.00    +0.169 HD
ATOM     25  C   UNL     1       2.513  -3.210  -0.337  0.00  0.00    +0.271 A 
ATOM     26  O   UNL     1       2.659  -4.416  -0.413  0.00  0.00    -0.266 OA
ATOM     27  C   UNL     1       3.679  -2.324  -0.255  0.00  0.00    +0.106 A 
ATOM     28  N   UNL     1       3.518  -1.034  -0.174  0.00  0.00    -0.245 NA
ENDBRANCH  16  27
ENDBRANCH   1  16
TORSDOF 5
