REMARK  Name = ZINC67208730
REMARK  10 active torsions:
REMARK  status: ('A' for Active; 'I' for Inactive)
REMARK    1  A    between atoms: C_1  and  C_2
REMARK    2  A    between atoms: C_2  and  C_4
REMARK    3  A    between atoms: C_2  and  N_20
REMARK    4  A    between atoms: N_6  and  C_7
REMARK    5  A    between atoms: C_10  and  N_14
REMARK    6  A    between atoms: C_21  and  O_23
REMARK    7  A    between atoms: O_23  and  C_24
REMARK    8  A    between atoms: C_24  and  C_25
REMARK    9  A    between atoms: C_24  and  C_26
REMARK   10  A    between atoms: C_24  and  C_27
REMARK                            x       y       z     vdW  Elec       q    Type
REMARK                         _______ _______ _______ _____ _____    ______ ____
ROOT
ATOM      1  C   UNL     1       0.730  -0.502   1.224  0.00  0.00    +0.237 C 
ATOM      2  O   UNL     1       0.155  -1.204   2.028  0.00  0.00    -0.273 OA
ATOM      3  N   UNL     1       2.019  -0.161   1.426  0.00  0.00    -0.284 N 
ATOM      4  H   UNL     1       2.498   0.344   0.751  0.00  0.00    +0.155 HD
ENDROOT
BRANCH   3   5
ATOM      5  C   UNL     1       2.665  -0.537   2.611  0.00  0.00    +0.039 A 
ATOM      6  C   UNL     1       3.603   0.308   3.188  0.00  0.00    +0.063 A 
ATOM      7  C   UNL     1       4.241  -0.062   4.358  0.00  0.00    +0.149 A 
ATOM      8  C   UNL     1       3.943  -1.281   4.955  0.00  0.00    +0.101 A 
ATOM      9  C   UNL     1       3.005  -2.127   4.377  0.00  0.00    +0.149 A 
ATOM     10  C   UNL     1       2.364  -1.753   3.210  0.00  0.00    +0.063 A 
ATOM     11  F   UNL     1       2.716  -3.312   4.957  0.00  0.00    -0.203 F 
ATOM     12  F   UNL     1       5.153   0.761   4.920  0.00  0.00    -0.203 F 
BRANCH   8  13
ATOM     13  N   UNL     1       4.590  -1.657   6.141  0.00  0.00    -0.325 N 
ATOM     14  C   UNL     1       5.854  -2.405   6.228  0.00  0.00    +0.105 C 
ATOM     15  C   UNL     1       6.162  -2.610   7.726  0.00  0.00    +0.020 C 
ATOM     16  C   UNL     1       4.769  -2.460   8.392  0.00  0.00    +0.020 C 
ATOM     17  C   UNL     1       4.120  -1.363   7.507  0.00  0.00    +0.105 C 
ENDBRANCH   8  13
ENDBRANCH   3   5
BRANCH   1  19
ATOM     18  C   UNL     1      -0.013   1.521  -0.004  0.00  0.00    +0.038 C 
ATOM     19  C   UNL     1       0.004  -0.009  -0.002  0.00  0.00    +0.159 C 
BRANCH  19  20
ATOM     20  N   UNL     1      -1.371  -0.513   0.011  0.00  0.00    -0.270 N 
ATOM     21  C   UNL     1      -2.049  -0.651  -1.146  0.00  0.00    +0.401 C 
ATOM     22  O   UNL     1      -1.519  -0.358  -2.199  0.00  0.00    -0.226 OA
ATOM     23  H   UNL     1      -1.795  -0.747   0.852  0.00  0.00    +0.153 HD
BRANCH  21  24
ATOM     24  O   UNL     1      -3.313  -1.114  -1.135  0.00  0.00    -0.445 OA
BRANCH  24  25
ATOM     25  C   UNL     1      -3.971  -1.235  -2.398  0.00  0.00    +0.107 C 
ATOM     26  C   UNL     1      -3.188  -2.200  -3.291  0.00  0.00    +0.055 C 
ATOM     27  C   UNL     1      -5.388  -1.773  -2.185  0.00  0.00    +0.055 C 
ATOM     28  C   UNL     1      -4.042   0.138  -3.069  0.00  0.00    +0.055 C 
ENDBRANCH  24  25
ENDBRANCH  21  24
ENDBRANCH  19  20
ENDBRANCH   1  19
TORSDOF 6
