REMARK  Name = ZINC13032290
REMARK  12 active torsions:
REMARK  status: ('A' for Active; 'I' for Inactive)
REMARK    1  A    between atoms: C_1  and  C_2
REMARK    2  A    between atoms: C_2  and  C_3
REMARK    3  A    between atoms: C_3  and  C_4
REMARK    4  A    between atoms: C_3  and  C_5
REMARK    5  A    between atoms: C_3  and  N_6
REMARK    6  A    between atoms: C_7  and  C_9
REMARK    7  A    between atoms: C_9  and  C_11
REMARK    8  A    between atoms: C_9  and  N_18
REMARK    9  A    between atoms: C_14  and  O_17
REMARK   10  A    between atoms: N_18  and  C_19
REMARK   11  A    between atoms: C_27  and  C_29
REMARK   12  A    between atoms: C_29  and  N_30
REMARK                            x       y       z     vdW  Elec       q    Type
REMARK                         _______ _______ _______ _____ _____    ______ ____
ROOT
ATOM      1  N   UNL     1      -5.204   3.305  -1.876  0.00  0.00    -0.254 N 
ATOM      2  C   UNL     1      -4.541   4.400  -1.456  0.00  0.00    +0.242 C 
ATOM      3  O   UNL     1      -4.648   5.444  -2.065  0.00  0.00    -0.273 OA
ENDROOT
BRANCH   1   4
ATOM      4  C   UNL     1      -5.164   2.129  -1.117  0.00  0.00    +0.039 A 
ATOM      5  C   UNL     1      -4.476   1.019  -1.590  0.00  0.00    +0.026 A 
ATOM      6  C   UNL     1      -4.437  -0.140  -0.840  0.00  0.00    +0.041 A 
ATOM      7  C   UNL     1      -5.083  -0.197   0.384  0.00  0.00    +0.142 A 
ATOM      8  C   UNL     1      -5.770   0.909   0.858  0.00  0.00    +0.078 A 
ATOM      9  C   UNL     1      -5.807   2.072   0.113  0.00  0.00    +0.046 A 
ATOM     10 CL   UNL     1      -6.578   0.836   2.393  0.00  0.00    -0.081 Cl
ATOM     11  F   UNL     1      -5.043  -1.331   1.116  0.00  0.00    -0.204 F 
ENDBRANCH   1   4
BRANCH   1  12
ATOM     12  C   UNL     1      -5.967   3.344  -3.126  0.00  0.00    +0.197 C 
BRANCH  12  13
ATOM     13  C   UNL     1      -6.488   1.965  -3.440  0.00  0.00    -0.018 A 
ATOM     14  C   UNL     1      -7.298   1.310  -2.532  0.00  0.00    +0.009 A 
ATOM     15  C   UNL     1      -7.781   0.048  -2.821  0.00  0.00    +0.046 A 
ATOM     16  C   UNL     1      -7.442  -0.566  -4.017  0.00  0.00    +0.117 A 
ATOM     17  C   UNL     1      -6.624   0.091  -4.925  0.00  0.00    +0.046 A 
ATOM     18  C   UNL     1      -6.149   1.355  -4.634  0.00  0.00    +0.009 A 
BRANCH  16  19
ATOM     19  O   UNL     1      -7.911  -1.810  -4.301  0.00  0.00    -0.507 OA
ATOM     20  H   UNL     1      -7.335  -2.526  -3.998  0.00  0.00    +0.292 HD
ENDBRANCH  16  19
ENDBRANCH  12  13
BRANCH  12  22
ATOM     21  N   UNL     1      -7.972   4.495  -4.007  0.00  0.00    -0.308 N 
ATOM     22  C   UNL     1      -7.126   4.296  -2.977  0.00  0.00    +0.239 C 
ATOM     23  O   UNL     1      -7.297   4.884  -1.930  0.00  0.00    -0.273 OA
ATOM     24  H   UNL     1      -7.835   4.024  -4.845  0.00  0.00    +0.149 HD
BRANCH  21  25
ATOM     25  C   UNL     1      -9.098   5.420  -3.863  0.00  0.00    +0.029 C 
ATOM     26  C   UNL     1     -10.005   4.946  -2.726  0.00  0.00    +0.031 C 
ATOM     27  C   UNL     1      -8.570   6.820  -3.543  0.00  0.00    +0.031 C 
BRANCH  25  29
ATOM     28  C   UNL     1     -11.071   6.428  -5.017  0.00  0.00    +0.006 C 
ATOM     29  C   UNL     1      -9.895   5.462  -5.168  0.00  0.00    +0.022 C 
ENDBRANCH  25  29
ENDBRANCH  21  25
ENDBRANCH  12  22
ENDBRANCH   1  12
BRANCH   2  30
ATOM     30  C   UNL     1      -3.666   4.329  -0.232  0.00  0.00    +0.242 C 
BRANCH  30  31
ATOM     31  N   UNL     1      -2.961   5.601  -0.059  0.00  0.00    -0.235 N 
ATOM     32  C   UNL     1      -1.735   5.940  -0.579  0.00  0.00    +0.090 A 
ATOM     33  C   UNL     1      -0.808   5.278  -1.378  0.00  0.00    +0.029 A 
ATOM     34  C   UNL     1       0.354   5.904  -1.731  0.00  0.00    +0.002 A 
ATOM     35  C   UNL     1       0.615   7.201  -1.307  0.00  0.00    +0.002 A 
ATOM     36  C   UNL     1      -0.280   7.873  -0.527  0.00  0.00    +0.032 A 
ATOM     37  C   UNL     1      -1.477   7.252  -0.147  0.00  0.00    +0.113 A 
ATOM     38  N   UNL     1      -2.526   7.651   0.598  0.00  0.00    -0.129 NA
ATOM     39  N   UNL     1      -3.406   6.715   0.669  0.00  0.00    -0.064 NA
ENDBRANCH  30  31
ENDBRANCH   2  30
TORSDOF 9
