REMARK  Name = ZINC45684338
REMARK  14 active torsions:
REMARK  status: ('A' for Active; 'I' for Inactive)
REMARK    1  A    between atoms: C_1  and  C_2
REMARK    2  A    between atoms: C_2  and  C_4
REMARK    3  A    between atoms: C_2  and  N_13
REMARK    4  A    between atoms: C_7  and  O_11
REMARK    5  A    between atoms: O_11  and  C_12
REMARK    6  A    between atoms: N_13  and  C_14
REMARK    7  A    between atoms: C_14  and  C_15
REMARK    8  A    between atoms: C_15  and  C_16
REMARK    9  A    between atoms: C_16  and  C_17
REMARK   10  A    between atoms: C_17  and  N_18
REMARK   11  A    between atoms: N_18  and  C_19
REMARK   12  A    between atoms: N_18  and  C_20
REMARK   13  A    between atoms: C_20  and  C_21
REMARK   14  A    between atoms: C_20  and  C_22
REMARK                            x       y       z     vdW  Elec       q    Type
REMARK                         _______ _______ _______ _____ _____    ______ ____
ROOT
ATOM      1  N   UNL     1       0.690  -0.478  -1.207  0.00  0.00    +0.383 N 
ATOM      2  H   UNL     1       1.608  -0.063  -1.256  0.00  0.00    -0.085 HD
ATOM      3  H   UNL     1       0.776  -1.482  -1.172  0.00  0.00    -0.085 HD
ENDROOT
BRANCH   1   5
ATOM      4  C   UNL     1      -0.019   1.526   0.010  0.00  0.00    -0.009 C 
ATOM      5  C   UNL     1       0.002  -0.004   0.002  0.00  0.00    -0.044 C 
BRANCH   5   6
ATOM      6  C   UNL     1       0.731  -0.503   1.223  0.00  0.00    -0.060 A 
ATOM      7  C   UNL     1       2.114  -0.513   1.245  0.00  0.00    +0.005 A 
ATOM      8  C   UNL     1       2.784  -0.971   2.363  0.00  0.00    +0.047 A 
ATOM      9  C   UNL     1       2.070  -1.420   3.464  0.00  0.00    +0.134 A 
ATOM     10  C   UNL     1       0.682  -1.409   3.439  0.00  0.00    +0.060 A 
ATOM     11  C   UNL     1       0.016  -0.945   2.321  0.00  0.00    +0.021 A 
ATOM     12 BR   UNL     1      -0.295  -2.021   4.938  0.00  0.00    -0.047 Br
BRANCH   9  13
ATOM     13  O   UNL     1       2.728  -1.871   4.564  0.00  0.00    -0.494 OA
ATOM     14  C   UNL     1       4.156  -1.854   4.519  0.00  0.00    +0.277 C 
ENDBRANCH   9  13
ENDBRANCH   5   6
ENDBRANCH   1   5
BRANCH   1  15
ATOM     15  C   UNL     1      -0.086  -0.093  -2.394  0.00  0.00    -0.082 C 
BRANCH  15  16
ATOM     16  C   UNL     1       0.630  -0.587  -3.652  0.00  0.00    -0.021 C 
BRANCH  16  17
ATOM     17  C   UNL     1      -0.177  -0.186  -4.889  0.00  0.00    -0.020 C 
BRANCH  17  18
ATOM     18  C   UNL     1       0.539  -0.679  -6.147  0.00  0.00    -0.079 C 
BRANCH  18  19
ATOM     19  N   UNL     1      -0.236  -0.295  -7.335  0.00  0.00    +0.379 N 
ATOM     20  C   UNL     1      -1.528  -0.994  -7.323  0.00  0.00    -0.096 C 
ATOM     21  H   UNL     1      -0.393   0.702  -7.325  0.00  0.00    -0.082 HD
BRANCH  19  22
ATOM     22  C   UNL     1       0.509  -0.662  -8.546  0.00  0.00    -0.075 C 
ATOM     23  C   UNL     1      -0.298  -0.261  -9.782  0.00  0.00    -0.014 C 
ATOM     24  C   UNL     1       1.855   0.066  -8.558  0.00  0.00    -0.014 C 
ENDBRANCH  19  22
ENDBRANCH  18  19
ENDBRANCH  17  18
ENDBRANCH  16  17
ENDBRANCH  15  16
ENDBRANCH   1  15
TORSDOF 9
