REMARK  Name = ZINC09875195
REMARK  7 active torsions:
REMARK  status: ('A' for Active; 'I' for Inactive)
REMARK    1  A    between atoms: C_1  and  C_2
REMARK    2  A    between atoms: C_2  and  O_3
REMARK    3  A    between atoms: O_3  and  C_4
REMARK    4  A    between atoms: C_9  and  N_10
REMARK    5  A    between atoms: C_15  and  C_16
REMARK    6  A    between atoms: C_15  and  N_55
REMARK    7  A    between atoms: C_22  and  C_27
REMARK                            x       y       z     vdW  Elec       q    Type
REMARK                         _______ _______ _______ _____ _____    ______ ____
ROOT
ATOM      1  C   UNL     1      -6.540   0.878   0.107  0.00  0.00    -0.003 C 
ENDROOT
BRANCH   1   2
ATOM      2  C   UNL     1      -7.376   0.382   1.259  0.00  0.00    +0.094 A 
ATOM      3  N   UNL     1      -8.611   0.909   1.463  0.00  0.00    -0.312 N 
ATOM      4  H   UNL     1      -8.938   1.599   0.864  0.00  0.00    +0.170 HD
ATOM      5  C   UNL     1      -9.389   0.495   2.480  0.00  0.00    +0.260 A 
ATOM      6  O   UNL     1     -10.495   0.978   2.650  0.00  0.00    -0.267 OA
ATOM      7  C   UNL     1      -8.898  -0.522   3.359  0.00  0.00    +0.083 A 
ATOM      8  C   UNL     1      -9.543  -1.131   4.518  0.00  0.00    +0.039 A 
ATOM      9  C   UNL     1      -8.873  -2.089   5.207  0.00  0.00    +0.059 A 
ATOM     10  S   UNL     1      -7.328  -2.226   4.328  0.00  0.00    -0.076 S 
ATOM     11  C   UNL     1      -7.612  -1.008   3.070  0.00  0.00    +0.116 A 
ATOM     12  N   UNL     1      -6.903  -0.550   2.041  0.00  0.00    -0.229 NA
BRANCH   8  13
ATOM     13  C   UNL     1     -10.897  -0.712   4.932  0.00  0.00    +0.136 A 
ATOM     14  C   UNL     1     -11.945  -1.540   5.189  0.00  0.00    +0.050 A 
ATOM     15  C   UNL     1     -13.033  -0.719   5.551  0.00  0.00    +0.042 A 
ATOM     16  C   UNL     1     -12.602   0.556   5.491  0.00  0.00    +0.196 A 
ATOM     17  O   UNL     1     -11.310   0.556   5.117  0.00  0.00    -0.463 OA
ENDBRANCH   8  13
ENDBRANCH   1   2
BRANCH   1  23
ATOM     18  N   UNL     1      -2.417  -0.039   0.024  0.00  0.00    -0.331 N 
ATOM     19  C   UNL     1      -3.160  -0.319   1.261  0.00  0.00    +0.086 C 
ATOM     20  C   UNL     1      -4.452   0.502   1.274  0.00  0.00    -0.059 C 
ATOM     21  C   UNL     1      -4.513   0.444  -1.145  0.00  0.00    -0.059 C 
ATOM     22  C   UNL     1      -3.222  -0.377  -1.158  0.00  0.00    +0.086 C 
ATOM     23  N   UNL     1      -5.261   0.137   0.092  0.00  0.00    +0.386 N 
ATOM     24  H   UNL     1      -5.458  -0.870   0.121  0.00  0.00    -0.081 HD
BRANCH  18  30
ATOM     25  C   UNL     1       0.002  -0.004   0.002  0.00  0.00    +0.141 A 
ATOM     26  C   UNL     1       1.210  -0.682  -0.019  0.00  0.00    +0.047 A 
ATOM     27  C   UNL     1       1.227  -2.065  -0.021  0.00  0.00    +0.004 A 
ATOM     28  C   UNL     1       0.041  -2.775  -0.013  0.00  0.00    +0.002 A 
ATOM     29  C   UNL     1      -1.169  -2.106   0.002  0.00  0.00    +0.027 A 
ATOM     30  C   UNL     1      -1.194  -0.719   0.010  0.00  0.00    +0.072 A 
BRANCH  25  31
ATOM     31  O   UNL     1      -0.016   1.356   0.009  0.00  0.00    -0.490 OA
BRANCH  31  33
ATOM     32  C   UNL     1       1.027   3.536   0.011  0.00  0.00    +0.048 C 
ATOM     33  C   UNL     1       1.248   2.022   0.001  0.00  0.00    +0.226 C 
ENDBRANCH  31  33
ENDBRANCH  25  31
ENDBRANCH  18  30
ENDBRANCH   1  23
TORSDOF 6
