REMARK  Name = ZINC63230142
REMARK  8 active torsions:
REMARK  status: ('A' for Active; 'I' for Inactive)
REMARK    1  A    between atoms: C_7  and  C_10
REMARK    2  A    between atoms: C_10  and  C_11
REMARK    3  A    between atoms: C_11  and  C_13
REMARK    4  A    between atoms: C_11  and  N_26
REMARK    5  A    between atoms: N_15  and  C_16
REMARK    6  A    between atoms: C_16  and  C_17
REMARK    7  A    between atoms: C_17  and  C_18
REMARK    8  A    between atoms: C_27  and  C_29
REMARK                            x       y       z     vdW  Elec       q    Type
REMARK                         _______ _______ _______ _____ _____    ______ ____
ROOT
ATOM      1  C   UNL     1       0.457  -3.653  -1.462  0.00  0.00    +0.163 C 
ENDROOT
BRANCH   1   2
ATOM      2  C   UNL     1      -0.385  -4.904  -1.452  0.00  0.00    +0.234 C 
ATOM      3  O   UNL     1      -1.574  -4.836  -1.679  0.00  0.00    -0.274 OA
ATOM      4  N   UNL     1       0.185  -6.097  -1.193  0.00  0.00    -0.313 N 
ATOM      5  H   UNL     1       1.136  -6.151  -1.011  0.00  0.00    +0.149 HD
BRANCH   4   6
ATOM      6  C   UNL     1      -0.633  -7.313  -1.184  0.00  0.00    +0.109 C 
BRANCH   6   7
ATOM      7  C   UNL     1       0.251  -8.520  -0.864  0.00  0.00    +0.055 C 
BRANCH   7   8
ATOM      8  C   UNL     1      -0.590  -9.770  -0.855  0.00  0.00    -0.027 A 
ATOM      9  C   UNL     1      -1.109 -10.245   0.335  0.00  0.00    +0.006 A 
ATOM     10  C   UNL     1      -1.881 -11.392   0.344  0.00  0.00    +0.020 A 
ATOM     11  C   UNL     1      -2.135 -12.065  -0.838  0.00  0.00    +0.042 A 
ATOM     12  C   UNL     1      -1.616 -11.590  -2.029  0.00  0.00    +0.040 A 
ATOM     13  C   UNL     1      -0.848 -10.439  -2.038  0.00  0.00    +0.046 A 
ATOM     14 CL   UNL     1      -0.202  -9.839  -3.534  0.00  0.00    -0.083 Cl
ATOM     15 CL   UNL     1      -3.103 -13.505  -0.826  0.00  0.00    -0.083 Cl
ENDBRANCH   7   8
ENDBRANCH   6   7
ENDBRANCH   4   6
ENDBRANCH   1   2
BRANCH   1  16
ATOM     16  N   UNL     1      -0.238  -2.603  -2.210  0.00  0.00    -0.299 N 
ATOM     17  C   UNL     1      -1.451  -2.176  -1.805  0.00  0.00    +0.251 C 
ATOM     18  O   UNL     1      -1.969  -2.664  -0.818  0.00  0.00    -0.270 OA
ATOM     19  H   UNL     1       0.175  -2.214  -2.997  0.00  0.00    +0.150 HD
BRANCH  17  20
ATOM     20  C   UNL     1      -2.146  -1.125  -2.554  0.00  0.00    +0.074 A 
ATOM     21  C   UNL     1      -3.381  -0.547  -2.306  0.00  0.00    +0.021 A 
ATOM     22  C   UNL     1      -3.774   0.426  -3.193  0.00  0.00    +0.008 A 
ATOM     23  C   UNL     1      -2.953   0.749  -4.223  0.00  0.00    +0.046 A 
ATOM     24  S   UNL     1      -1.619  -0.252  -4.016  0.00  0.00    -0.092 S 
ENDBRANCH  17  20
ENDBRANCH   1  16
BRANCH   1  25
ATOM     25  C   UNL     1       0.691  -3.186  -0.024  0.00  0.00    +0.065 C 
BRANCH  25  32
ATOM     26  C   UNL     1      -0.016   1.348   0.009  0.00  0.00    +0.001 A 
ATOM     27  C   UNL     1       1.166   2.101   0.002  0.00  0.00    +0.002 A 
ATOM     28  C   UNL     1       2.391   1.535  -0.013  0.00  0.00    +0.026 A 
ATOM     29  C   UNL     1       2.529   0.120  -0.022  0.00  0.00    +0.043 A 
ATOM     30  N   UNL     1       3.587  -0.654  -0.037  0.00  0.00    -0.380 N 
ATOM     31  C   UNL     1       3.143  -2.053  -0.041  0.00  0.00    +0.144 C 
ATOM     32  C   UNL     1       1.631  -2.008  -0.025  0.00  0.00    -0.039 C 
ATOM     33  C   UNL     1       1.295  -0.698  -0.014  0.00  0.00    -0.001 A 
ATOM     34  C   UNL     1       0.002  -0.004   0.002  0.00  0.00    +0.010 A 
ATOM     35  H   UNL     1       4.509  -0.353  -0.045  0.00  0.00    +0.160 HD
ENDBRANCH  25  32
ENDBRANCH   1  25
TORSDOF 8
