REMARK  Name = ZINC39855737
REMARK  10 active torsions:
REMARK  status: ('A' for Active; 'I' for Inactive)
REMARK    1  A    between atoms: C_1  and  C_2
REMARK    2  A    between atoms: C_2  and  C_3
REMARK    3  A    between atoms: C_3  and  C_5
REMARK    4  A    between atoms: C_3  and  N_6
REMARK    5  A    between atoms: C_7  and  C_9
REMARK    6  A    between atoms: C_10  and  C_28
REMARK    7  A    between atoms: C_15  and  C_26
REMARK    8  A    between atoms: C_15  and  C_27
REMARK    9  A    between atoms: N_18  and  N_19
REMARK   10  A    between atoms: N_19  and  C_20
REMARK                            x       y       z     vdW  Elec       q    Type
REMARK                         _______ _______ _______ _____ _____    ______ ____
ROOT
ATOM      1  C   UNL     1      -0.121   0.360   4.828  0.00  0.00    +0.193 A 
ATOM      2  C   UNL     1       0.406   0.528   6.078  0.00  0.00    +0.009 A 
ATOM      3  C   UNL     1      -0.664   0.877   6.911  0.00  0.00    +0.042 A 
ATOM      4  C   UNL     1      -1.798   0.905   6.135  0.00  0.00    +0.116 A 
ATOM      5  O   UNL     1      -1.451   0.600   4.887  0.00  0.00    -0.454 OA
ATOM      6  C   UNL     1      -3.161   1.239   6.687  0.00  0.00    +0.081 C 
ATOM      7  C   UNL     1      -3.164   1.019   8.202  0.00  0.00    -0.023 C 
ATOM      8  C   UNL     1      -2.008   1.778   8.861  0.00  0.00    +0.064 C 
ATOM      9  C   UNL     1      -0.700   1.183   8.359  0.00  0.00    +0.070 C 
ATOM     10  N   UNL     1       0.309   0.959   9.143  0.00  0.00    -0.186 NA
ATOM     11  C   UNL     1      -3.019  -0.475   8.495  0.00  0.00    +0.011 C 
ATOM     12  C   UNL     1      -4.490   1.519   8.781  0.00  0.00    +0.011 C 
ATOM     13  C   UNL     1       1.850   0.370   6.479  0.00  0.00    +0.048 C 
ENDROOT
BRANCH   1  15
ATOM     14  N   UNL     1      -0.008  -0.140   2.444  0.00  0.00    -0.306 N 
ATOM     15  C   UNL     1       0.630  -0.011   3.624  0.00  0.00    +0.280 C 
ATOM     16  O   UNL     1       1.830  -0.203   3.690  0.00  0.00    -0.267 OA
ATOM     17  H   UNL     1      -0.965   0.013   2.391  0.00  0.00    +0.149 HD
BRANCH  14  18
ATOM     18  C   UNL     1       0.742  -0.511   1.242  0.00  0.00    +0.070 C 
ATOM     19  C   UNL     1       0.872  -2.034   1.171  0.00  0.00    +0.028 C 
BRANCH  18  21
ATOM     20  C   UNL     1      -0.019   1.526   0.010  0.00  0.00    +0.005 C 
ATOM     21  C   UNL     1       0.002  -0.004   0.002  0.00  0.00    +0.018 C 
ENDBRANCH  18  21
ENDBRANCH  14  18
ENDBRANCH   1  15
BRANCH  10  22
ATOM     22  N   UNL     1       0.218   1.268  10.507  0.00  0.00    -0.238 N 
ATOM     23  H   UNL     1      -0.599   1.649  10.864  0.00  0.00    +0.174 HD
BRANCH  22  24
ATOM     24  C   UNL     1       1.303   1.027  11.350  0.00  0.00    +0.048 A 
ATOM     25  C   UNL     1       2.477   0.486  10.838  0.00  0.00    +0.025 A 
ATOM     26  C   UNL     1       3.549   0.249  11.676  0.00  0.00    +0.002 A 
ATOM     27  C   UNL     1       3.455   0.549  13.023  0.00  0.00    +0.000 A 
ATOM     28  C   UNL     1       2.289   1.088  13.536  0.00  0.00    +0.002 A 
ATOM     29  C   UNL     1       1.216   1.333  12.703  0.00  0.00    +0.025 A 
ENDBRANCH  22  24
ENDBRANCH  10  22
TORSDOF 5
