REMARK  Name = ZINC08299729
REMARK  7 active torsions:
REMARK  status: ('A' for Active; 'I' for Inactive)
REMARK    1  A    between atoms: C_4  and  O_7
REMARK    2  A    between atoms: O_7  and  C_8
REMARK    3  A    between atoms: C_8  and  C_9
REMARK    4  A    between atoms: N_11  and  C_14
REMARK    5  A    between atoms: C_14  and  C_15
REMARK    6  A    between atoms: C_23  and  C_25
REMARK    7  A    between atoms: C_30  and  C_33
REMARK                            x       y       z     vdW  Elec       q    Type
REMARK                         _______ _______ _______ _____ _____    ______ ____
ROOT
ATOM      1  C   UNL     1       0.768  -0.495   1.234  0.00  0.00    -0.046 C 
ATOM      2  C   UNL     1       0.002  -0.004   0.002  0.00  0.00    -0.010 C 
ATOM      3  C   UNL     1      -0.019   1.530   0.011  0.00  0.00    -0.004 C 
ATOM      4  C   UNL     1      -0.694   2.003   1.304  0.00  0.00    -0.015 C 
ATOM      5  C   UNL     1       0.092   1.457   2.500  0.00  0.00    -0.078 C 
ATOM      6  C   UNL     1       2.154   1.492   1.232  0.00  0.00    -0.065 C 
ATOM      7  C   UNL     1       1.428   2.039  -0.001  0.00  0.00    +0.062 C 
ATOM      8  N   UNL     1       1.243   0.652   2.038  0.00  0.00    +0.383 N 
ATOM      9  H   UNL     1       1.752   0.298   2.856  0.00  0.00    -0.081 HD
ENDROOT
BRANCH   7  10
ATOM     10  C   UNL     1       1.434   3.545   0.037  0.00  0.00    +0.217 C 
ATOM     11  O   UNL     1       0.386   4.155   0.069  0.00  0.00    -0.275 OA
ATOM     12  N   UNL     1       2.603   4.215   0.034  0.00  0.00    -0.301 N 
ATOM     13  C   UNL     1       3.881   3.490   0.002  0.00  0.00    +0.108 C 
ATOM     14  C   UNL     1       4.716   4.024  -1.172  0.00  0.00    +0.032 C 
ATOM     15  C   UNL     1       4.858   5.543  -1.040  0.00  0.00    +0.078 C 
ATOM     16  C   UNL     1       3.474   6.193  -1.098  0.00  0.00    +0.032 C 
ATOM     17  C   UNL     1       2.625   5.684   0.071  0.00  0.00    +0.108 C 
BRANCH  15  18
ATOM     18  C   UNL     1       5.707   6.067  -2.169  0.00  0.00    +0.214 C 
ATOM     19  O   UNL     1       5.251   6.881  -2.943  0.00  0.00    -0.276 OA
ATOM     20  N   UNL     1       6.974   5.632  -2.318  0.00  0.00    -0.329 N 
ATOM     21  H   UNL     1       7.339   4.981  -1.698  0.00  0.00    +0.145 HD
ATOM     22  H   UNL     1       7.521   5.970  -3.045  0.00  0.00    +0.145 HD
ENDBRANCH  15  18
ENDBRANCH   7  10
BRANCH   1  23
ATOM     23  C   UNL     1      -0.153  -1.359   2.097  0.00  0.00    +0.130 C 
BRANCH  23  26
ATOM     24  C   UNL     1       1.268  -2.476   5.198  0.00  0.00    +0.120 A 
ATOM     25  C   UNL     1       0.304  -1.806   4.524  0.00  0.00    +0.137 A 
ATOM     26  N   UNL     1       0.611  -1.925   3.211  0.00  0.00    -0.253 N 
ATOM     27  N   UNL     1       1.685  -2.627   3.110  0.00  0.00    -0.065 NA
ATOM     28  N   UNL     1       2.106  -2.966   4.277  0.00  0.00    -0.131 NA
BRANCH  24  29
ATOM     29  C   UNL     1       1.377  -2.638   6.693  0.00  0.00    +0.287 C 
BRANCH  29  30
ATOM     30  O   UNL     1       0.286  -1.965   7.325  0.00  0.00    -0.486 OA
BRANCH  30  34
ATOM     31  C   UNL     1       0.130  -2.113  11.445  0.00  0.00    +0.000 A 
ATOM     32  C   UNL     1      -0.847  -1.433  10.741  0.00  0.00    +0.004 A 
ATOM     33  C   UNL     1      -0.797  -1.382   9.362  0.00  0.00    +0.045 A 
ATOM     34  C   UNL     1       0.235  -2.014   8.682  0.00  0.00    +0.121 A 
ATOM     35  C   UNL     1       1.211  -2.700   9.390  0.00  0.00    +0.045 A 
ATOM     36  C   UNL     1       1.160  -2.743  10.770  0.00  0.00    +0.004 A 
ENDBRANCH  30  34
ENDBRANCH  29  30
ENDBRANCH  24  29
ENDBRANCH  23  26
ENDBRANCH   1  23
TORSDOF 7
