REMARK  Name = ZINC03305513
REMARK  7 active torsions:
REMARK  status: ('A' for Active; 'I' for Inactive)
REMARK    1  A    between atoms: C_1  and  C_2
REMARK    2  A    between atoms: C_18  and  N_19
REMARK    3  A    between atoms: C_20  and  C_22
REMARK    4  A    between atoms: C_25  and  S_28
REMARK    5  A    between atoms: S_28  and  N_31
REMARK    6  A    between atoms: N_31  and  C_32
REMARK    7  A    between atoms: N_31  and  C_33
REMARK                            x       y       z     vdW  Elec       q    Type
REMARK                         _______ _______ _______ _____ _____    ______ ____
ROOT
ATOM      1  C   UNL     1       2.088   7.772  -1.029  0.00  0.00    +0.086 C 
ATOM      2  C   UNL     1       2.583   6.401  -1.413  0.00  0.00    +0.112 A 
ATOM      3  N   UNL     1       2.714   6.125  -2.671  0.00  0.00    -0.234 NA
ATOM      4  C   UNL     1       3.155   4.915  -3.111  0.00  0.00    +0.075 A 
ATOM      5  C   UNL     1       3.288   4.640  -4.471  0.00  0.00    +0.028 A 
ATOM      6  C   UNL     1       3.742   3.403  -4.878  0.00  0.00    +0.002 A 
ATOM      7  C   UNL     1       4.059   2.423  -3.950  0.00  0.00    +0.001 A 
ATOM      8  C   UNL     1       3.936   2.673  -2.599  0.00  0.00    +0.012 A 
ATOM      9  C   UNL     1       3.484   3.917  -2.169  0.00  0.00    +0.026 A 
ATOM     10  C   UNL     1       3.332   4.240  -0.742  0.00  0.00    +0.079 A 
ATOM     11  N   UNL     1       2.873   5.510  -0.412  0.00  0.00    -0.295 N 
ATOM     12  C   UNL     1       2.797   5.623   0.962  0.00  0.00    +0.057 A 
ATOM     13  C   UNL     1       2.409   6.658   1.807  0.00  0.00    +0.027 A 
ATOM     14  C   UNL     1       2.438   6.476   3.172  0.00  0.00    +0.002 A 
ATOM     15  C   UNL     1       2.851   5.267   3.718  0.00  0.00    +0.001 A 
ATOM     16  C   UNL     1       3.238   4.237   2.909  0.00  0.00    +0.012 A 
ATOM     17  C   UNL     1       3.217   4.400   1.520  0.00  0.00    +0.022 A 
ATOM     18  C   UNL     1       3.556   3.526   0.395  0.00  0.00    +0.068 A 
ENDROOT
BRANCH  18  19
ATOM     19  N   UNL     1       4.023   2.205   0.475  0.00  0.00    -0.279 N 
ATOM     20  C   UNL     1       5.348   1.960   0.503  0.00  0.00    +0.248 C 
ATOM     21  O   UNL     1       6.137   2.883   0.563  0.00  0.00    -0.270 OA
ATOM     22  H   UNL     1       3.393   1.469   0.510  0.00  0.00    +0.155 HD
BRANCH  20  23
ATOM     23  C   UNL     1       5.843   0.567   0.461  0.00  0.00    +0.037 A 
ATOM     24  C   UNL     1       4.940  -0.496   0.398  0.00  0.00    +0.015 A 
ATOM     25  C   UNL     1       5.408  -1.793   0.354  0.00  0.00    +0.029 A 
ATOM     26  C   UNL     1       6.769  -2.041   0.383  0.00  0.00    +0.105 A 
ATOM     27  C   UNL     1       7.669  -0.993   0.451  0.00  0.00    +0.029 A 
ATOM     28  C   UNL     1       7.214   0.309   0.490  0.00  0.00    +0.015 A 
BRANCH  26  29
ATOM     29  S   UNL     1       7.358  -3.701   0.333  0.00  0.00    +0.060 S 
ATOM     30  O   UNL     1       6.337  -4.477  -0.278  0.00  0.00    -0.153 OA
ATOM     31  O   UNL     1       8.683  -3.646  -0.178  0.00  0.00    -0.153 OA
BRANCH  29  32
ATOM     32  N   UNL     1       7.477  -4.226   1.899  0.00  0.00    -0.183 NA
ATOM     33  C   UNL     1       6.335  -4.881   2.541  0.00  0.00    +0.131 C 
ATOM     34  C   UNL     1       8.725  -4.035   2.643  0.00  0.00    +0.131 C 
ENDBRANCH  29  32
ENDBRANCH  26  29
ENDBRANCH  20  23
ENDBRANCH  18  19
TORSDOF 4
