REMARK  Name = ZINC03392455
REMARK  6 active torsions:
REMARK  status: ('A' for Active; 'I' for Inactive)
REMARK    1  A    between atoms: C_7  and  C_11
REMARK    2  A    between atoms: C_11  and  C_12
REMARK    3  A    between atoms: C_12  and  C_14
REMARK    4  A    between atoms: C_12  and  N_25
REMARK    5  A    between atoms: N_16  and  C_17
REMARK    6  A    between atoms: C_26  and  C_28
REMARK                            x       y       z     vdW  Elec       q    Type
REMARK                         _______ _______ _______ _____ _____    ______ ____
ROOT
ATOM      1  C   UNL     1       1.280   1.981  -0.015  0.00  0.00    +0.164 C 
ENDROOT
BRANCH   1   2
ATOM      2  C   UNL     1      -0.014   1.209   0.005  0.00  0.00    +0.238 C 
ATOM      3  O   UNL     1       0.003  -0.004   0.004  0.00  0.00    -0.273 OA
ATOM      4  N   UNL     1      -1.191   1.867   0.018  0.00  0.00    -0.282 N 
ATOM      5  H   UNL     1      -1.205   2.833   0.099  0.00  0.00    +0.155 HD
BRANCH   4   6
ATOM      6  C   UNL     1      -2.392   1.155  -0.086  0.00  0.00    +0.069 A 
ATOM      7  C   UNL     1      -2.412  -0.091  -0.698  0.00  0.00    +0.027 A 
ATOM      8  C   UNL     1      -3.598  -0.792  -0.799  0.00  0.00    +0.017 A 
ATOM      9  C   UNL     1      -4.767  -0.254  -0.290  0.00  0.00    +0.021 A 
ATOM     10  C   UNL     1      -4.752   0.987   0.321  0.00  0.00    +0.055 A 
ATOM     11  C   UNL     1      -3.567   1.691   0.429  0.00  0.00    +0.146 A 
ATOM     12  F   UNL     1      -3.551   2.901   1.031  0.00  0.00    -0.204 F 
ATOM     13 BR   UNL     1      -6.388  -1.218  -0.431  0.00  0.00    -0.050 Br
ENDBRANCH   4   6
ENDBRANCH   1   2
BRANCH   1  14
ATOM     14  N   UNL     1       2.357   1.116  -0.505  0.00  0.00    -0.299 N 
ATOM     15  C   UNL     1       2.663  -0.018   0.156  0.00  0.00    +0.251 C 
ATOM     16  O   UNL     1       2.047  -0.323   1.160  0.00  0.00    -0.270 OA
ATOM     17  H   UNL     1       2.848   1.359  -1.305  0.00  0.00    +0.150 HD
BRANCH  15  18
ATOM     18  C   UNL     1       3.740  -0.883  -0.334  0.00  0.00    +0.074 A 
ATOM     19  C   UNL     1       4.209  -2.077   0.191  0.00  0.00    +0.021 A 
ATOM     20  C   UNL     1       5.241  -2.691  -0.474  0.00  0.00    +0.008 A 
ATOM     21  C   UNL     1       5.746  -2.111  -1.595  0.00  0.00    +0.046 A 
ATOM     22  S   UNL     1       4.785  -0.678  -1.766  0.00  0.00    -0.092 S 
ENDBRANCH  15  18
ENDBRANCH   1  14
BRANCH   1  23
ATOM     23  C   UNL     1       1.612   2.457   1.400  0.00  0.00    +0.069 C 
BRANCH  23  30
ATOM     24  C   UNL     1       2.273   7.021   0.561  0.00  0.00    +0.001 A 
ATOM     25  C   UNL     1       3.608   7.396   0.634  0.00  0.00    +0.002 A 
ATOM     26  C   UNL     1       4.584   6.470   0.928  0.00  0.00    +0.026 A 
ATOM     27  C   UNL     1       4.231   5.143   1.153  0.00  0.00    +0.047 A 
ATOM     28  C   UNL     1       2.877   4.767   1.078  0.00  0.00    +0.003 A 
ATOM     29  C   UNL     1       1.905   5.723   0.779  0.00  0.00    +0.010 A 
ATOM     30  C   UNL     1       2.840   3.331   1.361  0.00  0.00    -0.020 A 
ATOM     31  C   UNL     1       4.104   2.941   1.585  0.00  0.00    +0.087 A 
ATOM     32  N   UNL     1       4.950   4.010   1.460  0.00  0.00    -0.360 N 
ATOM     33  H   UNL     1       5.913   3.974   1.573  0.00  0.00    +0.165 HD
ENDBRANCH  23  30
ENDBRANCH   1  23
TORSDOF 6
