REMARK  Name = ZINC08997144
REMARK  7 active torsions:
REMARK  status: ('A' for Active; 'I' for Inactive)
REMARK    1  A    between atoms: C_1  and  C_2
REMARK    2  A    between atoms: C_2  and  N_3
REMARK    3  A    between atoms: N_3  and  C_4
REMARK    4  A    between atoms: N_3  and  C_6
REMARK    5  A    between atoms: C_4  and  C_5
REMARK    6  A    between atoms: C_9  and  C_12
REMARK    7  A    between atoms: C_17  and  C_29
REMARK                            x       y       z     vdW  Elec       q    Type
REMARK                         _______ _______ _______ _____ _____    ______ ____
ROOT
ATOM      1  C   UNL     1      -1.917  -6.169   0.346  0.00  0.00    +0.032 C 
ATOM      2  C   UNL     1      -3.265  -6.891   0.463  0.00  0.00    +0.088 C 
ATOM      3  C   UNL     1      -3.005  -8.351   0.690  0.00  0.00    +0.163 C 
ATOM      4  C   UNL     1      -1.834  -8.819   1.331  0.00  0.00    +0.036 C 
ATOM      5  C   UNL     1      -1.755 -10.323   1.436  0.00  0.00    +0.136 C 
ATOM      6  N   UNL     1      -0.709 -10.812   2.308  0.00  0.00    -0.331 N 
ATOM      7  C   UNL     1       0.635 -10.598   2.005  0.00  0.00    +0.049 A 
ATOM      8  C   UNL     1       1.491 -11.650   1.721  0.00  0.00    +0.025 A 
ATOM      9  C   UNL     1       2.805 -11.383   1.379  0.00  0.00    +0.002 A 
ATOM     10  C   UNL     1       3.263 -10.079   1.318  0.00  0.00    +0.002 A 
ATOM     11  C   UNL     1       2.415  -9.027   1.619  0.00  0.00    +0.025 A 
ATOM     12  C   UNL     1       1.106  -9.294   1.983  0.00  0.00    +0.052 A 
ATOM     13  N   UNL     1       0.236  -8.297   2.409  0.00  0.00    -0.316 N 
ATOM     14  C   UNL     1      -0.914  -7.948   1.780  0.00  0.00    +0.017 C 
ATOM     15  C   UNL     1      -1.124  -6.452   1.620  0.00  0.00    +0.059 C 
ATOM     16  O   UNL     1      -3.829  -9.159   0.309  0.00  0.00    -0.292 OA
ATOM     17  H   UNL     1      -0.946 -11.296   3.115  0.00  0.00    +0.147 HD
ATOM     18  H   UNL     1       0.469  -7.814   3.217  0.00  0.00    +0.152 HD
ENDROOT
BRANCH   1  22
ATOM     19  C   UNL     1      -2.561  -1.965  -0.057  0.00  0.00    +0.013 A 
ATOM     20  C   UNL     1      -1.884  -2.658  -1.043  0.00  0.00    +0.022 A 
ATOM     21  C   UNL     1      -1.675  -4.019  -0.912  0.00  0.00    +0.006 A 
ATOM     22  C   UNL     1      -2.144  -4.686   0.204  0.00  0.00    -0.043 A 
ATOM     23  C   UNL     1      -2.821  -3.993   1.190  0.00  0.00    +0.006 A 
ATOM     24  C   UNL     1      -3.026  -2.631   1.062  0.00  0.00    +0.022 A 
BRANCH  19  25
ATOM     25  N   UNL     1      -2.772  -0.590  -0.189  0.00  0.00    -0.394 NA
ATOM     26  H   UNL     1      -3.275  -0.247   0.616  0.00  0.00    +0.126 HD
BRANCH  25  28
ATOM     27  C   UNL     1      -1.703   1.611  -0.305  0.00  0.00    +0.022 C 
ATOM     28  C   UNL     1      -1.477   0.097  -0.286  0.00  0.00    +0.081 C 
ENDBRANCH  25  28
BRANCH  25  29
ATOM     29  C   UNL     1      -3.557  -0.329  -1.403  0.00  0.00    +0.081 C 
ATOM     30  C   UNL     1      -4.952  -0.939  -1.250  0.00  0.00    +0.022 C 
ENDBRANCH  25  29
ENDBRANCH  19  25
ENDBRANCH   1  22
BRANCH   5  31
ATOM     31  C   UNL     1      -1.525 -10.886   0.057  0.00  0.00    -0.023 A 
ATOM     32  C   UNL     1      -2.478 -11.702  -0.524  0.00  0.00    +0.006 A 
ATOM     33  C   UNL     1      -2.267 -12.219  -1.789  0.00  0.00    +0.000 A 
ATOM     34  C   UNL     1      -1.103 -11.919  -2.473  0.00  0.00    +0.000 A 
ATOM     35  C   UNL     1      -0.151 -11.102  -1.892  0.00  0.00    +0.000 A 
ATOM     36  C   UNL     1      -0.364 -10.582  -0.629  0.00  0.00    +0.006 A 
ENDBRANCH   5  31
TORSDOF 5
