REMARK  Name = ZINC20611523
REMARK  6 active torsions:
REMARK  status: ('A' for Active; 'I' for Inactive)
REMARK    1  A    between atoms: C_1  and  C_2
REMARK    2  A    between atoms: C_4  and  C_35
REMARK    3  A    between atoms: C_6  and  N_8
REMARK    4  A    between atoms: C_11  and  C_18
REMARK    5  A    between atoms: C_24  and  O_30
REMARK    6  A    between atoms: O_30  and  C_31
REMARK                            x       y       z     vdW  Elec       q    Type
REMARK                         _______ _______ _______ _____ _____    ______ ____
ROOT
ATOM      1  N   UNL     1       0.051  -2.798   2.395  0.00  0.00    -0.229 N 
ATOM      2  C   UNL     1       0.144  -2.130   3.561  0.00  0.00    +0.267 A 
ATOM      3  O   UNL     1       0.215  -0.913   3.568  0.00  0.00    -0.267 OA
ATOM      4  C   UNL     1       0.159  -2.846   4.771  0.00  0.00    +0.073 A 
ATOM      5  C   UNL     1       0.078  -4.206   4.737  0.00  0.00    +0.260 A 
ATOM      6  N   UNL     1      -0.016  -4.847   3.527  0.00  0.00    -0.274 N 
ATOM      7  H   UNL     1      -0.074  -5.815   3.498  0.00  0.00    +0.173 HD
ATOM      8  C   UNL     1      -0.034  -4.141   2.382  0.00  0.00    +0.337 A 
ATOM      9  O   UNL     1      -0.123  -4.725   1.319  0.00  0.00    -0.246 OA
ATOM     10  O   UNL     1       0.090  -4.918   5.884  0.00  0.00    -0.267 OA
ENDROOT
BRANCH   4  11
ATOM     11  C   UNL     1       0.263  -2.119   6.088  0.00  0.00    +0.018 C 
ATOM     12  C   UNL     1       1.597  -1.418   6.175  0.00  0.00    +0.011 A 
ATOM     13  C   UNL     1       1.737  -0.161   6.655  0.00  0.00    -0.022 A 
ATOM     14  C   UNL     1       3.141   0.173   6.582  0.00  0.00    +0.006 A 
ATOM     15  C   UNL     1       3.866   1.318   6.930  0.00  0.00    +0.056 A 
ATOM     16  C   UNL     1       5.236   1.280   6.714  0.00  0.00    +0.121 A 
ATOM     17  C   UNL     1       5.863   0.161   6.179  0.00  0.00    +0.047 A 
ATOM     18  C   UNL     1       5.162  -0.979   5.830  0.00  0.00    +0.030 A 
ATOM     19  C   UNL     1       3.785  -0.968   6.036  0.00  0.00    +0.047 A 
ATOM     20  N   UNL     1       2.819  -1.909   5.804  0.00  0.00    -0.359 N 
ATOM     21  H   UNL     1       2.977  -2.791   5.433  0.00  0.00    +0.166 HD
ATOM     22  C   UNL     1       0.579   0.665   7.157  0.00  0.00    +0.018 C 
ATOM     23  C   UNL     1      -0.611  -0.279   7.376  0.00  0.00    -0.076 C 
ATOM     24  N   UNL     1      -0.807  -1.114   6.183  0.00  0.00    +0.388 N 
ATOM     25  H   UNL     1      -0.790  -0.529   5.361  0.00  0.00    -0.084 HD
ATOM     26  H   UNL     1      -1.700  -1.581   6.241  0.00  0.00    -0.084 HD
BRANCH  16  27
ATOM     27  O   UNL     1       5.985   2.368   7.035  0.00  0.00    -0.495 OA
ATOM     28  C   UNL     1       7.391   2.281   6.795  0.00  0.00    +0.277 C 
ENDBRANCH  16  27
ENDBRANCH   4  11
BRANCH   1  34
ATOM     29  C   UNL     1       2.501  -0.799  -1.372  0.00  0.00    +0.044 C 
ATOM     30  C   UNL     1       1.209  -1.106  -0.660  0.00  0.00    -0.048 A 
ATOM     31  C   UNL     1       0.007  -0.687  -1.199  0.00  0.00    +0.006 A 
ATOM     32  C   UNL     1      -1.181  -0.967  -0.549  0.00  0.00    -0.048 A 
ATOM     33  C   UNL     1      -1.170  -1.666   0.642  0.00  0.00    +0.029 A 
ATOM     34  C   UNL     1       0.036  -2.089   1.186  0.00  0.00    +0.055 A 
ATOM     35  C   UNL     1       1.226  -1.811   0.528  0.00  0.00    +0.029 A 
ATOM     36  C   UNL     1      -2.489  -0.507  -1.139  0.00  0.00    +0.044 C 
ENDBRANCH   1  34
TORSDOF 3
