REMARK  Name = ZINC20145101
REMARK  7 active torsions:
REMARK  status: ('A' for Active; 'I' for Inactive)
REMARK    1  A    between atoms: C_4  and  N_26
REMARK    2  A    between atoms: C_6  and  C_7
REMARK    3  A    between atoms: C_8  and  C_9
REMARK    4  A    between atoms: N_11  and  C_12
REMARK    5  A    between atoms: C_14  and  C_19
REMARK    6  A    between atoms: C_22  and  C_24
REMARK    7  A    between atoms: C_24  and  O_25
REMARK                            x       y       z     vdW  Elec       q    Type
REMARK                         _______ _______ _______ _____ _____    ______ ____
ROOT
ATOM      1  C   UNL     1      -3.769  -0.725   0.622  0.00  0.00    +0.241 C 
ATOM      2  O   UNL     1      -3.820  -1.819   1.154  0.00  0.00    -0.270 OA
ATOM      3  N   UNL     1      -4.872  -0.203   0.049  0.00  0.00    -0.281 N 
ATOM      4  H   UNL     1      -4.854   0.700  -0.304  0.00  0.00    +0.155 HD
ENDROOT
BRANCH   3   5
ATOM      5  C   UNL     1      -6.043  -0.964  -0.035  0.00  0.00    +0.053 A 
ATOM      6  C   UNL     1      -5.973  -2.348  -0.030  0.00  0.00    +0.036 A 
ATOM      7  C   UNL     1      -7.143  -3.102  -0.114  0.00  0.00    +0.019 A 
ATOM      8  C   UNL     1      -8.379  -2.457  -0.204  0.00  0.00    +0.013 A 
ATOM      9  C   UNL     1      -8.439  -1.079  -0.209  0.00  0.00    +0.022 A 
ATOM     10  C   UNL     1      -7.279  -0.331  -0.120  0.00  0.00    +0.062 A 
ATOM     11 CL   UNL     1      -7.365   1.403  -0.120  0.00  0.00    -0.082 Cl
BRANCH   7  12
ATOM     12  C   UNL     1      -7.075  -4.578  -0.109  0.00  0.00    +0.135 A 
ATOM     13  C   UNL     1      -8.136  -5.425  -0.191  0.00  0.00    +0.050 A 
ATOM     14  C   UNL     1      -7.613  -6.734  -0.151  0.00  0.00    +0.047 A 
ATOM     15  C   UNL     1      -6.275  -6.622  -0.048  0.00  0.00    +0.131 A 
ATOM     16  O   UNL     1      -5.953  -5.318  -0.029  0.00  0.00    -0.457 OA
BRANCH  15  17
ATOM     17  C   UNL     1      -5.300  -7.769   0.027  0.00  0.00    +0.230 C 
BRANCH  17  18
ATOM     18  O   UNL     1      -4.889  -8.132  -1.292  0.00  0.00    -0.387 OA
ATOM     19  H   UNL     1      -4.259  -8.865  -1.320  0.00  0.00    +0.210 HD
ENDBRANCH  17  18
ENDBRANCH  15  17
ENDBRANCH   7  12
ENDBRANCH   3   5
BRANCH   1  21
ATOM     20  C   UNL     1      -1.408  -0.500   1.175  0.00  0.00    +0.013 C 
ATOM     21  C   UNL     1      -2.511   0.022   0.603  0.00  0.00    +0.068 C 
BRANCH  20  27
ATOM     22  C   UNL     1      -0.081   1.508   0.546  0.00  0.00    +0.009 A 
ATOM     23  C   UNL     1       1.107   2.207   0.533  0.00  0.00    +0.023 A 
ATOM     24  C   UNL     1       2.239   1.667   1.122  0.00  0.00    +0.071 A 
ATOM     25  C   UNL     1       2.185   0.422   1.729  0.00  0.00    +0.145 A 
ATOM     26  C   UNL     1       1.004  -0.288   1.750  0.00  0.00    +0.042 A 
ATOM     27  C   UNL     1      -0.143   0.251   1.157  0.00  0.00    -0.023 A 
ATOM     28 CL   UNL     1       3.731   2.554   1.100  0.00  0.00    -0.081 Cl
BRANCH  25  29
ATOM     29  N   UNL     1       3.399  -0.146   2.356  0.00  0.00    +0.058 N 
ATOM     30  O   UNL     1       3.354  -1.232   2.886  0.00  0.00    -0.126 OA
ATOM     31  O   UNL     1       4.436   0.475   2.339  0.00  0.00    -0.126 OA
ENDBRANCH  25  29
ENDBRANCH  20  27
ENDBRANCH   1  21
TORSDOF 7
