REMARK  Name = ZINC21140196
REMARK  6 active torsions:
REMARK  status: ('A' for Active; 'I' for Inactive)
REMARK    1  A    between atoms: C_1  and  C_2
REMARK    2  A    between atoms: C_2  and  C_4
REMARK    3  A    between atoms: C_2  and  S_19
REMARK    4  A    between atoms: N_6  and  C_7
REMARK    5  A    between atoms: C_10  and  N_13
REMARK    6  A    between atoms: S_19  and  C_20
REMARK                            x       y       z     vdW  Elec       q    Type
REMARK                         _______ _______ _______ _____ _____    ______ ____
ROOT
ATOM      1  C   UNL     1       7.107   1.419  -0.179  0.00  0.00    +0.230 C 
ATOM      2  O   UNL     1       6.624   0.343   0.107  0.00  0.00    -0.274 OA
ATOM      3  N   UNL     1       8.380   1.492  -0.613  0.00  0.00    -0.285 N 
ATOM      4  H   UNL     1       8.794   2.456  -0.944  0.00  0.00    +0.155 HD
ENDROOT
BRANCH   3   5
ATOM      5  C   UNL     1       9.178   0.341  -0.642  0.00  0.00    +0.034 A 
ATOM      6  C   UNL     1      10.537   0.430  -0.371  0.00  0.00    +0.025 A 
ATOM      7  C   UNL     1      11.322  -0.705  -0.395  0.00  0.00    +0.025 A 
ATOM      8  C   UNL     1      10.755  -1.936  -0.700  0.00  0.00    +0.030 A 
ATOM      9  C   UNL     1       9.397  -2.024  -0.976  0.00  0.00    +0.025 A 
ATOM     10  C   UNL     1       8.611  -0.889  -0.947  0.00  0.00    +0.025 A 
BRANCH   8  11
ATOM     11  N   UNL     1      11.551  -3.086  -0.728  0.00  0.00    -0.330 N 
ATOM     12  C   UNL     1      11.021  -4.115   0.175  0.00  0.00    +0.105 C 
ATOM     13  C   UNL     1      11.829  -5.404   0.011  0.00  0.00    +0.019 C 
ATOM     14  C   UNL     1      13.299  -5.125   0.332  0.00  0.00    +0.003 C 
ATOM     15  C   UNL     1      13.813  -4.016  -0.590  0.00  0.00    +0.019 C 
ATOM     16  C   UNL     1      12.948  -2.766  -0.408  0.00  0.00    +0.105 C 
ENDBRANCH   8  11
ENDBRANCH   3   5
BRANCH   1  18
ATOM     17  C   UNL     1       6.644   3.389   1.254  0.00  0.00    +0.029 C 
ATOM     18  C   UNL     1       6.282   2.673  -0.048  0.00  0.00    +0.137 C 
BRANCH  18  19
ATOM     19  S   UNL     1       4.520   2.239  -0.030  0.00  0.00    -0.073 S 
BRANCH  19  20
ATOM     20  C   UNL     1       3.697   3.797  -0.024  0.00  0.00    +0.198 A 
ATOM     21  N   UNL     1       4.281   4.967  -0.032  0.00  0.00    -0.121 NA
ATOM     22  N   UNL     1       3.282   5.950  -0.024  0.00  0.00    -0.121 NA
ATOM     23  C   UNL     1       2.134   5.341  -0.011  0.00  0.00    +0.202 A 
ATOM     24  N   UNL     1       2.324   3.985  -0.011  0.00  0.00    -0.264 N 
ATOM     25  C   UNL     1       1.189   3.160   0.003  0.00  0.00    +0.065 A 
ATOM     26  C   UNL     1       1.176   1.755   0.005  0.00  0.00    +0.027 A 
ATOM     27  C   UNL     1      -0.011   1.062   0.019  0.00  0.00    +0.002 A 
ATOM     28  C   UNL     1      -1.228   1.722   0.025  0.00  0.00    +0.001 A 
ATOM     29  C   UNL     1      -1.244   3.106   0.027  0.00  0.00    +0.017 A 
ATOM     30  C   UNL     1      -0.055   3.798   0.014  0.00  0.00    +0.040 A 
ATOM     31  S   UNL     1       0.366   5.524   0.007  0.00  0.00    -0.048 S 
ENDBRANCH  19  20
ENDBRANCH  18  19
ENDBRANCH   1  18
TORSDOF 5
