REMARK  Name = ZINC44900660
REMARK  5 active torsions:
REMARK  status: ('A' for Active; 'I' for Inactive)
REMARK    1  A    between atoms: C_1  and  C_2
REMARK    2  A    between atoms: C_13  and  C_15
REMARK    3  A    between atoms: C_16  and  C_28
REMARK    4  A    between atoms: N_18  and  C_21
REMARK    5  A    between atoms: C_19  and  C_20
REMARK                            x       y       z     vdW  Elec       q    Type
REMARK                         _______ _______ _______ _____ _____    ______ ____
ROOT
ATOM      1  C   UNL     1       0.181   1.526  -0.105  0.00  0.00    +0.068 C 
ATOM      2  C   UNL     1       0.126   0.021  -0.049  0.00  0.00    +0.066 A 
ATOM      3  C   UNL     1      -0.125  -0.834  -1.142  0.00  0.00    +0.032 A 
ATOM      4  C   UNL     1      -0.090  -2.106  -0.687  0.00  0.00    +0.125 A 
ATOM      5  N   UNL     1       0.173  -2.046   0.655  0.00  0.00    -0.263 N 
ATOM      6  H   UNL     1       0.255  -2.806   1.253  0.00  0.00    +0.190 HD
ATOM      7  N   UNL     1       0.309  -0.706   1.016  0.00  0.00    -0.177 NA
ATOM      8  N   UNL     1      -0.262  -3.312  -1.323  0.00  0.00    -0.270 N 
ATOM      9  C   UNL     1      -0.559  -3.677  -2.534  0.00  0.00    +0.228 C 
ATOM     10  O   UNL     1      -0.724  -4.870  -2.681  0.00  0.00    -0.275 OA
ATOM     11  C   UNL     1      -0.729  -2.870  -3.760  0.00  0.00    +0.166 C 
ATOM     12  S   UNL     1      -1.543  -1.296  -3.458  0.00  0.00    -0.138 S 
ATOM     13  C   UNL     1      -0.375  -0.307  -2.520  0.00  0.00    +0.115 C 
ATOM     14  H   UNL     1      -0.129  -4.068  -0.729  0.00  0.00    +0.156 HD
ENDROOT
BRANCH  13  15
ATOM     15  C   UNL     1      -0.909   1.098  -2.411  0.00  0.00    +0.014 A 
ATOM     16  C   UNL     1      -2.190   1.461  -1.982  0.00  0.00    +0.065 A 
ATOM     17  N   UNL     1      -2.281   2.766  -2.022  0.00  0.00    -0.171 NA
ATOM     18  N   UNL     1      -1.060   3.277  -2.479  0.00  0.00    -0.236 N 
ATOM     19  C   UNL     1      -0.232   2.232  -2.706  0.00  0.00    +0.047 A 
ATOM     20  C   UNL     1       1.189   2.316  -3.201  0.00  0.00    +0.066 C 
ATOM     21  C   UNL     1      -3.277   0.512  -1.548  0.00  0.00    +0.068 C 
BRANCH  18  22
ATOM     22  C   UNL     1      -0.749   4.632  -2.664  0.00  0.00    +0.066 A 
ATOM     23  C   UNL     1      -0.038   5.035  -3.786  0.00  0.00    +0.030 A 
ATOM     24  C   UNL     1       0.267   6.370  -3.966  0.00  0.00    +0.040 A 
ATOM     25  C   UNL     1      -0.137   7.306  -3.029  0.00  0.00    +0.124 A 
ATOM     26  C   UNL     1      -0.846   6.905  -1.908  0.00  0.00    +0.040 A 
ATOM     27  C   UNL     1      -1.157   5.572  -1.728  0.00  0.00    +0.030 A 
ATOM     28  F   UNL     1       0.162   8.611  -3.207  0.00  0.00    -0.205 F 
ENDBRANCH  18  22
ENDBRANCH  13  15
TORSDOF 2
