REMARK  Name = ZINC06239910
REMARK  8 active torsions:
REMARK  status: ('A' for Active; 'I' for Inactive)
REMARK    1  A    between atoms: C_1  and  O_2
REMARK    2  A    between atoms: O_2  and  C_3
REMARK    3  A    between atoms: C_6  and  S_9
REMARK    4  A    between atoms: S_9  and  N_12
REMARK    5  A    between atoms: N_12  and  C_13
REMARK    6  A    between atoms: N_12  and  C_30
REMARK    7  A    between atoms: C_13  and  C_14
REMARK    8  A    between atoms: C_30  and  C_31
REMARK                            x       y       z     vdW  Elec       q    Type
REMARK                         _______ _______ _______ _____ _____    ______ ____
ROOT
ATOM      1  N   UNL     1       1.458  -2.848  -5.739  0.00  0.00    -0.170 NA
ENDROOT
BRANCH   1   2
ATOM      2  S   UNL     1       2.618  -2.616  -4.580  0.00  0.00    +0.061 S 
ATOM      3  O   UNL     1       3.541  -1.676  -5.112  0.00  0.00    -0.153 OA
ATOM      4  O   UNL     1       3.015  -3.908  -4.139  0.00  0.00    -0.153 OA
BRANCH   2   8
ATOM      5  C   UNL     1       0.606  -0.607  -1.056  0.00  0.00    +0.120 A 
ATOM      6  C   UNL     1       1.163   0.161  -2.068  0.00  0.00    +0.047 A 
ATOM      7  C   UNL     1       1.782  -0.455  -3.139  0.00  0.00    +0.032 A 
ATOM      8  C   UNL     1       1.835  -1.835  -3.209  0.00  0.00    +0.106 A 
ATOM      9  C   UNL     1       1.275  -2.602  -2.204  0.00  0.00    +0.032 A 
ATOM     10  C   UNL     1       0.661  -1.992  -1.128  0.00  0.00    +0.047 A 
BRANCH   5  12
ATOM     11  C   UNL     1      -0.017   1.425   0.010  0.00  0.00    +0.277 C 
ATOM     12  O   UNL     1       0.002  -0.004   0.002  0.00  0.00    -0.495 OA
ENDBRANCH   5  12
ENDBRANCH   2   8
ENDBRANCH   1   2
BRANCH   1  13
ATOM     13  C   UNL     1       1.213  -1.814  -6.747  0.00  0.00    +0.150 C 
BRANCH  13  14
ATOM     14  C   UNL     1       2.005  -2.126  -7.990  0.00  0.00    +0.033 A 
ATOM     15  C   UNL     1       1.424  -2.808  -9.009  0.00  0.00    +0.020 A 
ATOM     16  C   UNL     1       2.218  -3.091 -10.205  0.00  0.00    +0.003 A 
ATOM     17  C   UNL     1       1.670  -3.787 -11.289  0.00  0.00    +0.059 A 
ATOM     18  C   UNL     1       2.444  -4.043 -12.400  0.00  0.00    +0.163 A 
ATOM     19  C   UNL     1       3.772  -3.610 -12.448  0.00  0.00    +0.164 A 
ATOM     20  C   UNL     1       4.323  -2.921 -11.380  0.00  0.00    +0.075 A 
ATOM     21  C   UNL     1       3.557  -2.656 -10.253  0.00  0.00    +0.053 A 
ATOM     22  N   UNL     1       4.090  -1.972  -9.180  0.00  0.00    -0.322 N 
ATOM     23  H   UNL     1       5.041  -1.664  -9.214  0.00  0.00    +0.169 HD
ATOM     24  C   UNL     1       3.350  -1.713  -8.088  0.00  0.00    +0.254 A 
ATOM     25  O   UNL     1       3.854  -1.106  -7.158  0.00  0.00    -0.268 OA
ATOM     26  O   UNL     1       4.542  -3.855 -13.543  0.00  0.00    -0.485 OA
ATOM     27  C   UNL     1       4.081  -4.870 -14.440  0.00  0.00    +0.270 C 
ATOM     28  C   UNL     1       2.585  -4.641 -14.698  0.00  0.00    +0.270 C 
ATOM     29  O   UNL     1       1.897  -4.724 -13.445  0.00  0.00    -0.485 OA
ENDBRANCH  13  14
ENDBRANCH   1  13
BRANCH   1  30
ATOM     30  C   UNL     1       0.677  -4.088  -5.757  0.00  0.00    +0.141 C 
BRANCH  30  31
ATOM     31  C   UNL     1      -0.638  -3.873  -5.004  0.00  0.00    +0.134 C 
ATOM     32  C   UNL     1      -1.467  -5.171  -5.016  0.00  0.00    +0.035 C 
ATOM     33  C   UNL     1      -1.672  -5.505  -3.519  0.00  0.00    +0.031 C 
ATOM     34  C   UNL     1      -1.431  -4.131  -2.844  0.00  0.00    +0.160 C 
ATOM     35  O   UNL     1      -0.367  -3.552  -3.629  0.00  0.00    -0.375 OA
ENDBRANCH  30  31
ENDBRANCH   1  30
TORSDOF 7
