REMARK  Name = ZINC35665005
REMARK  7 active torsions:
REMARK  status: ('A' for Active; 'I' for Inactive)
REMARK    1  A    between atoms: C_1  and  C_2
REMARK    2  A    between atoms: C_2  and  C_3
REMARK    3  A    between atoms: C_2  and  C_4
REMARK    4  A    between atoms: N_8  and  C_25
REMARK    5  A    between atoms: N_13  and  S_16
REMARK    6  A    between atoms: S_16  and  C_19
REMARK    7  A    between atoms: C_25  and  C_26
REMARK                            x       y       z     vdW  Elec       q    Type
REMARK                         _______ _______ _______ _____ _____    ______ ____
ROOT
ATOM      1  C   UNL     1      -1.292   0.060   0.326  0.00  0.00    +0.022 C 
ATOM      2  C   UNL     1      -2.056   0.203   1.625  0.00  0.00    +0.201 C 
ATOM      3  O   UNL     1      -2.041   1.173   2.352  0.00  0.00    -0.277 OA
ATOM      4  N   UNL     1      -2.756  -0.931   1.836  0.00  0.00    -0.313 N 
ATOM      5  C   UNL     1      -2.519  -1.865   0.733  0.00  0.00    +0.006 C 
ATOM      6  N   UNL     1      -1.300  -1.395   0.038  0.00  0.00    +0.401 N 
ATOM      7  C   UNL     1      -3.700  -1.850  -0.236  0.00  0.00    +0.023 C 
ATOM      8  C   UNL     1      -4.967  -2.300   0.501  0.00  0.00    +0.109 C 
ATOM      9  N   UNL     1      -4.709  -3.601   1.132  0.00  0.00    -0.177 NA
ATOM     10  C   UNL     1      -3.549  -3.738   2.023  0.00  0.00    +0.109 C 
ATOM     11  C   UNL     1      -2.295  -3.276   1.274  0.00  0.00    +0.023 C 
ATOM     12  H   UNL     1      -1.367  -1.561  -0.955  0.00  0.00    -0.082 HD
ATOM     13  H   UNL     1      -0.479  -1.839   0.420  0.00  0.00    -0.082 HD
ENDROOT
BRANCH   1  15
ATOM     14  C   UNL     1       0.127   2.054   0.830  0.00  0.00    +0.006 C 
ATOM     15  C   UNL     1       0.144   0.561   0.495  0.00  0.00    -0.023 C 
ATOM     16  C   UNL     1       0.823  -0.209   1.631  0.00  0.00    +0.006 C 
ENDBRANCH   1  15
BRANCH   9  17
ATOM     17  S   UNL     1      -5.708  -4.890   0.844  0.00  0.00    +0.061 S 
ATOM     18  O   UNL     1      -5.567  -5.769   1.952  0.00  0.00    -0.153 OA
ATOM     19  O   UNL     1      -6.964  -4.352   0.454  0.00  0.00    -0.153 OA
BRANCH  17  20
ATOM     20  C   UNL     1      -5.068  -5.743  -0.559  0.00  0.00    +0.105 A 
ATOM     21  C   UNL     1      -5.484  -5.392  -1.830  0.00  0.00    +0.028 A 
ATOM     22  C   UNL     1      -4.981  -6.061  -2.930  0.00  0.00    +0.002 A 
ATOM     23  C   UNL     1      -4.063  -7.080  -2.760  0.00  0.00    +0.000 A 
ATOM     24  C   UNL     1      -3.646  -7.430  -1.489  0.00  0.00    +0.002 A 
ATOM     25  C   UNL     1      -4.145  -6.758  -0.389  0.00  0.00    +0.028 A 
ENDBRANCH  17  20
ENDBRANCH   9  17
BRANCH   4  26
ATOM     26  C   UNL     1      -3.620  -1.188   2.991  0.00  0.00    +0.109 C 
BRANCH  26  27
ATOM     27  C   UNL     1      -2.773  -1.700   4.158  0.00  0.00    +0.006 C 
ATOM     28  C   UNL     1      -3.138  -3.062   4.751  0.00  0.00    +0.005 C 
ATOM     29  C   UNL     1      -3.441  -1.782   5.532  0.00  0.00    +0.005 C 
ENDBRANCH  26  27
ENDBRANCH   4  26
TORSDOF 5
