REMARK  Name = ZINC38685957
REMARK  12 active torsions:
REMARK  status: ('A' for Active; 'I' for Inactive)
REMARK    1  A    between atoms: C_1  and  C_2
REMARK    2  A    between atoms: C_2  and  O_3
REMARK    3  A    between atoms: O_3  and  C_4
REMARK    4  A    between atoms: C_7  and  C_10
REMARK    5  A    between atoms: C_15  and  O_24
REMARK    6  A    between atoms: C_19  and  N_23
REMARK    7  A    between atoms: C_20  and  C_21
REMARK    8  A    between atoms: O_24  and  C_25
REMARK    9  A    between atoms: C_25  and  C_27
REMARK   10  A    between atoms: C_27  and  C_28
REMARK   11  A    between atoms: C_31  and  O_34
REMARK   12  A    between atoms: O_34  and  C_35
REMARK                            x       y       z     vdW  Elec       q    Type
REMARK                         _______ _______ _______ _____ _____    ______ ____
ROOT
ATOM      1  C   UNL     1       1.100  -6.071  -1.903  0.00  0.00    +0.098 C 
ATOM      2  C   UNL     1       2.557  -6.447  -1.941  0.00  0.00    +0.008 A 
ATOM      3  C   UNL     1       3.305  -6.392  -0.778  0.00  0.00    +0.012 A 
ATOM      4  C   UNL     1       4.643  -6.732  -0.793  0.00  0.00    +0.047 A 
ATOM      5  C   UNL     1       5.243  -7.133  -1.979  0.00  0.00    +0.135 A 
ATOM      6  C   UNL     1       4.497  -7.189  -3.145  0.00  0.00    +0.093 A 
ATOM      7  C   UNL     1       3.151  -6.846  -3.128  0.00  0.00    +0.138 A 
ATOM      8  O   UNL     1       2.436  -6.907  -4.278  0.00  0.00    -0.441 OA
ATOM      9  C   UNL     1       1.094  -6.962  -4.230  0.00  0.00    +0.199 C 
ATOM     10  C   UNL     1       0.403  -6.580  -3.134  0.00  0.00    +0.098 C 
ENDROOT
BRANCH   1  14
ATOM     11  C   UNL     1       0.739  -1.817  -1.727  0.00  0.00    +0.121 A 
ATOM     12  C   UNL     1       0.221  -2.601  -0.706  0.00  0.00    +0.046 A 
ATOM     13  C   UNL     1       0.339  -3.976  -0.766  0.00  0.00    +0.008 A 
ATOM     14  C   UNL     1       0.972  -4.571  -1.841  0.00  0.00    -0.034 A 
ATOM     15  C   UNL     1       1.489  -3.792  -2.860  0.00  0.00    +0.008 A 
ATOM     16  C   UNL     1       1.369  -2.417  -2.808  0.00  0.00    +0.046 A 
BRANCH  11  17
ATOM     17  O   UNL     1       0.624  -0.464  -1.671  0.00  0.00    -0.492 OA
BRANCH  17  19
ATOM     18  C   UNL     1      -0.070   1.610  -0.643  0.00  0.00    +0.048 C 
ATOM     19  C   UNL     1      -0.037   0.085  -0.529  0.00  0.00    +0.225 C 
ENDBRANCH  17  19
ENDBRANCH  11  17
ENDBRANCH   1  14
BRANCH   9  20
ATOM     20  N   UNL     1       0.407  -7.420  -5.326  0.00  0.00    -0.328 N 
ATOM     21  H   UNL     1       0.890  -7.697  -6.121  0.00  0.00    +0.145 HD
ATOM     22  H   UNL     1      -0.562  -7.466  -5.307  0.00  0.00    +0.145 HD
ENDBRANCH   9  20
BRANCH  10  23
ATOM     23  C   UNL     1      -1.026  -6.663  -3.147  0.00  0.00    +0.101 C 
ATOM     24  N   UNL     1      -2.160  -6.729  -3.158  0.00  0.00    -0.191 NA
ENDBRANCH  10  23
BRANCH   5  25
ATOM     25  O   UNL     1       6.560  -7.468  -1.996  0.00  0.00    -0.425 OA
BRANCH  25  26
ATOM     26  C   UNL     1       7.410  -6.651  -2.638  0.00  0.00    +0.317 C 
ATOM     27  O   UNL     1       7.016  -5.600  -3.087  0.00  0.00    -0.250 OA
BRANCH  26  28
ATOM     28  C   UNL     1       8.857  -7.042  -2.797  0.00  0.00    +0.156 C 
BRANCH  28  29
ATOM     29  C   UNL     1       9.590  -5.961  -3.546  0.00  0.00    -0.037 A 
ATOM     30  C   UNL     1       9.661  -6.003  -4.927  0.00  0.00    +0.008 A 
ATOM     31  C   UNL     1      10.334  -5.013  -5.616  0.00  0.00    +0.046 A 
ATOM     32  C   UNL     1      10.938  -3.975  -4.923  0.00  0.00    +0.120 A 
ATOM     33  C   UNL     1      10.866  -3.934  -3.538  0.00  0.00    +0.046 A 
ATOM     34  C   UNL     1      10.187  -4.924  -2.853  0.00  0.00    +0.008 A 
BRANCH  32  35
ATOM     35  O   UNL     1      11.601  -3.000  -5.599  0.00  0.00    -0.495 OA
ATOM     36  C   UNL     1      12.199  -1.962  -4.820  0.00  0.00    +0.277 C 
ENDBRANCH  32  35
ENDBRANCH  28  29
ENDBRANCH  26  28
ENDBRANCH  25  26
ENDBRANCH   5  25
TORSDOF 10
