REMARK  Name = ZINC38705368
REMARK  12 active torsions:
REMARK  status: ('A' for Active; 'I' for Inactive)
REMARK    1  A    between atoms: C_1  and  C_2
REMARK    2  A    between atoms: C_4  and  C_34
REMARK    3  A    between atoms: C_5  and  C_9
REMARK    4  A    between atoms: C_6  and  O_8
REMARK    5  A    between atoms: N_17  and  C_30
REMARK    6  A    between atoms: C_18  and  C_20
REMARK    7  A    between atoms: C_22  and  O_28
REMARK    8  A    between atoms: C_23  and  O_27
REMARK    9  A    between atoms: O_28  and  C_29
REMARK   10  A    between atoms: C_30  and  C_31
REMARK   11  A    between atoms: C_31  and  C_32
REMARK   12  A    between atoms: C_32  and  O_33
REMARK                            x       y       z     vdW  Elec       q    Type
REMARK                         _______ _______ _______ _____ _____    ______ ____
ROOT
ATOM      1  C   UNL     1       0.108  -4.358  -0.125  0.00  0.00    +0.102 A 
ATOM      2  C   UNL     1       0.200  -5.157   1.020  0.00  0.00    +0.035 A 
ATOM      3  C   UNL     1       0.169  -6.463   0.571  0.00  0.00    +0.126 A 
ATOM      4  N   UNL     1       0.062  -6.394  -0.789  0.00  0.00    -0.272 N 
ATOM      5  H   UNL     1       0.017  -7.159  -1.384  0.00  0.00    +0.189 HD
ATOM      6  N   UNL     1       0.023  -5.165  -1.164  0.00  0.00    -0.173 NA
ATOM      7  C   UNL     1       0.262  -7.357   1.730  0.00  0.00    +0.265 C 
ATOM      8  O   UNL     1       0.261  -8.572   1.671  0.00  0.00    -0.268 OA
ATOM      9  N   UNL     1       0.349  -6.643   2.867  0.00  0.00    -0.285 N 
ATOM     10  C   UNL     1       0.318  -5.217   2.518  0.00  0.00    +0.141 C 
ENDROOT
BRANCH   1  15
ATOM     11  C   UNL     1       0.081   1.403  -0.275  0.00  0.00    +0.044 C 
ATOM     12  C   UNL     1       0.086  -0.103  -0.234  0.00  0.00    -0.047 A 
ATOM     13  C   UNL     1       0.945  -0.812  -1.055  0.00  0.00    +0.007 A 
ATOM     14  C   UNL     1       0.956  -2.192  -1.023  0.00  0.00    -0.037 A 
ATOM     15  C   UNL     1       0.100  -2.874  -0.162  0.00  0.00    +0.047 A 
ATOM     16  C   UNL     1      -0.766  -2.155   0.666  0.00  0.00    +0.127 A 
ATOM     17  C   UNL     1      -0.763  -0.770   0.628  0.00  0.00    +0.049 A 
ATOM     18  C   UNL     1       1.893  -2.959  -1.920  0.00  0.00    +0.044 C 
BRANCH  16  19
ATOM     19  O   UNL     1      -1.605  -2.813   1.509  0.00  0.00    -0.506 OA
ATOM     20  H   UNL     1      -1.262  -2.911   2.408  0.00  0.00    +0.292 HD
ENDBRANCH  16  19
ENDBRANCH   1  15
BRANCH  10  21
ATOM     21  C   UNL     1       1.591  -4.545   2.966  0.00  0.00    -0.018 A 
ATOM     22  C   UNL     1       1.534  -3.336   3.634  0.00  0.00    +0.055 A 
ATOM     23  C   UNL     1       2.703  -2.717   4.046  0.00  0.00    +0.163 A 
ATOM     24  C   UNL     1       3.933  -3.314   3.787  0.00  0.00    +0.173 A 
ATOM     25  C   UNL     1       3.982  -4.527   3.117  0.00  0.00    +0.063 A 
ATOM     26  C   UNL     1       2.811  -5.142   2.712  0.00  0.00    +0.025 A 
ATOM     27 BR   UNL     1       5.651  -5.343   2.762  0.00  0.00    -0.046 Br
BRANCH  24  28
ATOM     28  O   UNL     1       5.083  -2.710   4.189  0.00  0.00    -0.503 OA
ATOM     29  H   UNL     1       5.370  -2.963   5.077  0.00  0.00    +0.292 HD
ENDBRANCH  24  28
BRANCH  23  30
ATOM     30  O   UNL     1       2.649  -1.527   4.703  0.00  0.00    -0.491 OA
ATOM     31  C   UNL     1       1.352  -0.972   4.934  0.00  0.00    +0.277 C 
ENDBRANCH  23  30
ENDBRANCH  10  21
BRANCH   9  32
ATOM     32  C   UNL     1       0.455  -7.194   4.220  0.00  0.00    +0.111 C 
BRANCH  32  33
ATOM     33  C   UNL     1       1.930  -7.382   4.580  0.00  0.00    +0.047 C 
BRANCH  33  34
ATOM     34  C   UNL     1       2.041  -7.957   5.993  0.00  0.00    +0.157 C 
BRANCH  34  35
ATOM     35  O   UNL     1       3.419  -8.133   6.329  0.00  0.00    -0.395 OA
ATOM     36  H   UNL     1       3.565  -8.495   7.214  0.00  0.00    +0.209 HD
ENDBRANCH  34  35
ENDBRANCH  33  34
ENDBRANCH  32  33
ENDBRANCH   9  32
TORSDOF 9
