REMARK  Name = ZINC23274109
REMARK  13 active torsions:
REMARK  status: ('A' for Active; 'I' for Inactive)
REMARK    1  A    between atoms: C_1  and  C_2
REMARK    2  A    between atoms: C_2  and  O_3
REMARK    3  A    between atoms: O_3  and  C_4
REMARK    4  A    between atoms: C_4  and  C_6
REMARK    5  A    between atoms: C_7  and  C_28
REMARK    6  A    between atoms: C_8  and  C_13
REMARK    7  A    between atoms: C_11  and  C_12
REMARK    8  A    between atoms: C_13  and  C_15
REMARK    9  A    between atoms: C_15  and  C_17
REMARK   10  A    between atoms: C_15  and  S_18
REMARK   11  A    between atoms: S_18  and  C_19
REMARK   12  A    between atoms: C_22  and  C_26
REMARK   13  A    between atoms: C_23  and  N_25
REMARK                            x       y       z     vdW  Elec       q    Type
REMARK                         _______ _______ _______ _____ _____    ______ ____
ROOT
ATOM      1  C   UNL     1      -1.388  -5.397  -1.488  0.00  0.00    +0.192 C 
ATOM      2  O   UNL     1      -1.396  -5.297  -2.698  0.00  0.00    -0.289 OA
ENDROOT
BRANCH   1   5
ATOM      3  C   UNL     1      -1.247  -2.104   0.003  0.00  0.00    +0.083 A 
ATOM      4  C   UNL     1      -1.291  -2.935  -1.137  0.00  0.00    -0.008 A 
ATOM      5  C   UNL     1      -1.336  -4.235  -0.682  0.00  0.00    +0.087 A 
ATOM      6  N   UNL     1      -1.321  -4.205   0.698  0.00  0.00    -0.355 N 
ATOM      7  H   UNL     1      -1.356  -5.145   1.269  0.00  0.00    +0.166 HD
ATOM      8  C   UNL     1      -1.262  -2.931   1.112  0.00  0.00    +0.028 A 
ATOM      9  C   UNL     1      -1.223  -2.475   2.548  0.00  0.00    +0.064 C 
ATOM     10  C   UNL     1      -1.287  -2.487  -2.576  0.00  0.00    +0.047 C 
BRANCH   3  11
ATOM     11  C   UNL     1      -1.190  -0.632   0.010  0.00  0.00    +0.341 C 
ATOM     12  O   UNL     1      -2.218   0.016   0.023  0.00  0.00    -0.245 OA
BRANCH  11  13
ATOM     13  O   UNL     1       0.002  -0.004   0.002  0.00  0.00    -0.461 OA
BRANCH  13  15
ATOM     14  C   UNL     1       1.418   1.977  -0.001  0.00  0.00    +0.048 C 
ATOM     15  C   UNL     1      -0.018   1.448   0.010  0.00  0.00    +0.229 C 
ENDBRANCH  13  15
ENDBRANCH  11  13
ENDBRANCH   3  11
ENDBRANCH   1   5
BRANCH   1  16
ATOM     16  C   UNL     1      -1.434  -6.759  -0.845  0.00  0.00    +0.124 C 
ATOM     17  C   UNL     1      -0.011  -7.221  -0.526  0.00  0.00    +0.028 C 
BRANCH  16  18
ATOM     18  S   UNL     1      -2.212  -7.936  -1.978  0.00  0.00    -0.075 S 
BRANCH  18  19
ATOM     19  C   UNL     1      -2.272  -9.362  -0.945  0.00  0.00    +0.191 A 
ATOM     20  N   UNL     1      -1.794  -9.281   0.291  0.00  0.00    -0.229 NA
ATOM     21  C   UNL     1      -1.818 -10.324   1.101  0.00  0.00    +0.136 A 
ATOM     22  C   UNL     1      -2.358 -11.530   0.641  0.00  0.00    +0.109 A 
ATOM     23  C   UNL     1      -2.856 -11.578  -0.679  0.00  0.00    +0.138 A 
ATOM     24  N   UNL     1      -2.797 -10.481  -1.424  0.00  0.00    -0.206 NA
BRANCH  23  25
ATOM     25  N   UNL     1      -3.398 -12.742  -1.184  0.00  0.00    -0.342 N 
ATOM     26  H   UNL     1      -3.784 -12.768  -2.214  0.00  0.00    +0.144 HD
ATOM     27  H   UNL     1      -3.446 -13.644  -0.556  0.00  0.00    +0.144 HD
ENDBRANCH  23  25
BRANCH  22  28
ATOM     28  C   UNL     1      -2.404 -12.685   1.487  0.00  0.00    +0.104 C 
ATOM     29  N   UNL     1      -2.441 -13.601   2.158  0.00  0.00    -0.191 NA
ENDBRANCH  22  28
ENDBRANCH  18  19
ENDBRANCH  16  18
ENDBRANCH   1  16
TORSDOF 9
