REMARK  Name = ZINC16607990
REMARK  7 active torsions:
REMARK  status: ('A' for Active; 'I' for Inactive)
REMARK    1  A    between atoms: C_1  and  C_2
REMARK    2  A    between atoms: C_11  and  C_13
REMARK    3  A    between atoms: C_16  and  N_19
REMARK    4  A    between atoms: N_19  and  C_20
REMARK    5  A    between atoms: N_19  and  C_21
REMARK    6  A    between atoms: C_25  and  C_27
REMARK    7  A    between atoms: C_25  and  C_28
REMARK                            x       y       z     vdW  Elec       q    Type
REMARK                         _______ _______ _______ _____ _____    ______ ____
ROOT
ATOM      1  C   UNL     1       1.397   2.329   4.999  0.00  0.00    +0.063 C 
ATOM      2  C   UNL     1       1.682   1.848   3.599  0.00  0.00    +0.040 C 
ATOM      3  N   UNL     1       2.408   0.846   3.296  0.00  0.00    -0.197 NA
ATOM      4  N   UNL     1       2.451   0.591   1.929  0.00  0.00    -0.282 N 
ATOM      5  C   UNL     1       1.994   1.813   1.246  0.00  0.00    +0.047 C 
ATOM      6  C   UNL     1       1.150   2.484   2.322  0.00  0.00    +0.065 C 
ATOM      7  C   UNL     1      -0.320   2.155   2.216  0.00  0.00    -0.055 C 
ATOM      8  C   UNL     1      -0.832   1.541   1.179  0.00  0.00    -0.015 C 
ATOM      9  C   UNL     1      -0.013   1.086   0.008  0.00  0.00    -0.004 C 
ATOM     10  C   UNL     1      -2.277   1.254   1.121  0.00  0.00    +0.158 C 
ATOM     11  O   UNL     1      -2.784   0.841   0.099  0.00  0.00    -0.292 OA
ATOM     12  C   UNL     1      -3.115   1.481   2.357  0.00  0.00    +0.086 C 
ATOM     13  C   UNL     1      -2.629   2.796   2.985  0.00  0.00    -0.024 C 
ATOM     14  C   UNL     1      -1.178   2.578   3.388  0.00  0.00    +0.038 C 
ATOM     15  C   UNL     1      -2.754   3.931   1.967  0.00  0.00    +0.011 C 
ATOM     16  C   UNL     1      -3.469   3.118   4.223  0.00  0.00    +0.011 C 
ATOM     17  H   UNL     1       2.739  -0.235   1.509  0.00  0.00    +0.166 HD
ATOM     18  N   UNL     1       1.378   1.568  -0.058  0.00  0.00    +0.400 N 
ATOM     19  H   UNL     1       1.939   0.864  -0.551  0.00  0.00    -0.082 HD
ATOM     20  H   UNL     1       1.388   2.447  -0.589  0.00  0.00    -0.082 HD
ENDROOT
BRANCH   9  21
ATOM     21  C   UNL     1      -0.690   1.557  -1.253  0.00  0.00    -0.057 A 
ATOM     22  C   UNL     1      -0.490   2.850  -1.701  0.00  0.00    +0.004 A 
ATOM     23  C   UNL     1      -1.105   3.283  -2.860  0.00  0.00    +0.023 A 
ATOM     24  C   UNL     1      -1.932   2.422  -3.569  0.00  0.00    +0.029 A 
ATOM     25  C   UNL     1      -2.134   1.126  -3.113  0.00  0.00    +0.023 A 
ATOM     26  C   UNL     1      -1.513   0.697  -1.957  0.00  0.00    +0.004 A 
BRANCH  24  27
ATOM     27  N   UNL     1      -2.559   2.859  -4.739  0.00  0.00    -0.336 N 
ATOM     28  C   UNL     1      -3.431   1.949  -5.486  0.00  0.00    +0.129 C 
ATOM     29  C   UNL     1      -2.345   4.226  -5.218  0.00  0.00    +0.129 C 
ENDBRANCH  24  27
ENDBRANCH   9  21
TORSDOF 2
