REMARK  Name = ZINC16611519
REMARK  14 active torsions:
REMARK  status: ('A' for Active; 'I' for Inactive)
REMARK    1  A    between atoms: C_1  and  C_2
REMARK    2  A    between atoms: C_2  and  N_71
REMARK    3  A    between atoms: C_3  and  C_4
REMARK    4  A    between atoms: C_3  and  N_71
REMARK    5  A    between atoms: C_5  and  C_6
REMARK    6  A    between atoms: C_5  and  N_71
REMARK    7  A    between atoms: C_6  and  C_7
REMARK    8  A    between atoms: C_7  and  C_8
REMARK    9  A    between atoms: C_8  and  C_10
REMARK   10  A    between atoms: C_8  and  N_11
REMARK   11  A    between atoms: C_12  and  C_14
REMARK   12  A    between atoms: C_14  and  S_15
REMARK   13  A    between atoms: S_15  and  C_16
REMARK   14  A    between atoms: N_26  and  C_29
REMARK                            x       y       z     vdW  Elec       q    Type
REMARK                         _______ _______ _______ _____ _____    ______ ____
ROOT
ATOM      1  C   UNL     1      -0.756   2.580   0.081  0.00  0.00    +0.192 A 
ATOM      2  N   UNL     1       0.350   3.311   0.049  0.00  0.00    -0.207 NA
ATOM      3  C   UNL     1       1.528   2.769   0.343  0.00  0.00    +0.127 A 
ATOM      4  C   UNL     1       1.586   1.418   0.687  0.00  0.00    +0.083 A 
ATOM      5  C   UNL     1       0.409   0.691   0.708  0.00  0.00    +0.135 A 
ATOM      6  N   UNL     1      -0.731   1.295   0.404  0.00  0.00    -0.210 NA
ATOM      7 CL   UNL     1       0.425  -0.993   1.128  0.00  0.00    -0.062 Cl
ATOM      8  N   UNL     1       2.681   3.536   0.309  0.00  0.00    -0.312 N 
ATOM      9  C   UNL     1       3.382   3.491   1.601  0.00  0.00    +0.125 C 
ATOM     10  C   UNL     1       4.687   4.283   1.498  0.00  0.00    +0.124 C 
ATOM     11  N   UNL     1       4.387   5.669   1.113  0.00  0.00    -0.325 N 
ATOM     12  C   UNL     1       3.687   5.714  -0.178  0.00  0.00    +0.124 C 
ATOM     13  C   UNL     1       2.381   4.922  -0.076  0.00  0.00    +0.125 C 
ENDROOT
BRANCH  11  14
ATOM     14  C   UNL     1       5.551   6.443   1.079  0.00  0.00    +0.065 A 
ATOM     15  C   UNL     1       5.476   7.803   0.807  0.00  0.00    +0.026 A 
ATOM     16  C   UNL     1       6.627   8.565   0.778  0.00  0.00    +0.002 A 
ATOM     17  C   UNL     1       7.856   7.975   1.009  0.00  0.00    +0.003 A 
ATOM     18  C   UNL     1       7.937   6.620   1.275  0.00  0.00    +0.040 A 
ATOM     19  C   UNL     1       6.789   5.852   1.310  0.00  0.00    +0.144 A 
ATOM     20  F   UNL     1       6.868   4.528   1.569  0.00  0.00    -0.204 F 
ENDBRANCH  11  14
BRANCH   1  21
ATOM     21  S   UNL     1      -2.296   3.336  -0.323  0.00  0.00    -0.077 S 
BRANCH  21  22
ATOM     22  C   UNL     1      -3.403   1.917  -0.126  0.00  0.00    +0.173 C 
BRANCH  22  24
ATOM     23  N   UNL     1      -5.820   1.440  -0.347  0.00  0.00    -0.312 N 
ATOM     24  C   UNL     1      -4.817   2.338  -0.429  0.00  0.00    +0.224 C 
ATOM     25  O   UNL     1      -5.054   3.484  -0.747  0.00  0.00    -0.275 OA
ATOM     26  H   UNL     1      -5.630   0.524  -0.093  0.00  0.00    +0.149 HD
BRANCH  23  27
ATOM     27  C   UNL     1      -7.195   1.849  -0.642  0.00  0.00    +0.070 C 
ATOM     28  C   UNL     1      -7.828   2.452   0.614  0.00  0.00    +0.028 C 
BRANCH  27  29
ATOM     29  C   UNL     1      -8.006   0.630  -1.087  0.00  0.00    +0.020 C 
BRANCH  29  30
ATOM     30  C   UNL     1      -7.448   0.103  -2.410  0.00  0.00    -0.017 C 
BRANCH  30  31
ATOM     31  C   UNL     1      -8.258  -1.116  -2.856  0.00  0.00    -0.079 C 
BRANCH  31  32
ATOM     32  N   UNL     1      -7.721  -1.601  -4.145  0.00  0.00    +0.379 N 
ATOM     33  H   UNL     1      -7.671  -0.814  -4.802  0.00  0.00    -0.082 HD
BRANCH  32  35
ATOM     34  C   UNL     1      -6.393  -3.313  -2.956  0.00  0.00    -0.017 C 
ATOM     35  C   UNL     1      -6.364  -2.152  -3.951  0.00  0.00    -0.082 C 
ENDBRANCH  32  35
BRANCH  32  36
ATOM     36  C   UNL     1      -8.612  -2.639  -4.705  0.00  0.00    -0.082 C 
ATOM     37  C   UNL     1      -8.249  -2.856  -6.175  0.00  0.00    -0.017 C 
ENDBRANCH  32  36
ENDBRANCH  31  32
ENDBRANCH  30  31
ENDBRANCH  29  30
ENDBRANCH  27  29
ENDBRANCH  23  27
ENDBRANCH  22  24
ENDBRANCH  21  22
ENDBRANCH   1  21
TORSDOF 11
