REMARK  Name = ZINC36309423
REMARK  14 active torsions:
REMARK  status: ('A' for Active; 'I' for Inactive)
REMARK    1  A    between atoms: C_1  and  C_2
REMARK    2  A    between atoms: C_5  and  O_9
REMARK    3  A    between atoms: C_6  and  C_8
REMARK    4  A    between atoms: O_9  and  C_10
REMARK    5  A    between atoms: C_10  and  C_11
REMARK    6  A    between atoms: C_21  and  C_23
REMARK    7  A    between atoms: C_23  and  N_24
REMARK    8  A    between atoms: N_24  and  C_25
REMARK    9  A    between atoms: N_24  and  C_28
REMARK   10  A    between atoms: C_25  and  C_26
REMARK   11  A    between atoms: C_28  and  C_29
REMARK   12  A    between atoms: C_29  and  C_31
REMARK   13  A    between atoms: C_29  and  O_38
REMARK   14  A    between atoms: C_31  and  C_32
REMARK                            x       y       z     vdW  Elec       q    Type
REMARK                         _______ _______ _______ _____ _____    ______ ____
ROOT
ATOM      1  C   UNL     1       0.025  -7.199  -0.371  0.00  0.00    +0.144 C 
ATOM      2  C   UNL     1      -0.903  -7.879   0.633  0.00  0.00    -0.014 A 
ATOM      3  C   UNL     1      -2.259  -8.097   0.395  0.00  0.00    +0.013 A 
ATOM      4  C   UNL     1      -3.023  -8.702   1.333  0.00  0.00    +0.046 A 
ATOM      5  S   UNL     1      -1.836  -9.005   2.633  0.00  0.00    -0.101 S 
ATOM      6  C   UNL     1      -0.417  -8.306   1.830  0.00  0.00    -0.004 A 
ATOM      7  C   UNL     1       0.984  -8.211   2.339  0.00  0.00    +0.061 C 
ATOM      8  C   UNL     1       1.750  -7.190   1.484  0.00  0.00    +0.113 C 
ATOM      9  N   UNL     1       1.408  -7.420   0.071  0.00  0.00    -0.292 N 
ATOM     10  C   UNL     1       2.348  -7.830  -0.803  0.00  0.00    +0.200 C 
ATOM     11  O   UNL     1       2.055  -8.018  -1.965  0.00  0.00    -0.278 OA
ENDROOT
BRANCH   1  12
ATOM     12  C   UNL     1      -0.271  -5.698  -0.416  0.00  0.00    +0.256 C 
BRANCH  12  13
ATOM     13  O   UNL     1      -0.192  -5.158   0.904  0.00  0.00    -0.490 OA
BRANCH  13  18
ATOM     14  C   UNL     1      -1.180   0.358   1.473  0.00  0.00    +0.044 C 
ATOM     15  C   UNL     1      -0.915  -1.118   1.321  0.00  0.00    -0.050 A 
ATOM     16  C   UNL     1      -0.975  -1.704   0.070  0.00  0.00    +0.007 A 
ATOM     17  C   UNL     1      -0.733  -3.057  -0.072  0.00  0.00    +0.046 A 
ATOM     18  C   UNL     1      -0.430  -3.827   1.042  0.00  0.00    +0.124 A 
ATOM     19  C   UNL     1      -0.371  -3.236   2.295  0.00  0.00    -0.009 A 
ATOM     20  C   UNL     1      -0.609  -1.882   2.432  0.00  0.00    +0.010 A 
ATOM     21  C   UNL     1      -0.043  -4.070   3.507  0.00  0.00    +0.047 C 
ENDBRANCH  13  18
ENDBRANCH  12  13
ENDBRANCH   1  12
BRANCH  10  22
ATOM     22  C   UNL     1       3.764  -8.054  -0.338  0.00  0.00    +0.019 C 
BRANCH  22  23
ATOM     23  N   UNL     1       4.588  -8.494  -1.471  0.00  0.00    +0.389 N 
ATOM     24  H   UNL     1       4.170  -9.309  -1.895  0.00  0.00    -0.081 HD
BRANCH  23  25
ATOM     25  C   UNL     1       4.672  -7.415  -2.464  0.00  0.00    -0.051 C 
BRANCH  25  26
ATOM     26  C   UNL     1       5.233  -6.177  -1.814  0.00  0.00    -0.053 C 
ATOM     27  C   UNL     1       6.309  -5.610  -2.303  0.00  0.00    +0.002 C 
ENDBRANCH  25  26
ENDBRANCH  23  25
BRANCH  23  28
ATOM     28  C   UNL     1       5.937  -8.828  -0.995  0.00  0.00    -0.046 C 
BRANCH  28  29
ATOM     29  C   UNL     1       6.746  -9.438  -2.141  0.00  0.00    +0.102 C 
BRANCH  29  30
ATOM     30  O   UNL     1       6.150 -10.675  -2.539  0.00  0.00    -0.393 OA
ATOM     31  H   UNL     1       6.108 -11.336  -1.835  0.00  0.00    +0.210 HD
ENDBRANCH  29  30
BRANCH  29  32
ATOM     32  C   UNL     1       8.181  -9.691  -1.674  0.00  0.00    +0.064 C 
BRANCH  32  33
ATOM     33  C   UNL     1       9.009 -10.178  -2.836  0.00  0.00    -0.045 A 
ATOM     34  C   UNL     1       9.097 -11.531  -3.103  0.00  0.00    +0.004 A 
ATOM     35  C   UNL     1       9.856 -11.977  -4.169  0.00  0.00    +0.000 A 
ATOM     36  C   UNL     1      10.527 -11.069  -4.967  0.00  0.00    +0.000 A 
ATOM     37  C   UNL     1      10.438  -9.716  -4.701  0.00  0.00    +0.000 A 
ATOM     38  C   UNL     1       9.675  -9.270  -3.638  0.00  0.00    +0.004 A 
ENDBRANCH  32  33
ENDBRANCH  29  32
ENDBRANCH  28  29
ENDBRANCH  23  28
ENDBRANCH  22  23
ENDBRANCH  10  22
TORSDOF 12
