REMARK  Name = ZINC65581832
REMARK  7 active torsions:
REMARK  status: ('A' for Active; 'I' for Inactive)
REMARK    1  A    between atoms: C_1  and  C_2
REMARK    2  A    between atoms: C_2  and  C_3
REMARK    3  A    between atoms: C_3  and  C_4
REMARK    4  A    between atoms: C_4  and  C_5
REMARK    5  A    between atoms: C_5  and  C_6
REMARK    6  A    between atoms: C_5  and  N_21
REMARK    7  A    between atoms: N_8  and  C_9
REMARK                            x       y       z     vdW  Elec       q    Type
REMARK                         _______ _______ _______ _____ _____    ______ ____
ROOT
ATOM      1  C   UNL     1      -2.832  -4.095   0.132  0.00  0.00    +0.238 C 
ATOM      2  O   UNL     1      -2.978  -4.781  -0.858  0.00  0.00    -0.273 OA
ATOM      3  N   UNL     1      -2.640  -4.676   1.332  0.00  0.00    -0.283 N 
ATOM      4  H   UNL     1      -2.443  -4.131   2.110  0.00  0.00    +0.155 HD
ENDROOT
BRANCH   3   5
ATOM      5  C   UNL     1      -2.726  -6.070   1.458  0.00  0.00    +0.056 A 
ATOM      6  C   UNL     1      -3.481  -6.803   0.551  0.00  0.00    +0.074 A 
ATOM      7  C   UNL     1      -3.561  -8.179   0.680  0.00  0.00    +0.164 A 
ATOM      8  C   UNL     1      -2.891  -8.822   1.712  0.00  0.00    +0.163 A 
ATOM      9  C   UNL     1      -2.139  -8.091   2.616  0.00  0.00    +0.071 A 
ATOM     10  C   UNL     1      -2.053  -6.716   2.486  0.00  0.00    +0.066 A 
ATOM     11 CL   UNL     1      -1.106  -5.798   3.614  0.00  0.00    -0.082 Cl
ATOM     12  O   UNL     1      -2.977 -10.180   1.828  0.00  0.00    -0.488 OA
ATOM     13  C   UNL     1      -4.258 -10.695   2.196  0.00  0.00    +0.232 C 
ATOM     14  C   UNL     1      -5.148 -10.856   0.973  0.00  0.00    +0.082 C 
ATOM     15  C   UNL     1      -5.477  -9.523   0.319  0.00  0.00    +0.232 C 
ATOM     16  O   UNL     1      -4.297  -8.911  -0.205  0.00  0.00    -0.488 OA
ENDBRANCH   3   5
BRANCH   1  17
ATOM     17  C   UNL     1      -2.863  -2.593   0.018  0.00  0.00    +0.161 C 
BRANCH  17  18
ATOM     18  N   UNL     1      -3.537  -2.211  -1.225  0.00  0.00    -0.288 N 
ATOM     19  C   UNL     1      -3.043  -2.617  -2.412  0.00  0.00    +0.298 C 
ATOM     20  O   UNL     1      -2.038  -3.300  -2.450  0.00  0.00    -0.253 OA
ATOM     21  N   UNL     1      -3.663  -2.265  -3.555  0.00  0.00    -0.313 N 
ATOM     22  H   UNL     1      -4.339  -1.666  -1.195  0.00  0.00    +0.151 HD
ATOM     23  H   UNL     1      -4.465  -1.721  -3.525  0.00  0.00    +0.146 HD
ATOM     24  H   UNL     1      -3.308  -2.558  -4.409  0.00  0.00    +0.146 HD
ENDBRANCH  17  18
BRANCH  17  25
ATOM     25  C   UNL     1      -1.432  -2.052   0.009  0.00  0.00    +0.032 C 
BRANCH  25  26
ATOM     26  C   UNL     1      -1.465  -0.522   0.020  0.00  0.00    +0.002 C 
BRANCH  26  28
ATOM     27  C   UNL     1      -0.067   1.548   0.022  0.00  0.00    +0.004 C 
ATOM     28  C   UNL     1      -0.034   0.019   0.011  0.00  0.00    -0.003 C 
ENDBRANCH  26  28
ENDBRANCH  25  26
ENDBRANCH  17  25
ENDBRANCH   1  17
TORSDOF 6
