REMARK  Name = ZINC16883608
REMARK  12 active torsions:
REMARK  status: ('A' for Active; 'I' for Inactive)
REMARK    1  A    between atoms: C_1  and  C_2
REMARK    2  A    between atoms: C_5  and  C_9
REMARK    3  A    between atoms: C_6  and  C_8
REMARK    4  A    between atoms: C_9  and  C_10
REMARK    5  A    between atoms: C_11  and  C_36
REMARK    6  A    between atoms: N_14  and  C_17
REMARK    7  A    between atoms: C_17  and  C_18
REMARK    8  A    between atoms: C_21  and  O_26
REMARK    9  A    between atoms: C_22  and  O_24
REMARK   10  A    between atoms: O_24  and  C_25
REMARK   11  A    between atoms: O_26  and  C_27
REMARK   12  A    between atoms: N_28  and  C_29
REMARK                            x       y       z     vdW  Elec       q    Type
REMARK                         _______ _______ _______ _____ _____    ______ ____
ROOT
ATOM      1  C   UNL     1      -0.038   4.054  -0.324  0.00  0.00    +0.042 A 
ATOM      2  C   UNL     1       1.072   3.352  -0.694  0.00  0.00    +0.050 A 
ATOM      3  N   UNL     1       1.063   2.022  -0.662  0.00  0.00    -0.220 NA
ATOM      4  C   UNL     1      -0.005   1.353  -0.277  0.00  0.00    +0.203 A 
ATOM      5  N   UNL     1      -1.143   1.998   0.099  0.00  0.00    -0.276 N 
ATOM      6  C   UNL     1      -1.182   3.348   0.089  0.00  0.00    +0.259 A 
ATOM      7  O   UNL     1      -2.192   3.943   0.426  0.00  0.00    -0.267 OA
ATOM      8  N   UNL     1       0.029  -0.018  -0.259  0.00  0.00    -0.285 N 
ATOM      9  C   UNL     1       2.311   4.085  -1.140  0.00  0.00    +0.066 C 
ATOM     10  H   UNL     1      -0.776  -0.520  -0.059  0.00  0.00    +0.155 HD
ENDROOT
BRANCH   8  11
ATOM     11  C   UNL     1       1.224  -0.691  -0.531  0.00  0.00    +0.034 A 
ATOM     12  C   UNL     1       1.207  -1.871  -1.263  0.00  0.00    +0.025 A 
ATOM     13  C   UNL     1       2.389  -2.531  -1.535  0.00  0.00    +0.022 A 
ATOM     14  C   UNL     1       3.589  -2.024  -1.068  0.00  0.00    +0.041 A 
ATOM     15  C   UNL     1       3.609  -0.852  -0.333  0.00  0.00    +0.022 A 
ATOM     16  C   UNL     1       2.430  -0.185  -0.063  0.00  0.00    +0.025 A 
ATOM     17 CL   UNL     1       5.073  -2.860  -1.405  0.00  0.00    -0.084 Cl
ENDBRANCH   8  11
BRANCH   1  18
ATOM     18  C   UNL     1      -0.038   5.561  -0.357  0.00  0.00    +0.077 C 
BRANCH  18  23
ATOM     19  C   UNL     1      -2.215   7.376  -5.393  0.00  0.00    +0.044 C 
ATOM     20  C   UNL     1      -1.647   6.903  -4.080  0.00  0.00    -0.050 A 
ATOM     21  C   UNL     1      -1.438   5.553  -3.863  0.00  0.00    +0.003 A 
ATOM     22  C   UNL     1      -0.918   5.119  -2.658  0.00  0.00    +0.004 A 
ATOM     23  C   UNL     1      -0.606   6.034  -1.670  0.00  0.00    -0.040 A 
ATOM     24  C   UNL     1      -0.819   7.383  -1.885  0.00  0.00    -0.047 A 
ATOM     25  C   UNL     1      -1.334   7.818  -3.092  0.00  0.00    +0.007 A 
ATOM     26  C   UNL     1      -0.484   8.380  -0.806  0.00  0.00    +0.044 C 
ENDBRANCH  18  23
ENDBRANCH   1  18
BRANCH   5  27
ATOM     27  C   UNL     1      -2.319   1.232   0.517  0.00  0.00    +0.163 C 
BRANCH  27  28
ATOM     28  C   UNL     1      -2.263   0.997   2.005  0.00  0.00    -0.024 A 
ATOM     29  C   UNL     1      -2.837   1.911   2.869  0.00  0.00    +0.009 A 
ATOM     30  C   UNL     1      -2.788   1.701   4.235  0.00  0.00    +0.050 A 
ATOM     31  C   UNL     1      -2.163   0.572   4.740  0.00  0.00    +0.162 A 
ATOM     32  C   UNL     1      -1.585  -0.348   3.870  0.00  0.00    +0.162 A 
ATOM     33  C   UNL     1      -1.642  -0.134   2.502  0.00  0.00    +0.054 A 
BRANCH  32  34
ATOM     34  O   UNL     1      -0.971  -1.457   4.361  0.00  0.00    -0.491 OA
ATOM     35  C   UNL     1      -0.400  -2.358   3.409  0.00  0.00    +0.277 C 
ENDBRANCH  32  34
BRANCH  31  36
ATOM     36  O   UNL     1      -2.114   0.363   6.083  0.00  0.00    -0.491 OA
ATOM     37  C   UNL     1      -2.728   1.349   6.915  0.00  0.00    +0.277 C 
ENDBRANCH  31  36
ENDBRANCH  27  28
ENDBRANCH   5  27
TORSDOF 7
