REMARK  Name = ZINC14458229
REMARK  7 active torsions:
REMARK  status: ('A' for Active; 'I' for Inactive)
REMARK    1  A    between atoms: C_1  and  C_2
REMARK    2  A    between atoms: C_5  and  C_8
REMARK    3  A    between atoms: C_19  and  S_24
REMARK    4  A    between atoms: S_24  and  N_27
REMARK    5  A    between atoms: N_27  and  C_28
REMARK    6  A    between atoms: C_31  and  O_34
REMARK    7  A    between atoms: O_34  and  C_35
REMARK                            x       y       z     vdW  Elec       q    Type
REMARK                         _______ _______ _______ _____ _____    ______ ____
ROOT
ATOM      1  C   UNL     1       2.802  -0.064   0.741  0.00  0.00    +0.105 C 
ATOM      2  C   UNL     1       3.568   0.072   2.045  0.00  0.00    +0.029 C 
ATOM      3  C   UNL     1       3.129  -0.823   3.212  0.00  0.00    +0.033 C 
ATOM      4  C   UNL     1       4.442  -0.996   3.978  0.00  0.00    -0.030 C 
ATOM      5  C   UNL     1       5.472  -0.845   3.154  0.00  0.00    -0.023 C 
ATOM      6  C   UNL     1       4.952  -0.597   1.785  0.00  0.00    +0.049 C 
ATOM      7  C   UNL     1       5.684   0.239   0.809  0.00  0.00    -0.018 A 
ATOM      8  C   UNL     1       7.053   0.391   0.844  0.00  0.00    +0.034 A 
ATOM      9  C   UNL     1       7.696   1.153  -0.113  0.00  0.00    +0.109 A 
ATOM     10  C   UNL     1       6.964   1.768  -1.112  0.00  0.00    +0.030 A 
ATOM     11  C   UNL     1       5.592   1.629  -1.152  0.00  0.00    +0.025 A 
ATOM     12  C   UNL     1       4.935   0.870  -0.191  0.00  0.00    +0.031 A 
ATOM     13  N   UNL     1       3.541   0.756  -0.243  0.00  0.00    -0.336 N 
ATOM     14  H   UNL     1       3.050   1.224  -0.938  0.00  0.00    +0.147 HD
ENDROOT
BRANCH   1  19
ATOM     15  C   UNL     1      -2.580   1.943   1.373  0.00  0.00    +0.044 C 
ATOM     16  C   UNL     1      -1.177   1.420   1.208  0.00  0.00    -0.050 A 
ATOM     17  C   UNL     1      -0.947   0.057   1.175  0.00  0.00    +0.004 A 
ATOM     18  C   UNL     1       0.341  -0.423   1.029  0.00  0.00    +0.006 A 
ATOM     19  C   UNL     1       1.398   0.460   0.906  0.00  0.00    -0.027 A 
ATOM     20  C   UNL     1       1.167   1.822   0.934  0.00  0.00    +0.006 A 
ATOM     21  C   UNL     1      -0.120   2.302   1.085  0.00  0.00    +0.004 A 
ENDBRANCH   1  19
BRANCH   9  22
ATOM     22  S   UNL     1       9.447   1.341  -0.060  0.00  0.00    +0.072 S 
ATOM     23  O   UNL     1       9.944   0.290   0.757  0.00  0.00    -0.150 OA
ATOM     24  O   UNL     1       9.876   1.530  -1.402  0.00  0.00    -0.150 OA
BRANCH  22  25
ATOM     25  N   UNL     1       9.764   2.755   0.742  0.00  0.00    -0.216 N 
ATOM     26  H   UNL     1      10.205   3.486   0.281  0.00  0.00    +0.174 HD
BRANCH  25  27
ATOM     27  C   UNL     1       9.395   2.895   2.084  0.00  0.00    +0.048 A 
ATOM     28  C   UNL     1       8.309   3.690   2.427  0.00  0.00    +0.028 A 
ATOM     29  C   UNL     1       7.943   3.824   3.752  0.00  0.00    +0.047 A 
ATOM     30  C   UNL     1       8.666   3.173   4.741  0.00  0.00    +0.120 A 
ATOM     31  C   UNL     1       9.754   2.384   4.400  0.00  0.00    +0.047 A 
ATOM     32  C   UNL     1      10.119   2.245   3.075  0.00  0.00    +0.028 A 
BRANCH  30  33
ATOM     33  O   UNL     1       8.307   3.310   6.046  0.00  0.00    -0.495 OA
ATOM     34  C   UNL     1       7.176   4.137   6.325  0.00  0.00    +0.277 C 
ENDBRANCH  30  33
ENDBRANCH  25  27
ENDBRANCH  22  25
ENDBRANCH   9  22
TORSDOF 5
