REMARK  Name = ZINC01087282
REMARK  8 active torsions:
REMARK  status: ('A' for Active; 'I' for Inactive)
REMARK    1  A    between atoms: C_2  and  C_8
REMARK    2  A    between atoms: C_5  and  O_7
REMARK    3  A    between atoms: N_9  and  C_10
REMARK    4  A    between atoms: C_13  and  O_16
REMARK    5  A    between atoms: O_16  and  C_17
REMARK    6  A    between atoms: C_20  and  N_23
REMARK    7  A    between atoms: C_24  and  C_25
REMARK    8  A    between atoms: C_28  and  O_31
REMARK                            x       y       z     vdW  Elec       q    Type
REMARK                         _______ _______ _______ _____ _____    ______ ____
ROOT
ATOM      1  O   UNL     1       2.242   9.718   0.030  0.00  0.00    -0.456 OA
ENDROOT
BRANCH   1   5
ATOM      2  C   UNL     1       2.228   5.588   0.056  0.00  0.00    +0.064 A 
ATOM      3  C   UNL     1       2.781   6.280  -1.024  0.00  0.00    +0.031 A 
ATOM      4  C   UNL     1       2.783   7.658  -1.029  0.00  0.00    +0.048 A 
ATOM      5  C   UNL     1       2.237   8.360   0.038  0.00  0.00    +0.129 A 
ATOM      6  C   UNL     1       1.687   7.676   1.115  0.00  0.00    +0.048 A 
ATOM      7  C   UNL     1       1.674   6.298   1.125  0.00  0.00    +0.031 A 
BRANCH   2   9
ATOM      8  C   UNL     1       1.879   3.562  -1.006  0.00  0.00    +0.119 C 
ATOM      9  N   UNL     1       2.223   4.220   0.065  0.00  0.00    -0.255 NA
BRANCH   8  11
ATOM     10  C   UNL     1       1.506   1.383  -2.146  0.00  0.00    +0.013 A 
ATOM     11  C   UNL     1       1.874   2.091  -0.997  0.00  0.00    -0.007 A 
ATOM     12  C   UNL     1       2.239   1.396   0.161  0.00  0.00    +0.013 A 
ATOM     13  C   UNL     1       2.233   0.019   0.165  0.00  0.00    +0.046 A 
ATOM     14  C   UNL     1       1.866  -0.680  -0.979  0.00  0.00    +0.117 A 
ATOM     15  C   UNL     1       1.503   0.006  -2.132  0.00  0.00    +0.046 A 
BRANCH  14  16
ATOM     16  O   UNL     1       1.862  -2.038  -0.970  0.00  0.00    -0.507 OA
ATOM     17  H   UNL     1       1.019  -2.427  -0.700  0.00  0.00    +0.292 HD
ENDBRANCH  14  16
ENDBRANCH   8  11
ENDBRANCH   2   9
ENDBRANCH   1   5
BRANCH   1  18
ATOM     18  C   UNL     1       3.020  10.359   0.941  0.00  0.00    +0.129 A 
ATOM     19  C   UNL     1       2.955  11.742   1.056  0.00  0.00    +0.048 A 
ATOM     20  C   UNL     1       3.743  12.396   1.979  0.00  0.00    +0.031 A 
ATOM     21  C   UNL     1       4.608  11.666   2.799  0.00  0.00    +0.064 A 
ATOM     22  C   UNL     1       4.670  10.275   2.679  0.00  0.00    +0.031 A 
ATOM     23  C   UNL     1       3.875   9.629   1.757  0.00  0.00    +0.048 A 
BRANCH  21  24
ATOM     24  N   UNL     1       5.392  12.311   3.716  0.00  0.00    -0.255 NA
ATOM     25  C   UNL     1       5.493  11.846   4.929  0.00  0.00    +0.119 C 
BRANCH  25  26
ATOM     26  C   UNL     1       6.336  12.540   5.915  0.00  0.00    -0.007 A 
ATOM     27  C   UNL     1       7.025  13.703   5.555  0.00  0.00    +0.013 A 
ATOM     28  C   UNL     1       7.813  14.348   6.481  0.00  0.00    +0.046 A 
ATOM     29  C   UNL     1       7.924  13.847   7.773  0.00  0.00    +0.117 A 
ATOM     30  C   UNL     1       7.241  12.692   8.136  0.00  0.00    +0.046 A 
ATOM     31  C   UNL     1       6.446  12.042   7.218  0.00  0.00    +0.013 A 
BRANCH  29  32
ATOM     32  O   UNL     1       8.702  14.487   8.683  0.00  0.00    -0.507 OA
ATOM     33  H   UNL     1       8.235  15.161   9.195  0.00  0.00    +0.292 HD
ENDBRANCH  29  32
ENDBRANCH  25  26
ENDBRANCH  21  24
ENDBRANCH   1  18
TORSDOF 8
