REMARK  Name = ZINC04590946
REMARK  5 active torsions:
REMARK  status: ('A' for Active; 'I' for Inactive)
REMARK    1  A    between atoms: N_4  and  C_7
REMARK    2  A    between atoms: C_7  and  C_21
REMARK    3  A    between atoms: N_10  and  C_13
REMARK    4  A    between atoms: C_13  and  N_15
REMARK    5  A    between atoms: N_15  and  C_16
REMARK                            x       y       z     vdW  Elec       q    Type
REMARK                         _______ _______ _______ _____ _____    ______ ____
ROOT
ATOM      1  C   UNL     1       2.665  -0.410  -2.259  0.00  0.00    +0.015 C 
ATOM      2  C   UNL     1       4.165  -0.206  -2.484  0.00  0.00    +0.016 C 
ATOM      3  C   UNL     1       4.647  -1.164  -3.577  0.00  0.00    +0.106 C 
ATOM      4  N   UNL     1       4.274  -2.535  -3.204  0.00  0.00    -0.313 N 
ATOM      5  C   UNL     1       2.870  -2.821  -2.878  0.00  0.00    +0.106 C 
ATOM      6  C   UNL     1       2.407  -1.844  -1.792  0.00  0.00    +0.016 C 
ENDROOT
BRANCH   1  10
ATOM      7  C   UNL     1       0.544   2.718  -0.290  0.00  0.00    -0.004 C 
ATOM      8  C   UNL     1       2.039   2.886  -0.576  0.00  0.00    -0.019 C 
ATOM      9  C   UNL     1       2.456   1.906  -1.674  0.00  0.00    -0.077 C 
ATOM     10  N   UNL     1       2.191   0.531  -1.234  0.00  0.00    +0.389 N 
ATOM     11  C   UNL     1       0.751   0.342  -1.027  0.00  0.00    -0.077 C 
ATOM     12  C   UNL     1       0.268   1.262   0.096  0.00  0.00    -0.019 C 
ATOM     13  H   UNL     1       2.680   0.356  -0.368  0.00  0.00    -0.080 HD
ENDBRANCH   1  10
BRANCH   1  14
ATOM     14  C   UNL     1       1.925  -0.161  -3.548  0.00  0.00    +0.200 C 
ATOM     15  O   UNL     1       1.045  -0.918  -3.898  0.00  0.00    -0.278 OA
ATOM     16  N   UNL     1       2.243   0.903  -4.312  0.00  0.00    -0.330 N 
ATOM     17  H   UNL     1       2.995   1.466  -4.071  0.00  0.00    +0.145 HD
ATOM     18  H   UNL     1       1.719   1.106  -5.103  0.00  0.00    +0.145 HD
ENDBRANCH   1  14
BRANCH   4  19
ATOM     19  C   UNL     1       5.202  -3.512  -3.161  0.00  0.00    +0.133 C 
ATOM     20  S   UNL     1       6.853  -3.136  -3.413  0.00  0.00    -0.019 S 
BRANCH  19  21
ATOM     21  N   UNL     1       4.829  -4.785  -2.920  0.00  0.00    -0.324 N 
ATOM     22  H   UNL     1       3.905  -4.987  -2.705  0.00  0.00    +0.148 HD
BRANCH  21  23
ATOM     23  C   UNL     1       5.820  -5.862  -2.981  0.00  0.00    +0.072 C 
ATOM     24  C   UNL     1       5.930  -6.397  -4.423  0.00  0.00    +0.022 C 
ATOM     25  C   UNL     1       6.139  -7.922  -4.248  0.00  0.00    +0.002 C 
ATOM     26  C   UNL     1       5.219  -8.257  -3.048  0.00  0.00    +0.002 C 
ATOM     27  C   UNL     1       5.368  -7.045  -2.107  0.00  0.00    +0.022 C 
ENDBRANCH  21  23
ENDBRANCH  19  21
ENDBRANCH   4  19
TORSDOF 5
