REMARK  Name = ZINC44956556
REMARK  5 active torsions:
REMARK  status: ('A' for Active; 'I' for Inactive)
REMARK    1  A    between atoms: C_7  and  C_11
REMARK    2  A    between atoms: C_11  and  C_12
REMARK    3  A    between atoms: N_14  and  N_15
REMARK    4  A    between atoms: C_16  and  C_18
REMARK    5  A    between atoms: C_24  and  C_26
REMARK                            x       y       z     vdW  Elec       q    Type
REMARK                         _______ _______ _______ _____ _____    ______ ____
ROOT
ATOM      1  C   UNL     1       0.365  -3.043  -2.271  0.00  0.00    +0.233 C 
ATOM      2  O   UNL     1       0.490  -2.353  -3.260  0.00  0.00    -0.274 OA
ATOM      3  N   UNL     1      -0.341  -4.190  -2.333  0.00  0.00    -0.234 N 
ATOM      4  H   UNL     1      -0.440  -4.742  -1.542  0.00  0.00    +0.173 HD
ENDROOT
BRANCH   3   5
ATOM      5  N   UNL     1      -0.931  -4.584  -3.541  0.00  0.00    -0.234 N 
ATOM      6  C   UNL     1      -1.637  -5.730  -3.604  0.00  0.00    +0.233 C 
ATOM      7  O   UNL     1      -1.761  -6.421  -2.615  0.00  0.00    -0.274 OA
ATOM      8  H   UNL     1      -0.831  -4.032  -4.333  0.00  0.00    +0.173 HD
BRANCH   6   9
ATOM      9  C   UNL     1      -2.271  -6.154  -4.904  0.00  0.00    +0.088 C 
ATOM     10  C   UNL     1      -1.738  -7.530  -5.307  0.00  0.00    +0.013 C 
ATOM     11  C   UNL     1      -2.382  -7.961  -6.626  0.00  0.00    +0.001 C 
ATOM     12  C   UNL     1      -3.900  -8.034  -6.452  0.00  0.00    +0.001 C 
ATOM     13  C   UNL     1      -4.434  -6.657  -6.049  0.00  0.00    +0.013 C 
ATOM     14  C   UNL     1      -3.790  -6.227  -4.730  0.00  0.00    +0.105 C 
BRANCH  14  15
ATOM     15  C   UNL     1      -4.323  -4.851  -4.327  0.00  0.00    +0.394 C 
ATOM     16  F   UNL     1      -3.901  -3.896  -5.257  0.00  0.00    -0.170 F 
ATOM     17  F   UNL     1      -5.722  -4.884  -4.295  0.00  0.00    -0.170 F 
ATOM     18  F   UNL     1      -3.836  -4.515  -3.059  0.00  0.00    -0.170 F 
ENDBRANCH  14  15
ENDBRANCH   6   9
ENDBRANCH   3   5
BRANCH   1  19
ATOM     19  C   UNL     1       1.000  -2.620  -0.971  0.00  0.00    +0.134 C 
BRANCH  19  26
ATOM     20  C   UNL     1      -0.372   1.861  -0.850  0.00  0.00    +0.001 A 
ATOM     21  C   UNL     1       0.665   2.751  -1.096  0.00  0.00    +0.002 A 
ATOM     22  C   UNL     1       1.940   2.293  -1.344  0.00  0.00    +0.026 A 
ATOM     23  C   UNL     1       2.195   0.925  -1.347  0.00  0.00    +0.047 A 
ATOM     24  C   UNL     1       1.141   0.028  -1.096  0.00  0.00    +0.003 A 
ATOM     25  C   UNL     1      -0.144   0.514  -0.848  0.00  0.00    +0.010 A 
ATOM     26  C   UNL     1       1.725  -1.314  -1.169  0.00  0.00    -0.014 A 
ATOM     27  C   UNL     1       3.030  -1.159  -1.445  0.00  0.00    +0.087 A 
ATOM     28  N   UNL     1       3.328   0.172  -1.554  0.00  0.00    -0.360 N 
ATOM     29  H   UNL     1       4.208   0.532  -1.749  0.00  0.00    +0.165 HD
ENDBRANCH  19  26
ENDBRANCH   1  19
TORSDOF 5
