REMARK  Name = ZINC50194164
REMARK  2 active torsions:
REMARK  status: ('A' for Active; 'I' for Inactive)
REMARK    1  A    between atoms: C_9  and  C_11
REMARK    2  A    between atoms: N_17  and  N_18
REMARK                            x       y       z     vdW  Elec       q    Type
REMARK                         _______ _______ _______ _____ _____    ______ ____
ROOT
ATOM      1  C   UNL     1       5.985   0.926  -0.051  0.00  0.00    +0.128 A 
ATOM      2  C   UNL     1       6.599   2.186  -0.045  0.00  0.00    +0.037 A 
ATOM      3  C   UNL     1       7.981   2.233  -0.058  0.00  0.00    +0.049 A 
ATOM      4  C   UNL     1       8.678   1.023  -0.077  0.00  0.00    +0.155 A 
ATOM      5  N   UNL     1       8.014  -0.124  -0.082  0.00  0.00    -0.132 NA
ATOM      6  N   UNL     1       6.731  -0.171  -0.065  0.00  0.00    -0.144 NA
ATOM      7  N   UNL     1      10.068   1.022  -0.091  0.00  0.00    -0.266 N 
ATOM      8  H   UNL     1      10.554   1.861  -0.088  0.00  0.00    +0.167 HD
ENDROOT
BRANCH   1  17
ATOM      9  C   UNL     1      -0.017   1.384   0.010  0.00  0.00    +0.019 A 
ATOM     10  C   UNL     1       1.159   2.104   0.002  0.00  0.00    +0.048 A 
ATOM     11  C   UNL     1       2.379   1.442  -0.013  0.00  0.00    +0.136 A 
ATOM     12  C   UNL     1       2.399   0.035  -0.021  0.00  0.00    +0.022 A 
ATOM     13  C   UNL     1       1.202  -0.682  -0.013  0.00  0.00    +0.027 A 
ATOM     14  C   UNL     1       0.002  -0.004   0.002  0.00  0.00    +0.019 A 
ATOM     15 BR   UNL     1      -1.625  -0.968   0.013  0.00  0.00    -0.050 Br
ATOM     16  C   UNL     1       3.814  -0.341  -0.037  0.00  0.00    +0.060 A 
ATOM     17  C   UNL     1       4.511   0.821  -0.037  0.00  0.00    +0.156 A 
ATOM     18  O   UNL     1       3.660   1.865  -0.023  0.00  0.00    -0.453 OA
ENDBRANCH   1  17
BRANCH   7  19
ATOM     19  N   UNL     1      10.750  -0.162  -0.110  0.00  0.00    -0.255 NA
ATOM     20  H   UNL     1      10.466  -0.730  -0.894  0.00  0.00    +0.140 HD
ATOM     21  H   UNL     1      11.746  -0.005  -0.118  0.00  0.00    +0.140 HD
ENDBRANCH   7  19
TORSDOF 2
