REMARK  Name = ZINC12181376
REMARK  8 active torsions:
REMARK  status: ('A' for Active; 'I' for Inactive)
REMARK    1  A    between atoms: C_1  and  N_64
REMARK    2  A    between atoms: C_2  and  C_3
REMARK    3  A    between atoms: C_2  and  N_64
REMARK    4  A    between atoms: C_9  and  C_10
REMARK    5  A    between atoms: C_9  and  N_64
REMARK    6  A    between atoms: C_13  and  C_18
REMARK    7  A    between atoms: N_20  and  C_21
REMARK    8  A    between atoms: C_21  and  C_22
REMARK                            x       y       z     vdW  Elec       q    Type
REMARK                         _______ _______ _______ _____ _____    ______ ____
ROOT
ATOM      1  C   UNL     1       1.109   3.199   0.219  0.00  0.00    +0.003 A 
ATOM      2  C   UNL     1      -0.107   3.800   0.245  0.00  0.00    +0.020 A 
ATOM      3  C   UNL     1      -1.265   3.033   0.380  0.00  0.00    +0.020 A 
ATOM      4  C   UNL     1      -1.148   1.649   0.481  0.00  0.00    +0.101 A 
ATOM      5  C   UNL     1       0.146   1.067   0.454  0.00  0.00    +0.261 A 
ATOM      6  O   UNL     1       0.275  -0.142   0.545  0.00  0.00    -0.267 OA
ATOM      7  N   UNL     1       1.230   1.854   0.322  0.00  0.00    -0.327 N 
ATOM      8  H   UNL     1       2.112   1.451   0.300  0.00  0.00    +0.169 HD
ENDROOT
BRANCH   4   9
ATOM      9  C   UNL     1      -2.345   0.805   0.618  0.00  0.00    +0.249 C 
ATOM     10  O   UNL     1      -3.440   1.319   0.747  0.00  0.00    -0.270 OA
ATOM     11  N   UNL     1      -2.229  -0.538   0.602  0.00  0.00    -0.311 N 
ATOM     12  H   UNL     1      -1.351  -0.948   0.569  0.00  0.00    +0.149 HD
BRANCH  11  13
ATOM     13  C   UNL     1      -3.429  -1.377   0.632  0.00  0.00    +0.108 C 
BRANCH  13  14
ATOM     14  C   UNL     1      -3.021  -2.852   0.605  0.00  0.00    +0.012 C 
ATOM     15  C   UNL     1      -2.340  -3.167  -0.728  0.00  0.00    -0.006 C 
ATOM     16  C   UNL     1      -1.932  -4.642  -0.756  0.00  0.00    +0.007 C 
ATOM     17  C   UNL     1      -3.176  -5.518  -0.599  0.00  0.00    -0.010 C 
ATOM     18  C   UNL     1      -4.147  -5.236  -1.747  0.00  0.00    +0.007 C 
ATOM     19  C   UNL     1      -4.555  -3.762  -1.719  0.00  0.00    -0.010 C 
ATOM     20  C   UNL     1      -3.311  -2.886  -1.877  0.00  0.00    +0.007 C 
ATOM     21  C   UNL     1      -5.236  -3.446  -0.386  0.00  0.00    +0.007 C 
ATOM     22  C   UNL     1      -4.265  -3.728   0.762  0.00  0.00    -0.006 C 
ATOM     23  C   UNL     1      -3.857  -5.202   0.735  0.00  0.00    +0.007 C 
ENDBRANCH  13  14
ENDBRANCH  11  13
ENDBRANCH   4   9
BRANCH   1  24
ATOM     24  C   UNL     1       2.349   4.043   0.072  0.00  0.00    -0.025 C 
BRANCH  24  26
ATOM     25  C   UNL     1       4.460   4.604   1.118  0.00  0.00    -0.095 C 
ATOM     26  N   UNL     1       3.173   3.898   1.291  0.00  0.00    +0.384 N 
ATOM     27  H   UNL     1       3.358   2.901   1.452  0.00  0.00    -0.081 HD
BRANCH  26  28
ATOM     28  C   UNL     1       2.449   4.446   2.458  0.00  0.00    -0.043 C 
BRANCH  28  29
ATOM     29  C   UNL     1       3.208   4.090   3.711  0.00  0.00    -0.064 A 
ATOM     30  C   UNL     1       2.938   2.904   4.368  0.00  0.00    +0.002 A 
ATOM     31  C   UNL     1       3.637   2.575   5.514  0.00  0.00    +0.000 A 
ATOM     32  C   UNL     1       4.598   3.437   6.009  0.00  0.00    +0.000 A 
ATOM     33  C   UNL     1       4.863   4.626   5.355  0.00  0.00    +0.000 A 
ATOM     34  C   UNL     1       4.168   4.952   4.206  0.00  0.00    +0.002 A 
ENDBRANCH  28  29
ENDBRANCH  26  28
ENDBRANCH  24  26
ENDBRANCH   1  24
TORSDOF 7
