REMARK  Name = ZINC11603968
REMARK  10 active torsions:
REMARK  status: ('A' for Active; 'I' for Inactive)
REMARK    1  A    between atoms: C_1  and  N_53
REMARK    2  A    between atoms: C_2  and  N_53
REMARK    3  A    between atoms: C_3  and  C_5
REMARK    4  A    between atoms: C_3  and  C_23
REMARK    5  A    between atoms: C_3  and  N_53
REMARK    6  A    between atoms: C_5  and  N_6
REMARK    7  A    between atoms: C_7  and  C_9
REMARK    8  A    between atoms: C_9  and  C_10
REMARK    9  A    between atoms: C_27  and  O_29
REMARK   10  A    between atoms: O_29  and  C_30
REMARK                            x       y       z     vdW  Elec       q    Type
REMARK                         _______ _______ _______ _____ _____    ______ ____
ROOT
ATOM      1  N   UNL     1       3.037   2.860   4.017  0.00  0.00    -0.316 N 
ATOM      2  C   UNL     1       2.974   2.795   2.672  0.00  0.00    +0.215 C 
ATOM      3  O   UNL     1       2.128   3.425   2.074  0.00  0.00    -0.276 OA
ATOM      4  H   UNL     1       3.714   2.356   4.496  0.00  0.00    +0.149 HD
ENDROOT
BRANCH   1   5
ATOM      5  C   UNL     1       2.084   3.691   4.756  0.00  0.00    +0.093 C 
BRANCH   5   6
ATOM      6  C   UNL     1       2.287   3.487   6.259  0.00  0.00    -0.021 C 
BRANCH   6   7
ATOM      7  C   UNL     1       1.981   2.056   6.618  0.00  0.00    -0.056 A 
ATOM      8  C   UNL     1       0.670   1.649   6.780  0.00  0.00    +0.002 A 
ATOM      9  C   UNL     1       0.386   0.336   7.104  0.00  0.00    +0.004 A 
ATOM     10  C   UNL     1       1.413  -0.572   7.276  0.00  0.00    +0.045 A 
ATOM     11  C   UNL     1       2.729  -0.166   7.119  0.00  0.00    +0.120 A 
ATOM     12  C   UNL     1       3.012   1.152   6.789  0.00  0.00    +0.047 A 
BRANCH  11  13
ATOM     13  O   UNL     1       3.742  -1.057   7.289  0.00  0.00    -0.495 OA
ATOM     14  C   UNL     1       3.377  -2.396   7.628  0.00  0.00    +0.277 C 
ENDBRANCH  11  13
ENDBRANCH   6   7
BRANCH   6  17
ATOM     15  C   UNL     1       1.592   4.249   8.449  0.00  0.00    -0.096 C 
ATOM     16  C   UNL     1       1.557   5.775   6.569  0.00  0.00    -0.096 C 
ATOM     17  N   UNL     1       1.361   4.373   6.995  0.00  0.00    +0.382 N 
ATOM     18  H   UNL     1       0.395   4.093   6.786  0.00  0.00    -0.082 HD
ENDBRANCH   6  17
ENDBRANCH   5   6
ENDBRANCH   1   5
BRANCH   2  19
ATOM     19  C   UNL     1       3.954   1.940   1.912  0.00  0.00    +0.119 C 
BRANCH  19  20
ATOM     20  C   UNL     1       3.666   2.043   0.413  0.00  0.00    +0.146 C 
ATOM     21  C   UNL     1       4.703   1.268  -0.357  0.00  0.00    +0.231 C 
ATOM     22  O   UNL     1       5.634   1.874  -0.844  0.00  0.00    -0.274 OA
ATOM     23  N   UNL     1       4.647  -0.049  -0.529  0.00  0.00    -0.284 N 
ATOM     24  C   UNL     1       3.607  -0.892  -0.148  0.00  0.00    +0.048 A 
ATOM     25  C   UNL     1       3.839  -2.262  -0.068  0.00  0.00    +0.044 A 
ATOM     26  C   UNL     1       2.826  -3.119   0.318  0.00  0.00    +0.043 A 
ATOM     27  C   UNL     1       1.571  -2.625   0.629  0.00  0.00    +0.021 A 
ATOM     28  C   UNL     1       1.326  -1.266   0.551  0.00  0.00    +0.018 A 
ATOM     29  C   UNL     1       2.338  -0.404   0.162  0.00  0.00    +0.030 A 
ATOM     30  S   UNL     1       2.031   1.332   0.054  0.00  0.00    -0.110 S 
ATOM     31 CL   UNL     1       3.130  -4.825   0.413  0.00  0.00    -0.083 Cl
ATOM     32  H   UNL     1       5.408  -0.465  -0.963  0.00  0.00    +0.155 HD
ENDBRANCH  19  20
ENDBRANCH   2  19
TORSDOF 7
