REMARK  Name = ZINC20882893
REMARK  5 active torsions:
REMARK  status: ('A' for Active; 'I' for Inactive)
REMARK    1  A    between atoms: C_1  and  N_2
REMARK    2  A    between atoms: N_2  and  C_3
REMARK    3  A    between atoms: N_2  and  C_4
REMARK    4  A    between atoms: C_7  and  C_10
REMARK    5  A    between atoms: C_15  and  C_25
REMARK                            x       y       z     vdW  Elec       q    Type
REMARK                         _______ _______ _______ _____ _____    ______ ____
ROOT
ATOM      1  C   UNL     1      -5.259   4.692  -4.104  0.00  0.00    +0.032 C 
ATOM      2  C   UNL     1      -6.549   4.114  -3.526  0.00  0.00    +0.059 C 
ATOM      3  C   UNL     1      -6.298   3.574  -2.128  0.00  0.00    +0.017 C 
ATOM      4  C   UNL     1      -5.377   4.144  -1.332  0.00  0.00    +0.037 C 
ATOM      5  C   UNL     1      -5.034   3.714   0.074  0.00  0.00    +0.143 C 
ATOM      6  N   UNL     1      -5.959   2.766   0.657  0.00  0.00    -0.331 N 
ATOM      7  C   UNL     1      -6.106   1.486   0.125  0.00  0.00    +0.049 A 
ATOM      8  C   UNL     1      -5.694   0.362   0.822  0.00  0.00    +0.025 A 
ATOM      9  C   UNL     1      -5.754  -0.878   0.209  0.00  0.00    +0.002 A 
ATOM     10  C   UNL     1      -6.220  -0.996  -1.087  0.00  0.00    +0.002 A 
ATOM     11  C   UNL     1      -6.653   0.122  -1.779  0.00  0.00    +0.025 A 
ATOM     12  C   UNL     1      -6.611   1.360  -1.161  0.00  0.00    +0.052 A 
ATOM     13  N   UNL     1      -7.073   2.517  -1.778  0.00  0.00    -0.316 N 
ATOM     14  C   UNL     1      -4.624   5.250  -1.792  0.00  0.00    +0.163 C 
ATOM     15  O   UNL     1      -3.811   5.758  -1.045  0.00  0.00    -0.292 OA
ATOM     16  C   UNL     1      -4.793   5.816  -3.170  0.00  0.00    +0.088 C 
ATOM     17  H   UNL     1      -6.560   3.051   1.532  0.00  0.00    +0.147 HD
ATOM     18  H   UNL     1      -8.154   2.536  -1.981  0.00  0.00    +0.152 HD
ENDROOT
BRANCH   5  19
ATOM     19  C   UNL     1      -3.660   3.094   0.062  0.00  0.00    +0.059 A 
ATOM     20  C   UNL     1      -3.113   2.684  -1.097  0.00  0.00    +0.205 A 
ATOM     21  O   UNL     1      -1.899   2.128  -1.169  0.00  0.00    -0.462 OA
ATOM     22  C   UNL     1      -1.124   1.940  -0.082  0.00  0.00    +0.138 A 
ATOM     23  C   UNL     1       0.131   1.353  -0.190  0.00  0.00    +0.047 A 
ATOM     24  C   UNL     1       0.902   1.166   0.937  0.00  0.00    +0.004 A 
ATOM     25  C   UNL     1       0.437   1.553   2.186  0.00  0.00    +0.001 A 
ATOM     26  C   UNL     1      -0.807   2.130   2.316  0.00  0.00    +0.015 A 
ATOM     27  C   UNL     1      -1.596   2.324   1.183  0.00  0.00    +0.064 A 
ATOM     28  C   UNL     1      -2.935   2.939   1.273  0.00  0.00    +0.198 A 
ATOM     29  O   UNL     1      -3.399   3.299   2.341  0.00  0.00    -0.287 OA
ENDBRANCH   5  19
BRANCH   1  33
ATOM     30  C   UNL     1      -5.999   6.266  -8.008  0.00  0.00    +0.029 A 
ATOM     31  C   UNL     1      -5.046   5.271  -7.827  0.00  0.00    +0.023 A 
ATOM     32  C   UNL     1      -4.810   4.764  -6.564  0.00  0.00    +0.006 A 
ATOM     33  C   UNL     1      -5.520   5.247  -5.480  0.00  0.00    -0.043 A 
ATOM     34  C   UNL     1      -6.473   6.234  -5.658  0.00  0.00    +0.006 A 
ATOM     35  C   UNL     1      -6.710   6.748  -6.917  0.00  0.00    +0.023 A 
BRANCH  30  37
ATOM     36  C   UNL     1      -5.581   6.186 -10.450  0.00  0.00    +0.129 C 
ATOM     37  N   UNL     1      -6.240   6.780  -9.284  0.00  0.00    -0.336 N 
ATOM     38  C   UNL     1      -7.152   7.914  -9.456  0.00  0.00    +0.129 C 
ENDBRANCH  30  37
ENDBRANCH   1  33
TORSDOF 3
