REMARK  Name = ZINC04112529
REMARK  11 active torsions:
REMARK  status: ('A' for Active; 'I' for Inactive)
REMARK    1  A    between atoms: C_1  and  C_2
REMARK    2  A    between atoms: C_3  and  C_23
REMARK    3  A    between atoms: C_4  and  C_16
REMARK    4  A    between atoms: C_10  and  C_14
REMARK    5  A    between atoms: C_10  and  C_15
REMARK    6  A    between atoms: C_20  and  O_22
REMARK    7  A    between atoms: C_23  and  O_25
REMARK    8  A    between atoms: O_25  and  C_26
REMARK    9  A    between atoms: C_26  and  C_27
REMARK   10  A    between atoms: C_27  and  O_28
REMARK   11  A    between atoms: O_28  and  C_29
REMARK                            x       y       z     vdW  Elec       q    Type
REMARK                         _______ _______ _______ _____ _____    ______ ____
ROOT
ATOM      1  C   UNL     1       0.265   1.663   4.848  0.00  0.00    +0.061 C 
ATOM      2  C   UNL     1      -0.568   1.852   3.606  0.00  0.00    +0.031 C 
ATOM      3  C   UNL     1      -1.890   2.068   3.715  0.00  0.00    +0.154 C 
ATOM      4  C   UNL     1      -2.748   2.266   2.503  0.00  0.00    +0.073 C 
ATOM      5  C   UNL     1      -2.051   1.778   1.258  0.00  0.00    +0.025 C 
ATOM      6  C   UNL     1      -0.718   1.572   1.250  0.00  0.00    +0.049 C 
ATOM      7  N   UNL     1       0.027   1.802   2.376  0.00  0.00    -0.260 NA
ATOM      8  C   UNL     1      -0.013   1.086   0.008  0.00  0.00    +0.062 C 
ATOM      9  C   UNL     1      -0.753   1.585  -1.233  0.00  0.00    -0.023 C 
ATOM     10  C   UNL     1      -2.199   1.080  -1.175  0.00  0.00    +0.086 C 
ATOM     11  C   UNL     1      -2.828   1.544   0.110  0.00  0.00    +0.162 C 
ATOM     12  O   UNL     1      -4.029   1.721   0.156  0.00  0.00    -0.292 OA
ATOM     13  C   UNL     1      -0.743   3.115  -1.253  0.00  0.00    +0.011 C 
ATOM     14  C   UNL     1      -0.067   1.050  -2.491  0.00  0.00    +0.011 C 
ENDROOT
BRANCH   4  15
ATOM     15  C   UNL     1      -3.054   3.734   2.356  0.00  0.00    -0.035 A 
ATOM     16  C   UNL     1      -2.025   4.639   2.173  0.00  0.00    +0.004 A 
ATOM     17  C   UNL     1      -2.303   5.986   2.033  0.00  0.00    +0.004 A 
ATOM     18  C   UNL     1      -3.609   6.432   2.086  0.00  0.00    +0.045 A 
ATOM     19  C   UNL     1      -4.643   5.527   2.276  0.00  0.00    +0.117 A 
ATOM     20  C   UNL     1      -4.362   4.175   2.411  0.00  0.00    +0.049 A 
BRANCH  19  21
ATOM     21  O   UNL     1      -5.929   5.963   2.328  0.00  0.00    -0.507 OA
ATOM     22  H   UNL     1      -6.231   6.192   3.218  0.00  0.00    +0.292 HD
ENDBRANCH  19  21
ENDBRANCH   4  15
BRANCH   3  23
ATOM     23  C   UNL     1      -2.483   2.108   4.998  0.00  0.00    +0.317 C 
ATOM     24  O   UNL     1      -1.797   1.946   5.990  0.00  0.00    -0.250 OA
BRANCH  23  25
ATOM     25  O   UNL     1      -3.809   2.324   5.122  0.00  0.00    -0.461 OA
BRANCH  25  26
ATOM     26  C   UNL     1      -4.341   2.351   6.449  0.00  0.00    +0.273 C 
BRANCH  26  27
ATOM     27  C   UNL     1      -5.848   2.606   6.389  0.00  0.00    +0.270 C 
BRANCH  27  28
ATOM     28  O   UNL     1      -6.492   1.505   5.746  0.00  0.00    -0.489 OA
BRANCH  28  29
ATOM     29  C   UNL     1      -7.843   1.574   5.611  0.00  0.00    +0.121 A 
ATOM     30  C   UNL     1      -8.534   2.676   6.092  0.00  0.00    +0.045 A 
ATOM     31  C   UNL     1      -9.907   2.746   5.948  0.00  0.00    +0.004 A 
ATOM     32  C   UNL     1     -10.592   1.713   5.335  0.00  0.00    +0.000 A 
ATOM     33  C   UNL     1      -9.906   0.611   4.859  0.00  0.00    +0.004 A 
ATOM     34  C   UNL     1      -8.533   0.539   4.996  0.00  0.00    +0.045 A 
ENDBRANCH  28  29
ENDBRANCH  27  28
ENDBRANCH  26  27
ENDBRANCH  25  26
ENDBRANCH  23  25
ENDBRANCH   3  23
TORSDOF 8
