REMARK  Name = ZINC09379906
REMARK  7 active torsions:
REMARK  status: ('A' for Active; 'I' for Inactive)
REMARK    1  A    between atoms: C_1  and  C_2
REMARK    2  A    between atoms: C_2  and  C_3
REMARK    3  A    between atoms: C_3  and  C_4
REMARK    4  A    between atoms: C_4  and  C_5
REMARK    5  A    between atoms: C_5  and  C_6
REMARK    6  A    between atoms: C_18  and  C_20
REMARK    7  A    between atoms: C_30  and  C_33
REMARK                            x       y       z     vdW  Elec       q    Type
REMARK                         _______ _______ _______ _____ _____    ______ ____
ROOT
ATOM      1  C   UNL     1      -0.865   1.611   1.238  0.00  0.00    +0.221 C 
ATOM      2  O   UNL     1      -1.835   2.338   1.210  0.00  0.00    -0.275 OA
ATOM      3  N   UNL     1      -0.332   1.242   2.420  0.00  0.00    -0.258 N 
ATOM      4  C   UNL     1       0.784   0.406   2.440  0.00  0.00    +0.058 A 
ATOM      5  C   UNL     1       0.713  -0.903   1.989  0.00  0.00    +0.025 A 
ATOM      6  C   UNL     1       1.831  -1.713   2.072  0.00  0.00    +0.002 A 
ATOM      7  C   UNL     1       3.012  -1.227   2.604  0.00  0.00    +0.002 A 
ATOM      8  C   UNL     1       3.092   0.086   3.038  0.00  0.00    +0.025 A 
ATOM      9  C   UNL     1       1.981   0.903   2.932  0.00  0.00    +0.053 A 
ATOM     10  N   UNL     1       2.013   2.251   3.271  0.00  0.00    -0.316 N 
ATOM     11  C   UNL     1       1.281   2.821   4.264  0.00  0.00    +0.017 C 
ATOM     12  C   UNL     1      -0.031   2.621   4.467  0.00  0.00    +0.037 C 
ATOM     13  C   UNL     1      -0.923   1.723   3.650  0.00  0.00    +0.147 C 
ATOM     14  C   UNL     1      -0.696   3.271   5.533  0.00  0.00    +0.163 C 
ATOM     15  O   UNL     1      -1.890   3.091   5.676  0.00  0.00    -0.292 OA
ATOM     16  C   UNL     1       0.020   4.173   6.493  0.00  0.00    +0.088 C 
ATOM     17  C   UNL     1       1.484   3.728   6.580  0.00  0.00    +0.032 C 
ATOM     18  C   UNL     1       2.064   3.759   5.168  0.00  0.00    +0.059 C 
ATOM     19  H   UNL     1       2.602   2.829   2.761  0.00  0.00    +0.152 HD
ENDROOT
BRANCH  13  20
ATOM     20  C   UNL     1      -1.302   0.534   4.495  0.00  0.00    -0.022 A 
ATOM     21  C   UNL     1      -2.617   0.352   4.881  0.00  0.00    +0.007 A 
ATOM     22  C   UNL     1      -2.966  -0.741   5.652  0.00  0.00    +0.020 A 
ATOM     23  C   UNL     1      -1.997  -1.647   6.046  0.00  0.00    +0.041 A 
ATOM     24  C   UNL     1      -0.680  -1.460   5.665  0.00  0.00    +0.020 A 
ATOM     25  C   UNL     1      -0.334  -0.370   4.889  0.00  0.00    +0.007 A 
ATOM     26 CL   UNL     1      -2.433  -3.016   7.020  0.00  0.00    -0.084 Cl
ENDBRANCH  13  20
BRANCH  17  27
ATOM     27  C   UNL     1       2.253   4.671   7.469  0.00  0.00    -0.044 A 
ATOM     28  C   UNL     1       2.310   6.018   7.162  0.00  0.00    +0.004 A 
ATOM     29  C   UNL     1       3.011   6.884   7.980  0.00  0.00    +0.000 A 
ATOM     30  C   UNL     1       3.663   6.402   9.100  0.00  0.00    +0.000 A 
ATOM     31  C   UNL     1       3.611   5.055   9.404  0.00  0.00    +0.000 A 
ATOM     32  C   UNL     1       2.905   4.189   8.589  0.00  0.00    +0.004 A 
ENDBRANCH  17  27
BRANCH   1  33
ATOM     33  C   UNL     1      -0.254   1.121  -0.050  0.00  0.00    +0.096 C 
BRANCH  33  34
ATOM     34  C   UNL     1      -1.042   1.683  -1.235  0.00  0.00    +0.009 C 
BRANCH  34  35
ATOM     35  C   UNL     1      -0.422   1.185  -2.542  0.00  0.00    +0.000 C 
BRANCH  35  37
ATOM     36  C   UNL     1      -0.591   1.249  -5.034  0.00  0.00    +0.004 C 
ATOM     37  C   UNL     1      -1.211   1.747  -3.727  0.00  0.00    -0.003 C 
ENDBRANCH  35  37
ENDBRANCH  34  35
ENDBRANCH  33  34
ENDBRANCH   1  33
TORSDOF 6
