REMARK  Name = ZINC59146468
REMARK  7 active torsions:
REMARK  status: ('A' for Active; 'I' for Inactive)
REMARK    1  A    between atoms: C_1  and  C_2
REMARK    2  A    between atoms: C_5  and  N_9
REMARK    3  A    between atoms: N_9  and  C_10
REMARK    4  A    between atoms: C_10  and  N_12
REMARK    5  A    between atoms: N_12  and  N_13
REMARK    6  A    between atoms: C_14  and  C_15
REMARK    7  A    between atoms: C_19  and  N_21
REMARK                            x       y       z     vdW  Elec       q    Type
REMARK                         _______ _______ _______ _____ _____    ______ ____
ROOT
ATOM      1  N   UNL     1       0.296  -6.193   1.118  0.00  0.00    -0.218 N 
ATOM      2  H   UNL     1       0.380  -6.683   1.951  0.00  0.00    +0.176 HD
ENDROOT
BRANCH   1   3
ATOM      3  C   UNL     1       0.176  -4.851   1.134  0.00  0.00    +0.154 C 
ATOM      4  S   UNL     1       0.173  -4.010   2.626  0.00  0.00    -0.017 S 
BRANCH   3   5
ATOM      5  N   UNL     1       0.059  -4.171  -0.023  0.00  0.00    -0.296 N 
ATOM      6  H   UNL     1      -0.019  -4.651  -0.862  0.00  0.00    +0.154 HD
BRANCH   5  11
ATOM      7  C   UNL     1       0.033   1.503   0.014  0.00  0.00    +0.047 C 
ATOM      8  C   UNL     1       0.040  -0.004   0.004  0.00  0.00    -0.015 A 
ATOM      9  C   UNL     1       0.926  -0.696   0.809  0.00  0.00    +0.008 A 
ATOM     10  C   UNL     1       0.934  -2.076   0.802  0.00  0.00    +0.024 A 
ATOM     11  C   UNL     1       0.052  -2.772  -0.015  0.00  0.00    +0.035 A 
ATOM     12  C   UNL     1      -0.837  -2.077  -0.823  0.00  0.00    +0.062 A 
ATOM     13  C   UNL     1      -0.845  -0.693  -0.809  0.00  0.00    +0.128 A 
ATOM     14  F   UNL     1      -1.713  -0.015  -1.590  0.00  0.00    -0.205 F 
ENDBRANCH   5  11
ENDBRANCH   3   5
ENDBRANCH   1   3
BRANCH   1  15
ATOM     15  N   UNL     1       0.299  -6.881  -0.102  0.00  0.00    -0.188 NA
ATOM     16  C   UNL     1       0.414  -8.174  -0.118  0.00  0.00    +0.138 C 
BRANCH  16  17
ATOM     17  C   UNL     1       0.417  -8.898  -1.402  0.00  0.00    -0.003 A 
ATOM     18  C   UNL     1       0.302  -8.196  -2.604  0.00  0.00    +0.011 A 
ATOM     19  C   UNL     1       0.306  -8.879  -3.802  0.00  0.00    +0.023 A 
ATOM     20  C   UNL     1       0.424 -10.259  -3.815  0.00  0.00    +0.071 A 
ATOM     21  C   UNL     1       0.538 -10.961  -2.627  0.00  0.00    +0.145 A 
ATOM     22  C   UNL     1       0.541 -10.290  -1.423  0.00  0.00    +0.043 A 
ATOM     23 CL   UNL     1       0.429 -11.112  -5.327  0.00  0.00    -0.081 Cl
BRANCH  21  24
ATOM     24  N   UNL     1       0.663 -12.436  -2.651  0.00  0.00    +0.058 N 
ATOM     25  O   UNL     1       0.762 -13.051  -1.614  0.00  0.00    -0.126 OA
ATOM     26  O   UNL     1       0.665 -13.026  -3.706  0.00  0.00    -0.126 OA
ENDBRANCH  21  24
ENDBRANCH  16  17
ENDBRANCH   1  15
TORSDOF 6
