REMARK  Name = ZINC67511797
REMARK  5 active torsions:
REMARK  status: ('A' for Active; 'I' for Inactive)
REMARK    1  A    between atoms: C_4  and  C_7
REMARK    2  A    between atoms: C_10  and  N_12
REMARK    3  A    between atoms: C_13  and  C_15
REMARK    4  A    between atoms: C_15  and  C_16
REMARK    5  A    between atoms: C_16  and  C_17
REMARK                            x       y       z     vdW  Elec       q    Type
REMARK                         _______ _______ _______ _____ _____    ______ ____
ROOT
ATOM      1  C   UNL     1       7.026  -2.625  -4.941  0.00  0.00    +0.083 C 
ENDROOT
BRANCH   1   2
ATOM      2  C   UNL     1       8.445  -2.724  -5.438  0.00  0.00    +0.111 A 
ATOM      3  N   UNL     1       8.678  -3.085  -6.726  0.00  0.00    -0.310 N 
ATOM      4  H   UNL     1       7.927  -3.275  -7.309  0.00  0.00    +0.170 HD
ATOM      5  C   UNL     1       9.930  -3.186  -7.210  0.00  0.00    +0.260 A 
ATOM      6  O   UNL     1      10.122  -3.510  -8.369  0.00  0.00    -0.267 OA
ATOM      7  C   UNL     1      11.034  -2.903  -6.339  0.00  0.00    +0.075 A 
ATOM      8  C   UNL     1      12.464  -2.947  -6.642  0.00  0.00    -0.023 A 
ATOM      9  C   UNL     1      13.312  -2.634  -5.640  0.00  0.00    -0.004 A 
ATOM     10  S   UNL     1      12.269  -2.268  -4.254  0.00  0.00    -0.073 S 
ATOM     11  C   UNL     1      10.694  -2.538  -5.027  0.00  0.00    +0.116 A 
ATOM     12  N   UNL     1       9.430  -2.455  -4.622  0.00  0.00    -0.227 NA
ATOM     13  C   UNL     1      14.809  -2.606  -5.692  0.00  0.00    +0.043 C 
ATOM     14  C   UNL     1      15.263  -3.348  -6.958  0.00  0.00    +0.005 C 
ATOM     15  C   UNL     1      14.439  -2.841  -8.146  0.00  0.00    +0.005 C 
ATOM     16  C   UNL     1      12.995  -3.327  -8.022  0.00  0.00    +0.037 C 
ENDBRANCH   1   2
BRANCH   1  17
ATOM     17  C   UNL     1       7.028  -2.198  -3.472  0.00  0.00    +0.103 C 
BRANCH  17  19
ATOM     18  N   UNL     1       5.363  -1.736  -1.702  0.00  0.00    -0.312 N 
ATOM     19  C   UNL     1       5.608  -2.099  -2.976  0.00  0.00    +0.214 C 
ATOM     20  O   UNL     1       4.686  -2.346  -3.724  0.00  0.00    -0.276 OA
ATOM     21  H   UNL     1       6.101  -1.538  -1.104  0.00  0.00    +0.149 HD
BRANCH  18  24
ATOM     22  C   UNL     1       3.711  -0.707  -0.038  0.00  0.00    +0.041 C 
ATOM     23  C   UNL     1       3.675  -2.224   0.162  0.00  0.00    +0.033 C 
ATOM     24  C   UNL     1       3.983  -1.640  -1.219  0.00  0.00    +0.081 C 
BRANCH  22  28
ATOM     25  C   UNL     1      -0.017   1.378   0.010  0.00  0.00    +0.000 A 
ATOM     26  C   UNL     1       1.171   2.086   0.002  0.00  0.00    +0.000 A 
ATOM     27  C   UNL     1       2.377   1.411  -0.013  0.00  0.00    +0.004 A 
ATOM     28  C   UNL     1       2.396   0.029  -0.020  0.00  0.00    -0.042 A 
ATOM     29  C   UNL     1       1.208  -0.679  -0.012  0.00  0.00    +0.004 A 
ATOM     30  C   UNL     1       0.002  -0.004   0.002  0.00  0.00    +0.000 A 
ENDBRANCH  22  28
ENDBRANCH  18  24
ENDBRANCH  17  19
ENDBRANCH   1  17
TORSDOF 5
