REMARK  Name = ZINC24080169
REMARK  10 active torsions:
REMARK  status: ('A' for Active; 'I' for Inactive)
REMARK    1  A    between atoms: C_1  and  O_2
REMARK    2  A    between atoms: O_2  and  C_3
REMARK    3  A    between atoms: C_6  and  N_11
REMARK    4  A    between atoms: C_7  and  O_9
REMARK    5  A    between atoms: O_9  and  C_10
REMARK    6  A    between atoms: C_12  and  C_23
REMARK    7  A    between atoms: C_26  and  O_33
REMARK    8  A    between atoms: C_27  and  O_29
REMARK    9  A    between atoms: O_29  and  C_30
REMARK   10  A    between atoms: O_33  and  C_34
REMARK                            x       y       z     vdW  Elec       q    Type
REMARK                         _______ _______ _______ _____ _____    ______ ____
ROOT
ATOM      1  N   UNL     1      -3.577   1.814  -0.535  0.00  0.00    -0.241 N 
ATOM      2  C   UNL     1      -2.461   1.042   0.010  0.00  0.00    +0.198 C 
ATOM      3  N   UNL     1      -2.279  -0.199  -0.753  0.00  0.00    -0.321 N 
ATOM      4  C   UNL     1      -2.352  -0.149  -2.140  0.00  0.00    +0.041 A 
ATOM      5  C   UNL     1      -1.657  -1.040  -2.940  0.00  0.00    +0.024 A 
ATOM      6  C   UNL     1      -1.770  -0.958  -4.314  0.00  0.00    +0.002 A 
ATOM      7  C   UNL     1      -2.573   0.009  -4.899  0.00  0.00    +0.001 A 
ATOM      8  C   UNL     1      -3.268   0.908  -4.117  0.00  0.00    +0.015 A 
ATOM      9  C   UNL     1      -3.160   0.839  -2.730  0.00  0.00    +0.058 A 
ATOM     10  C   UNL     1      -3.864   1.791  -1.853  0.00  0.00    +0.254 C 
ATOM     11  O   UNL     1      -4.696   2.549  -2.312  0.00  0.00    -0.270 OA
ATOM     12  H   UNL     1      -2.089  -1.145  -0.226  0.00  0.00    +0.148 HD
ENDROOT
BRANCH   1  16
ATOM     13  C   UNL     1      -5.918   4.128   2.032  0.00  0.00    +0.124 A 
ATOM     14  C   UNL     1      -4.810   4.685   1.409  0.00  0.00    +0.047 A 
ATOM     15  C   UNL     1      -4.036   3.919   0.559  0.00  0.00    +0.031 A 
ATOM     16  C   UNL     1      -4.364   2.591   0.327  0.00  0.00    +0.081 A 
ATOM     17  C   UNL     1      -5.478   2.032   0.948  0.00  0.00    +0.145 A 
ATOM     18  C   UNL     1      -6.250   2.801   1.804  0.00  0.00    +0.093 A 
BRANCH  13  20
ATOM     19  C   UNL     1      -6.278   6.243   3.058  0.00  0.00    +0.277 C 
ATOM     20  O   UNL     1      -6.678   4.885   2.868  0.00  0.00    -0.495 OA
ENDBRANCH  13  20
BRANCH  17  21
ATOM     21  O   UNL     1      -5.806   0.733   0.719  0.00  0.00    -0.493 OA
ATOM     22  C   UNL     1      -6.961   0.227   1.390  0.00  0.00    +0.277 C 
ENDBRANCH  17  21
ENDBRANCH   1  16
BRANCH   2  23
ATOM     23  C   UNL     1      -1.200   1.864  -0.068  0.00  0.00    -0.005 A 
ATOM     24  C   UNL     1      -0.797   2.396  -1.279  0.00  0.00    +0.011 A 
ATOM     25  C   UNL     1       0.361   3.147  -1.356  0.00  0.00    +0.050 A 
ATOM     26  C   UNL     1       1.118   3.372  -0.218  0.00  0.00    +0.162 A 
ATOM     27  C   UNL     1       0.709   2.842   1.002  0.00  0.00    +0.169 A 
ATOM     28  C   UNL     1      -0.453   2.090   1.073  0.00  0.00    +0.056 A 
BRANCH  26  29
ATOM     29  O   UNL     1       2.258   4.111  -0.292  0.00  0.00    -0.491 OA
ATOM     30  C   UNL     1       2.615   4.624  -1.577  0.00  0.00    +0.277 C 
ENDBRANCH  26  29
BRANCH  27  31
ATOM     31  O   UNL     1       1.449   3.060   2.122  0.00  0.00    -0.431 OA
BRANCH  31  32
ATOM     32  C   UNL     1       0.969   2.484   3.339  0.00  0.00    +0.541 C 
ATOM     33  F   UNL     1      -0.303   2.990   3.624  0.00  0.00    -0.166 F 
ATOM     34  F   UNL     1       0.898   1.094   3.200  0.00  0.00    -0.166 F 
ENDBRANCH  31  32
ENDBRANCH  27  31
ENDBRANCH   2  23
TORSDOF 7
