REMARK  Name = ZINC14465796
REMARK  4 active torsions:
REMARK  status: ('A' for Active; 'I' for Inactive)
REMARK    1  A    between atoms: C_5  and  C_7
REMARK    2  A    between atoms: C_18  and  S_23
REMARK    3  A    between atoms: S_23  and  N_26
REMARK    4  A    between atoms: N_26  and  C_27
REMARK                            x       y       z     vdW  Elec       q    Type
REMARK                         _______ _______ _______ _____ _____    ______ ____
ROOT
ATOM      1  C   UNL     1       2.349   5.277   0.453  0.00  0.00    +0.106 C 
ATOM      2  C   UNL     1       1.237   5.968  -0.341  0.00  0.00    +0.029 C 
ATOM      3  C   UNL     1       0.989   7.356   0.320  0.00  0.00    +0.033 C 
ATOM      4  C   UNL     1       0.075   7.031   1.486  0.00  0.00    -0.030 C 
ATOM      5  C   UNL     1      -0.539   5.891   1.284  0.00  0.00    -0.023 C 
ATOM      6  C   UNL     1      -0.118   5.297  -0.039  0.00  0.00    +0.049 C 
ATOM      7  C   UNL     1      -0.027   3.806   0.037  0.00  0.00    -0.018 A 
ATOM      8  C   UNL     1      -1.202   3.067   0.053  0.00  0.00    +0.034 A 
ATOM      9  C   UNL     1      -1.163   1.689   0.113  0.00  0.00    +0.106 A 
ATOM     10  C   UNL     1       0.051   1.027   0.169  0.00  0.00    +0.030 A 
ATOM     11  C   UNL     1       1.226   1.751   0.154  0.00  0.00    +0.025 A 
ATOM     12  C   UNL     1       1.187   3.138   0.089  0.00  0.00    +0.031 A 
ATOM     13  N   UNL     1       2.387   3.858   0.082  0.00  0.00    -0.336 N 
ATOM     14  H   UNL     1       3.222   3.430  -0.162  0.00  0.00    +0.147 HD
ENDROOT
BRANCH   1  19
ATOM     15  C   UNL     1       5.013   7.305  -1.292  0.00  0.00    +0.000 A 
ATOM     16  C   UNL     1       6.104   7.095  -0.469  0.00  0.00    +0.001 A 
ATOM     17  C   UNL     1       5.981   6.297   0.652  0.00  0.00    +0.020 A 
ATOM     18  C   UNL     1       4.765   5.708   0.951  0.00  0.00    +0.046 A 
ATOM     19  C   UNL     1       3.674   5.918   0.128  0.00  0.00    -0.009 A 
ATOM     20  C   UNL     1       3.800   6.713  -0.997  0.00  0.00    +0.007 A 
ATOM     21 CL   UNL     1       4.609   4.705   2.360  0.00  0.00    -0.083 Cl
ENDBRANCH   1  19
BRANCH   9  22
ATOM     22  S   UNL     1      -2.665   0.768   0.127  0.00  0.00    +0.059 S 
ATOM     23  O   UNL     1      -3.650   1.590  -0.484  0.00  0.00    -0.153 OA
ATOM     24  O   UNL     1      -2.350  -0.530  -0.357  0.00  0.00    -0.153 OA
BRANCH  22  25
ATOM     25  N   UNL     1      -3.115   0.588   1.710  0.00  0.00    -0.187 NA
ATOM     26  H   UNL     1      -3.136  -0.296   2.110  0.00  0.00    +0.148 HD
BRANCH  25  27
ATOM     27  C   UNL     1      -3.480   1.762   2.506  0.00  0.00    +0.077 C 
ATOM     28  C   UNL     1      -2.259   2.248   3.289  0.00  0.00    +0.020 C 
ATOM     29  C   UNL     1      -2.640   3.474   4.121  0.00  0.00    +0.002 C 
ATOM     30  C   UNL     1      -3.756   3.100   5.098  0.00  0.00    +0.000 C 
ATOM     31  C   UNL     1      -4.978   2.614   4.315  0.00  0.00    +0.002 C 
ATOM     32  C   UNL     1      -4.596   1.388   3.484  0.00  0.00    +0.020 C 
ENDBRANCH  25  27
ENDBRANCH  22  25
ENDBRANCH   9  22
TORSDOF 4
