REMARK  Name = ZINC06166478
REMARK  6 active torsions:
REMARK  status: ('A' for Active; 'I' for Inactive)
REMARK    1  A    between atoms: C_1  and  C_2
REMARK    2  A    between atoms: N_13  and  C_16
REMARK    3  A    between atoms: C_16  and  C_18
REMARK    4  A    between atoms: C_16  and  C_19
REMARK    5  A    between atoms: N_21  and  N_22
REMARK    6  A    between atoms: C_23  and  C_24
REMARK                            x       y       z     vdW  Elec       q    Type
REMARK                         _______ _______ _______ _____ _____    ______ ____
ROOT
ATOM      1  C   UNL     1      -0.008   1.073   0.015  0.00  0.00    +0.176 C 
ATOM      2  C   UNL     1      -0.751   1.588  -1.219  0.00  0.00    +0.041 C 
ENDROOT
BRANCH   1  14
ATOM      3  C   UNL     1      -4.211  -1.743   7.720  0.00  0.00    +0.008 C 
ATOM      4  C   UNL     1      -3.308  -1.059   6.692  0.00  0.00    -0.009 C 
ATOM      5  C   UNL     1      -3.495  -1.720   5.323  0.00  0.00    +0.008 C 
ATOM      6  C   UNL     1      -2.427  -1.215   4.352  0.00  0.00    +0.037 C 
ATOM      7  C   UNL     1      -2.439   0.311   4.355  0.00  0.00    -0.023 A 
ATOM      8  C   UNL     1      -3.013   0.993   5.368  0.00  0.00    -0.004 A 
ATOM      9  S   UNL     1      -2.793   2.703   4.953  0.00  0.00    -0.073 S 
ATOM     10  C   UNL     1      -1.928   2.494   3.417  0.00  0.00    +0.116 A 
ATOM     11  C   UNL     1      -1.841   1.100   3.279  0.00  0.00    +0.076 A 
ATOM     12  C   UNL     1      -1.175   0.635   2.098  0.00  0.00    +0.263 A 
ATOM     13  O   UNL     1      -1.049  -0.559   1.887  0.00  0.00    -0.267 OA
ATOM     14  N   UNL     1      -0.691   1.538   1.225  0.00  0.00    -0.287 N 
ATOM     15  C   UNL     1      -0.818   2.872   1.446  0.00  0.00    +0.204 A 
ATOM     16  N   UNL     1      -1.425   3.326   2.510  0.00  0.00    -0.230 NA
ATOM     17  C   UNL     1      -3.688   0.424   6.579  0.00  0.00    +0.046 C 
ENDBRANCH   1  14
BRANCH   1  18
ATOM     18  C   UNL     1       1.406   1.595   0.005  0.00  0.00    +0.255 C 
ATOM     19  O   UNL     1       1.804   2.287   0.918  0.00  0.00    -0.272 OA
ATOM     20  N   UNL     1       2.228   1.292  -1.019  0.00  0.00    -0.205 N 
ATOM     21  H   UNL     1       1.910   0.739  -1.750  0.00  0.00    +0.177 HD
BRANCH  20  22
ATOM     22  N   UNL     1       3.542   1.777  -1.029  0.00  0.00    -0.188 NA
ATOM     23  C   UNL     1       4.335   1.486  -2.017  0.00  0.00    +0.139 C 
BRANCH  23  24
ATOM     24  C   UNL     1       5.715   1.995  -2.027  0.00  0.00    +0.002 A 
ATOM     25  C   UNL     1       6.608   1.603  -3.017  0.00  0.00    +0.010 A 
ATOM     26  C   UNL     1       7.908   2.090  -3.027  0.00  0.00    +0.001 A 
ATOM     27  C   UNL     1       8.361   2.950  -2.075  0.00  0.00    +0.008 A 
ATOM     28  C   UNL     1       7.514   3.385  -1.041  0.00  0.00    -0.017 A 
ATOM     29  C   UNL     1       6.177   2.919  -0.994  0.00  0.00    -0.009 A 
ATOM     30  C   UNL     1       5.330   3.350   0.034  0.00  0.00    +0.009 A 
ATOM     31  C   UNL     1       5.802   4.213   0.978  0.00  0.00    +0.001 A 
ATOM     32  C   UNL     1       7.116   4.673   0.935  0.00  0.00    +0.001 A 
ATOM     33  C   UNL     1       7.966   4.274  -0.051  0.00  0.00    +0.008 A 
ENDBRANCH  23  24
ENDBRANCH  20  22
ENDBRANCH   1  18
TORSDOF 4
