REMARK  Name = ZINC59015180
REMARK  10 active torsions:
REMARK  status: ('A' for Active; 'I' for Inactive)
REMARK    1  A    between atoms: C_1  and  C_2
REMARK    2  A    between atoms: C_2  and  C_3
REMARK    3  A    between atoms: C_2  and  C_4
REMARK    4  A    between atoms: C_4  and  S_5
REMARK    5  A    between atoms: S_5  and  C_6
REMARK    6  A    between atoms: C_12  and  C_14
REMARK    7  A    between atoms: C_14  and  S_15
REMARK    8  A    between atoms: S_15  and  C_16
REMARK    9  A    between atoms: N_21  and  N_22
REMARK   10  A    between atoms: C_23  and  C_24
REMARK                            x       y       z     vdW  Elec       q    Type
REMARK                         _______ _______ _______ _____ _____    ______ ____
ROOT
ATOM      1  C   UNL     1       6.168  -4.234  10.488  0.00  0.00    +0.211 A 
ATOM      2  N   UNL     1       7.273  -4.893  10.853  0.00  0.00    -0.186 NA
ATOM      3  C   UNL     1       7.312  -5.000  12.164  0.00  0.00    +0.232 A 
ATOM      4  N   UNL     1       6.212  -4.399  12.665  0.00  0.00    -0.245 N 
ATOM      5  N   UNL     1       5.492  -3.908  11.564  0.00  0.00    -0.144 NA
ATOM      6  N   UNL     1       8.306  -5.620  12.900  0.00  0.00    -0.205 N 
ATOM      7  H   UNL     1       8.247  -5.648  13.868  0.00  0.00    +0.177 HD
ATOM      8  H   UNL     1       5.968  -4.320  13.601  0.00  0.00    +0.192 HD
ENDROOT
BRANCH   6   9
ATOM      9  N   UNL     1       9.399  -6.205  12.247  0.00  0.00    -0.188 NA
ATOM     10  C   UNL     1      10.332  -6.787  12.938  0.00  0.00    +0.139 C 
BRANCH  10  11
ATOM     11  C   UNL     1      11.481  -7.403  12.251  0.00  0.00    +0.013 A 
ATOM     12  C   UNL     1      12.485  -8.035  12.990  0.00  0.00    +0.011 A 
ATOM     13  C   UNL     1      13.557  -8.609  12.341  0.00  0.00    +0.001 A 
ATOM     14  C   UNL     1      13.642  -8.561  10.961  0.00  0.00    +0.001 A 
ATOM     15  C   UNL     1      12.654  -7.938  10.221  0.00  0.00    +0.020 A 
ATOM     16  C   UNL     1      11.570  -7.364  10.856  0.00  0.00    +0.050 A 
ATOM     17 CL   UNL     1      10.326  -6.589   9.926  0.00  0.00    -0.083 Cl
ENDBRANCH  10  11
ENDBRANCH   6   9
BRANCH   1  18
ATOM     18  S   UNL     1       5.700  -3.857   8.832  0.00  0.00    -0.075 S 
BRANCH  18  19
ATOM     19  C   UNL     1       4.134  -2.958   9.012  0.00  0.00    +0.173 C 
BRANCH  19  26
ATOM     20  C   UNL     1       0.781  -0.698   4.053  0.00  0.00    +0.160 A 
ATOM     21  N   UNL     1       1.927  -1.362   4.025  0.00  0.00    -0.133 NA
ATOM     22  N   UNL     1       2.495  -1.758   5.079  0.00  0.00    -0.125 NA
ATOM     23  C   UNL     1       1.982  -1.535   6.278  0.00  0.00    +0.189 A 
ATOM     24  S   UNL     1       0.502  -0.636   5.821  0.00  0.00    -0.024 S 
ATOM     25  N   UNL     1       2.460  -1.892   7.537  0.00  0.00    -0.263 N 
ATOM     26  C   UNL     1       3.617  -2.572   7.650  0.00  0.00    +0.229 C 
ATOM     27  O   UNL     1       4.244  -2.874   6.656  0.00  0.00    -0.275 OA
ATOM     28  H   UNL     1       1.959  -1.651   8.332  0.00  0.00    +0.157 HD
BRANCH  20  29
ATOM     29  S   UNL     1      -0.187  -0.052   2.730  0.00  0.00    -0.097 S 
BRANCH  29  30
ATOM     30  C   UNL     1       0.742  -0.511   1.242  0.00  0.00    +0.079 C 
BRANCH  30  32
ATOM     31  C   UNL     1      -0.019   1.526   0.010  0.00  0.00    +0.008 C 
ATOM     32  C   UNL     1       0.002  -0.004   0.002  0.00  0.00    -0.007 C 
ATOM     33  C   UNL     1       0.718  -0.497  -1.257  0.00  0.00    +0.008 C 
ENDBRANCH  30  32
ENDBRANCH  29  30
ENDBRANCH  20  29
ENDBRANCH  19  26
ENDBRANCH  18  19
ENDBRANCH   1  18
TORSDOF 8
