REMARK  Name = ZINC06572935
REMARK  9 active torsions:
REMARK  status: ('A' for Active; 'I' for Inactive)
REMARK    1  A    between atoms: C_1  and  C_2
REMARK    2  A    between atoms: C_5  and  C_27
REMARK    3  A    between atoms: C_6  and  N_8
REMARK    4  A    between atoms: N_8  and  C_9
REMARK    5  A    between atoms: C_9  and  N_11
REMARK    6  A    between atoms: N_11  and  C_12
REMARK    7  A    between atoms: N_11  and  C_18
REMARK    8  A    between atoms: C_12  and  C_13
REMARK    9  A    between atoms: C_18  and  C_19
REMARK                            x       y       z     vdW  Elec       q    Type
REMARK                         _______ _______ _______ _____ _____    ______ ____
ROOT
ATOM      1  N   UNL     1       0.266  -2.819   4.717  0.00  0.00    -0.301 N 
ENDROOT
BRANCH   1   2
ATOM      2  C   UNL     1       0.149  -2.135   3.562  0.00  0.00    +0.138 C 
ATOM      3  S   UNL     1       0.127  -0.423   3.580  0.00  0.00    -0.018 S 
BRANCH   2   4
ATOM      4  N   UNL     1       0.051  -2.797   2.392  0.00  0.00    -0.297 N 
ATOM      5  H   UNL     1      -0.016  -3.765   2.387  0.00  0.00    +0.154 HD
BRANCH   4  11
ATOM      6  C   UNL     1       1.918   0.768  -0.431  0.00  0.00    +0.044 C 
ATOM      7  C   UNL     1       0.940  -0.357  -0.210  0.00  0.00    -0.049 A 
ATOM      8  C   UNL     1       0.035  -0.690  -1.201  0.00  0.00    +0.004 A 
ATOM      9  C   UNL     1      -0.865  -1.721  -1.002  0.00  0.00    +0.005 A 
ATOM     10  C   UNL     1      -0.862  -2.422   0.188  0.00  0.00    -0.029 A 
ATOM     11  C   UNL     1       0.046  -2.090   1.185  0.00  0.00    +0.036 A 
ATOM     12  C   UNL     1       0.952  -1.057   0.980  0.00  0.00    +0.027 A 
ATOM     13  C   UNL     1      -1.842  -3.546   0.405  0.00  0.00    +0.045 C 
ENDBRANCH   4  11
ENDBRANCH   2   4
ENDBRANCH   1   2
BRANCH   1  14
ATOM     14  C   UNL     1       0.285  -4.284   4.701  0.00  0.00    +0.181 C 
BRANCH  14  15
ATOM     15  C   UNL     1       1.707  -4.766   4.565  0.00  0.00    +0.122 A 
ATOM     16  C   UNL     1       2.547  -5.033   5.581  0.00  0.00    +0.046 A 
ATOM     17  C   UNL     1       3.767  -5.454   5.003  0.00  0.00    +0.041 A 
ATOM     18  C   UNL     1       3.599  -5.419   3.669  0.00  0.00    +0.195 A 
ATOM     19  O   UNL     1       2.347  -5.007   3.410  0.00  0.00    -0.466 OA
ENDBRANCH  14  15
ENDBRANCH   1  14
BRANCH   1  20
ATOM     20  C   UNL     1       0.373  -2.099   5.988  0.00  0.00    +0.146 C 
BRANCH  20  21
ATOM     21  C   UNL     1      -1.006  -1.872   6.554  0.00  0.00    +0.023 A 
ATOM     22  C   UNL     1      -1.710  -0.727   6.224  0.00  0.00    +0.129 A 
ATOM     23  C   UNL     1      -2.976  -0.520   6.745  0.00  0.00    +0.039 A 
ATOM     24  C   UNL     1      -3.536  -1.456   7.594  0.00  0.00    +0.004 A 
ATOM     25  C   UNL     1      -2.832  -2.599   7.923  0.00  0.00    +0.020 A 
ATOM     26  C   UNL     1      -1.569  -2.810   7.399  0.00  0.00    +0.048 A 
ATOM     27 CL   UNL     1      -0.689  -4.250   7.808  0.00  0.00    -0.083 Cl
ATOM     28  F   UNL     1      -1.163   0.188   5.394  0.00  0.00    -0.205 F 
ENDBRANCH  20  21
ENDBRANCH   1  20
TORSDOF 7
