REMARK  Name = ZINC63526561
REMARK  8 active torsions:
REMARK  status: ('A' for Active; 'I' for Inactive)
REMARK    1  A    between atoms: C_1  and  C_2
REMARK    2  A    between atoms: C_4  and  C_12
REMARK    3  A    between atoms: C_12  and  C_13
REMARK    4  A    between atoms: C_13  and  N_14
REMARK    5  A    between atoms: C_15  and  C_17
REMARK    6  A    between atoms: C_24  and  C_28
REMARK    7  A    between atoms: C_24  and  C_29
REMARK    8  A    between atoms: N_30  and  C_33
REMARK                            x       y       z     vdW  Elec       q    Type
REMARK                         _______ _______ _______ _____ _____    ______ ____
ROOT
ATOM      1  C   UNL     1      -6.908  -1.462  -2.593  0.00  0.00    +0.096 C 
ATOM      2  C   UNL     1      -8.131  -1.493  -2.015  0.00  0.00    +0.004 C 
ATOM      3  C   UNL     1      -9.227  -0.663  -2.619  0.00  0.00    +0.100 C 
ATOM      4  C   UNL     1      -9.096  -0.675  -4.143  0.00  0.00    +0.096 C 
ATOM      5  C   UNL     1     -10.204   0.177  -4.749  0.00  0.00    +0.030 C 
ATOM      6  C   UNL     1     -11.558  -0.469  -4.438  0.00  0.00    -0.026 C 
ATOM      7  C   UNL     1     -11.786  -0.520  -2.925  0.00  0.00    +0.081 C 
ATOM      8  C   UNL     1     -10.596  -1.199  -2.278  0.00  0.00    +0.142 C 
ATOM      9  O   UNL     1     -10.739  -2.120  -1.510  0.00  0.00    -0.297 OA
ATOM     10  C   UNL     1     -11.584  -1.890  -5.002  0.00  0.00    +0.011 C 
ATOM     11  C   UNL     1     -12.673   0.352  -5.090  0.00  0.00    +0.011 C 
ATOM     12  N   UNL     1      -7.768  -0.213  -4.528  0.00  0.00    -0.263 N 
ATOM     13  C   UNL     1      -6.697  -0.652  -3.811  0.00  0.00    +0.256 C 
ATOM     14  O   UNL     1      -5.569  -0.374  -4.170  0.00  0.00    -0.269 OA
ENDROOT
BRANCH  12  15
ATOM     15  C   UNL     1      -7.603   0.650  -5.615  0.00  0.00    +0.038 A 
ATOM     16  C   UNL     1      -7.461   2.015  -5.405  0.00  0.00    +0.023 A 
ATOM     17  C   UNL     1      -7.297   2.866  -6.481  0.00  0.00    +0.003 A 
ATOM     18  C   UNL     1      -7.274   2.359  -7.767  0.00  0.00    +0.020 A 
ATOM     19  C   UNL     1      -7.415   1.000  -7.981  0.00  0.00    +0.043 A 
ATOM     20  C   UNL     1      -7.574   0.143  -6.908  0.00  0.00    +0.043 A 
ATOM     21 CL   UNL     1      -7.386   0.368  -9.598  0.00  0.00    -0.083 Cl
ENDBRANCH  12  15
BRANCH   1  23
ATOM     22  N   UNL     1      -4.607  -2.290  -2.649  0.00  0.00    -0.311 N 
ATOM     23  C   UNL     1      -5.790  -2.229  -2.008  0.00  0.00    +0.249 C 
ATOM     24  O   UNL     1      -5.937  -2.804  -0.947  0.00  0.00    -0.270 OA
ATOM     25  H   UNL     1      -4.511  -1.895  -3.530  0.00  0.00    +0.149 HD
BRANCH  22  26
ATOM     26  C   UNL     1      -3.464  -2.955  -2.017  0.00  0.00    +0.109 C 
BRANCH  26  27
ATOM     27  C   UNL     1      -2.253  -2.885  -2.949  0.00  0.00    +0.052 C 
BRANCH  27  30
ATOM     28  C   UNL     1       0.940  -2.356  -3.123  0.00  0.00    +0.035 C 
ATOM     29  C   UNL     1       0.312  -3.728  -2.872  0.00  0.00    +0.103 C 
ATOM     30  C   UNL     1      -1.078  -3.568  -2.299  0.00  0.00    -0.037 C 
ATOM     31  C   UNL     1      -1.054  -4.163  -1.084  0.00  0.00    -0.001 A 
ATOM     32  C   UNL     1      -2.074  -4.344  -0.045  0.00  0.00    +0.010 A 
ATOM     33  C   UNL     1      -1.744  -4.997   1.092  0.00  0.00    +0.001 A 
ATOM     34  C   UNL     1      -0.454  -5.505   1.302  0.00  0.00    +0.002 A 
ATOM     35  C   UNL     1       0.537  -5.377   0.395  0.00  0.00    +0.026 A 
ATOM     36  C   UNL     1       0.301  -4.708  -0.838  0.00  0.00    +0.043 A 
ATOM     37  N   UNL     1       1.084  -4.460  -1.861  0.00  0.00    -0.378 N 
ATOM     38  H   UNL     1       2.016  -4.717  -1.938  0.00  0.00    +0.160 HD
ENDBRANCH  27  30
ENDBRANCH  26  27
ENDBRANCH  22  26
ENDBRANCH   1  23
TORSDOF 5
