REMARK  Name = ZINC14466515
REMARK  7 active torsions:
REMARK  status: ('A' for Active; 'I' for Inactive)
REMARK    1  A    between atoms: C_1  and  C_2
REMARK    2  A    between atoms: C_2  and  O_3
REMARK    3  A    between atoms: O_3  and  C_4
REMARK    4  A    between atoms: C_4  and  C_5
REMARK    5  A    between atoms: C_5  and  O_6
REMARK    6  A    between atoms: O_6  and  C_7
REMARK    7  A    between atoms: C_20  and  C_23
REMARK                            x       y       z     vdW  Elec       q    Type
REMARK                         _______ _______ _______ _____ _____    ______ ____
ROOT
ATOM      1  C   UNL     1       0.061   7.924  -1.947  0.00  0.00    +0.121 A 
ATOM      2  C   UNL     1       0.186   8.181  -0.590  0.00  0.00    +0.047 A 
ATOM      3  C   UNL     1       0.900   7.309   0.207  0.00  0.00    +0.027 A 
ATOM      4  C   UNL     1       1.491   6.181  -0.349  0.00  0.00    +0.032 A 
ATOM      5  C   UNL     1       1.372   5.920  -1.705  0.00  0.00    -0.016 A 
ATOM      6  C   UNL     1       0.650   6.801  -2.500  0.00  0.00    +0.051 A 
ATOM      7  C   UNL     1       1.997   4.723  -2.347  0.00  0.00    +0.049 C 
ATOM      8  C   UNL     1       0.967   3.668  -2.671  0.00  0.00    -0.023 C 
ATOM      9  C   UNL     1       1.473   2.467  -2.487  0.00  0.00    -0.030 C 
ATOM     10  C   UNL     1       2.913   2.563  -2.020  0.00  0.00    +0.033 C 
ATOM     11  C   UNL     1       3.004   4.000  -1.427  0.00  0.00    +0.029 C 
ATOM     12  C   UNL     1       2.451   3.939  -0.000  0.00  0.00    +0.106 C 
ATOM     13  N   UNL     1       2.211   5.306   0.476  0.00  0.00    -0.336 N 
ATOM     14  H   UNL     1       2.542   5.596   1.340  0.00  0.00    +0.147 HD
ENDROOT
BRANCH  12  15
ATOM     15  C   UNL     1       1.157   3.167   0.007  0.00  0.00    -0.009 A 
ATOM     16  C   UNL     1      -0.034   3.811  -0.275  0.00  0.00    +0.007 A 
ATOM     17  C   UNL     1      -1.221   3.103  -0.268  0.00  0.00    +0.000 A 
ATOM     18  C   UNL     1      -1.218   1.750   0.017  0.00  0.00    +0.001 A 
ATOM     19  C   UNL     1      -0.029   1.107   0.305  0.00  0.00    +0.020 A 
ATOM     20  C   UNL     1       1.160   1.815   0.298  0.00  0.00    +0.046 A 
ATOM     21 CL   UNL     1       2.654   1.006   0.653  0.00  0.00    -0.083 Cl
ENDBRANCH  12  15
BRANCH   1  22
ATOM     22  O   UNL     1      -0.644   8.778  -2.737  0.00  0.00    -0.490 OA
BRANCH  22  23
ATOM     23  C   UNL     1      -1.227   9.918  -2.102  0.00  0.00    +0.257 C 
BRANCH  23  24
ATOM     24  C   UNL     1      -1.973  10.755  -3.142  0.00  0.00    +0.200 C 
BRANCH  24  25
ATOM     25  O   UNL     1      -3.075  10.005  -3.656  0.00  0.00    -0.377 OA
BRANCH  25  27
ATOM     26  C   UNL     1      -4.989   9.806  -5.118  0.00  0.00    +0.034 C 
ATOM     27  C   UNL     1      -3.843  10.700  -4.641  0.00  0.00    +0.156 C 
ENDBRANCH  25  27
ENDBRANCH  24  25
ENDBRANCH  23  24
ENDBRANCH  22  23
ENDBRANCH   1  22
TORSDOF 6
