REMARK  Name = ZINC52603793
REMARK  9 active torsions:
REMARK  status: ('A' for Active; 'I' for Inactive)
REMARK    1  A    between atoms: C_4  and  C_32
REMARK    2  A    between atoms: C_5  and  C_7
REMARK    3  A    between atoms: C_7  and  N_8
REMARK    4  A    between atoms: C_9  and  C_11
REMARK    5  A    between atoms: C_11  and  N_12
REMARK    6  A    between atoms: C_16  and  N_20
REMARK    7  A    between atoms: N_20  and  C_21
REMARK    8  A    between atoms: C_21  and  C_22
REMARK    9  A    between atoms: C_22  and  C_23
REMARK                            x       y       z     vdW  Elec       q    Type
REMARK                         _______ _______ _______ _____ _____    ______ ____
ROOT
ATOM      1  N   UNL     1       1.825  -5.978   2.955  0.00  0.00    -0.269 N 
ATOM      2  C   UNL     1       0.579  -6.701   3.179  0.00  0.00    +0.210 C 
ATOM      3  C   UNL     1       0.841  -8.117   3.594  0.00  0.00    +0.118 C 
ATOM      4  N   UNL     1       1.935  -8.716   3.388  0.00  0.00    -0.265 NA
ATOM      5  C   UNL     1       3.078  -8.110   2.722  0.00  0.00    +0.259 C 
ATOM      6  C   UNL     1       2.985  -6.612   2.737  0.00  0.00    +0.257 C 
ATOM      7  O   UNL     1       3.989  -5.957   2.551  0.00  0.00    -0.272 OA
ATOM      8 CL   UNL     1      -0.362  -5.870   4.472  0.00  0.00    -0.095 Cl
ENDROOT
BRANCH   5   9
ATOM      9  N   UNL     1       3.123  -8.569   1.327  0.00  0.00    -0.282 NA
ATOM     10  H   UNL     1       2.228  -8.935   1.038  0.00  0.00    +0.125 HD
BRANCH   9  11
ATOM     11  C   UNL     1       4.186  -9.565   1.135  0.00  0.00    +0.165 C 
BRANCH  11  12
ATOM     12  C   UNL     1       4.201 -10.019  -0.326  0.00  0.00    +0.302 C 
ATOM     13  F   UNL     1       2.965 -10.588  -0.651  0.00  0.00    -0.197 F 
ATOM     14  F   UNL     1       4.439  -8.917  -1.154  0.00  0.00    -0.197 F 
BRANCH  12  15
ATOM     15  C   UNL     1       5.291 -11.040  -0.524  0.00  0.00    +0.111 A 
ATOM     16  C   UNL     1       5.495 -11.589  -1.776  0.00  0.00    +0.029 A 
ATOM     17  C   UNL     1       6.500 -12.528  -1.947  0.00  0.00    +0.003 A 
ATOM     18  C   UNL     1       7.267 -12.881  -0.847  0.00  0.00    +0.020 A 
ATOM     19  C   UNL     1       7.006 -12.290   0.374  0.00  0.00    +0.111 A 
ATOM     20  N   UNL     1       6.044 -11.396   0.499  0.00  0.00    -0.254 NA
ENDBRANCH  12  15
ENDBRANCH  11  12
ENDBRANCH   9  11
ENDBRANCH   5   9
BRANCH   1  21
ATOM     21  C   UNL     1       1.808  -4.513   2.963  0.00  0.00    +0.205 C 
BRANCH  21  23
ATOM     22  N   UNL     1       1.480  -2.680   1.334  0.00  0.00    -0.310 N 
ATOM     23  C   UNL     1       1.542  -4.006   1.569  0.00  0.00    +0.231 C 
ATOM     24  O   UNL     1       1.382  -4.791   0.658  0.00  0.00    -0.274 OA
ATOM     25  H   UNL     1       1.608  -2.053   2.062  0.00  0.00    +0.149 HD
BRANCH  22  26
ATOM     26  C   UNL     1       1.222  -2.188  -0.021  0.00  0.00    +0.140 C 
BRANCH  26  31
ATOM     27  C   UNL     1      -0.017   1.380   0.010  0.00  0.00    +0.000 A 
ATOM     28  C   UNL     1       1.168   2.095   0.002  0.00  0.00    +0.001 A 
ATOM     29  C   UNL     1       2.377   1.433  -0.013  0.00  0.00    +0.010 A 
ATOM     30  C   UNL     1       2.405   0.035  -0.021  0.00  0.00    +0.003 A 
ATOM     31  C   UNL     1       1.204  -0.681  -0.013  0.00  0.00    -0.021 A 
ATOM     32  C   UNL     1       0.002  -0.004   0.002  0.00  0.00    +0.006 A 
BRANCH  30  33
ATOM     33  C   UNL     1       3.691  -0.680  -0.037  0.00  0.00    +0.076 C 
ATOM     34  N   UNL     1       3.874  -1.971  -0.052  0.00  0.00    -0.154 NA
ATOM     35  N   UNL     1       5.223  -2.311  -0.066  0.00  0.00    -0.161 NA
ATOM     36  C   UNL     1       5.995  -1.273  -0.061  0.00  0.00    +0.114 C 
ATOM     37  C   UNL     1       5.078  -0.067  -0.048  0.00  0.00    +0.107 C 
ENDBRANCH  30  33
ENDBRANCH  26  31
ENDBRANCH  22  26
ENDBRANCH  21  23
ENDBRANCH   1  21
TORSDOF 9
