REMARK  Name = ZINC09863052
REMARK  10 active torsions:
REMARK  status: ('A' for Active; 'I' for Inactive)
REMARK    1  A    between atoms: C_1  and  C_2
REMARK    2  A    between atoms: C_6  and  O_8
REMARK    3  A    between atoms: O_8  and  C_9
REMARK    4  A    between atoms: C_9  and  C_10
REMARK    5  A    between atoms: C_13  and  S_15
REMARK    6  A    between atoms: S_15  and  C_16
REMARK    7  A    between atoms: C_16  and  C_18
REMARK    8  A    between atoms: C_16  and  C_19
REMARK    9  A    between atoms: N_21  and  C_22
REMARK   10  A    between atoms: C_23  and  C_32
REMARK                            x       y       z     vdW  Elec       q    Type
REMARK                         _______ _______ _______ _____ _____    ______ ____
ROOT
ATOM      1  C   UNL     1      -0.729   1.579   1.267  0.00  0.00    +0.139 C 
ATOM      2  C   UNL     1      -0.013   1.086   0.008  0.00  0.00    +0.029 C 
ENDROOT
BRANCH   1   3
ATOM      3  C   UNL     1      -0.749   3.086   1.275  0.00  0.00    +0.231 C 
ATOM      4  O   UNL     1      -1.748   3.681   0.929  0.00  0.00    -0.274 OA
ATOM      5  N   UNL     1       0.342   3.773   1.668  0.00  0.00    -0.278 N 
ATOM      6  H   UNL     1       1.141   3.297   1.945  0.00  0.00    +0.155 HD
BRANCH   5   7
ATOM      7  C   UNL     1       0.323   5.160   1.675  0.00  0.00    +0.090 A 
ATOM      8  C   UNL     1       1.335   6.033   2.041  0.00  0.00    +0.084 A 
ATOM      9  C   UNL     1       1.062   7.461   1.957  0.00  0.00    -0.018 A 
ATOM     10  C   UNL     1      -0.179   7.779   1.530  0.00  0.00    -0.004 A 
ATOM     11  S   UNL     1      -0.968   6.222   1.222  0.00  0.00    -0.077 S 
ATOM     12  C   UNL     1      -0.765   9.145   1.353  0.00  0.00    +0.043 C 
ATOM     13  C   UNL     1       0.216  10.016   0.557  0.00  0.00    +0.005 C 
ATOM     14  C   UNL     1       1.157  10.706   1.539  0.00  0.00    +0.001 C 
ATOM     15  C   UNL     1       1.413   9.803   2.744  0.00  0.00    +0.005 C 
ATOM     16  C   UNL     1       2.104   8.515   2.309  0.00  0.00    +0.037 C 
BRANCH   8  17
ATOM     17  C   UNL     1       2.606   5.548   2.487  0.00  0.00    +0.102 C 
ATOM     18  N   UNL     1       3.614   5.163   2.841  0.00  0.00    -0.191 NA
ENDBRANCH   8  17
ENDBRANCH   5   7
ENDBRANCH   1   3
BRANCH   1  19
ATOM     19  S   UNL     1      -2.427   0.953   1.280  0.00  0.00    -0.053 S 
BRANCH  19  23
ATOM     20  C   UNL     1      -2.359  -2.912   1.577  0.00  0.00    +0.255 A 
ATOM     21  N   UNL     1      -1.091  -2.624   1.582  0.00  0.00    -0.108 NA
ATOM     22  N   UNL     1      -0.937  -1.350   1.488  0.00  0.00    -0.101 NA
ATOM     23  C   UNL     1      -2.114  -0.776   1.419  0.00  0.00    +0.278 A 
ATOM     24  O   UNL     1      -3.039  -1.752   1.480  0.00  0.00    -0.412 OA
BRANCH  20  25
ATOM     25  C   UNL     1      -2.960  -4.291   1.670  0.00  0.00    +0.326 C 
BRANCH  25  26
ATOM     26  O   UNL     1      -3.178  -4.623   3.043  0.00  0.00    -0.483 OA
BRANCH  26  32
ATOM     27  C   UNL     1      -4.765  -7.894   6.300  0.00  0.00    +0.044 C 
ATOM     28  C   UNL     1      -4.506  -7.471   4.877  0.00  0.00    -0.047 A 
ATOM     29  C   UNL     1      -4.819  -8.325   3.835  0.00  0.00    +0.003 A 
ATOM     30  C   UNL     1      -4.582  -7.940   2.528  0.00  0.00    +0.004 A 
ATOM     31  C   UNL     1      -4.033  -6.701   2.260  0.00  0.00    +0.045 A 
ATOM     32  C   UNL     1      -3.718  -5.843   3.304  0.00  0.00    +0.121 A 
ATOM     33  C   UNL     1      -3.952  -6.233   4.615  0.00  0.00    +0.049 A 
ENDBRANCH  26  32
ENDBRANCH  25  26
ENDBRANCH  20  25
ENDBRANCH  19  23
ENDBRANCH   1  19
TORSDOF 8
