REMARK  Name = ZINC52834376
REMARK  4 active torsions:
REMARK  status: ('A' for Active; 'I' for Inactive)
REMARK    1  A    between atoms: C_1  and  C_2
REMARK    2  A    between atoms: C_6  and  C_13
REMARK    3  A    between atoms: C_13  and  N_14
REMARK    4  A    between atoms: C_21  and  C_23
REMARK                            x       y       z     vdW  Elec       q    Type
REMARK                         _______ _______ _______ _____ _____    ______ ____
ROOT
ATOM      1  N   UNL     1      -1.315  -5.181  -1.794  0.00  0.00    -0.289 NA
ATOM      2  C   UNL     1      -1.952  -3.892  -2.016  0.00  0.00    +0.104 C 
ATOM      3  C   UNL     1      -3.472  -4.044  -2.112  0.00  0.00    +0.119 C 
ATOM      4  N   UNL     1      -3.822  -4.378  -3.503  0.00  0.00    -0.314 N 
ATOM      5  C   UNL     1      -3.520  -5.581  -4.000  0.00  0.00    +0.215 C 
ATOM      6  O   UNL     1      -3.814  -5.856  -5.144  0.00  0.00    -0.276 OA
ATOM      7  C   UNL     1      -2.810  -6.600  -3.133  0.00  0.00    +0.119 C 
ATOM      8  C   UNL     1      -1.373  -6.122  -2.904  0.00  0.00    +0.096 C 
ATOM      9  H   UNL     1      -4.274  -3.723  -4.059  0.00  0.00    +0.149 HD
ENDROOT
BRANCH   8  10
ATOM     10  C   UNL     1      -0.498  -7.309  -2.595  0.00  0.00    -0.030 A 
ATOM     11  C   UNL     1      -0.474  -7.836  -1.317  0.00  0.00    +0.005 A 
ATOM     12  C   UNL     1       0.328  -8.926  -1.034  0.00  0.00    +0.000 A 
ATOM     13  C   UNL     1       1.106  -9.488  -2.029  0.00  0.00    +0.000 A 
ATOM     14  C   UNL     1       1.081  -8.962  -3.307  0.00  0.00    +0.000 A 
ATOM     15  C   UNL     1       0.276  -7.876  -3.591  0.00  0.00    +0.005 A 
ENDBRANCH   8  10
BRANCH   1  16
ATOM     16  C   UNL     1       0.066  -5.012  -1.320  0.00  0.00    +0.121 C 
BRANCH  16  22
ATOM     17  C   UNL     1      -0.018   1.503   0.010  0.00  0.00    +0.044 C 
ATOM     18  C   UNL     1       0.002  -0.004   0.002  0.00  0.00    -0.047 A 
ATOM     19  C   UNL     1       0.006  -0.684  -1.207  0.00  0.00    +0.004 A 
ATOM     20  C   UNL     1       0.025  -2.050  -1.235  0.00  0.00    +0.012 A 
ATOM     21  C   UNL     1       0.040  -2.768  -0.035  0.00  0.00    +0.022 A 
ATOM     22  C   UNL     1       0.061  -4.234  -0.030  0.00  0.00    -0.016 A 
ATOM     23  C   UNL     1       0.077  -4.870   1.169  0.00  0.00    +0.097 A 
ATOM     24  C   UNL     1       0.072  -4.118   2.363  0.00  0.00    +0.338 A 
ATOM     25  O   UNL     1       0.086  -4.701   3.432  0.00  0.00    -0.245 OA
ATOM     26  O   UNL     1       0.053  -2.776   2.350  0.00  0.00    -0.422 OA
ATOM     27  C   UNL     1       0.037  -2.082   1.193  0.00  0.00    +0.140 A 
ATOM     28  C   UNL     1       0.023  -0.693   1.196  0.00  0.00    +0.050 A 
ENDBRANCH  16  22
ENDBRANCH   1  16
TORSDOF 3
