REMARK  Name = ZINC08858872
REMARK  13 active torsions:
REMARK  status: ('A' for Active; 'I' for Inactive)
REMARK    1  A    between atoms: C_1  and  C_2
REMARK    2  A    between atoms: C_2  and  C_3
REMARK    3  A    between atoms: C_2  and  C_4
REMARK    4  A    between atoms: C_4  and  O_5
REMARK    5  A    between atoms: O_5  and  C_6
REMARK    6  A    between atoms: C_9  and  C_14
REMARK    7  A    between atoms: C_11  and  O_12
REMARK    8  A    between atoms: O_12  and  C_13
REMARK    9  A    between atoms: N_15  and  N_16
REMARK   10  A    between atoms: C_17  and  C_27
REMARK   11  A    between atoms: N_18  and  C_19
REMARK   12  A    between atoms: C_24  and  O_25
REMARK   13  A    between atoms: O_25  and  C_26
REMARK                            x       y       z     vdW  Elec       q    Type
REMARK                         _______ _______ _______ _____ _____    ______ ____
ROOT
ATOM      1  N   UNL     1      -0.502   7.816  -0.012  0.00  0.00    -0.262 N 
ATOM      2  C   UNL     1       0.787   7.329  -0.032  0.00  0.00    +0.143 C 
ATOM      3  N   UNL     1       0.998   6.037  -0.102  0.00  0.00    -0.295 N 
ATOM      4  H   UNL     1      -1.352   7.120   0.040  0.00  0.00    +0.190 HD
ATOM      5  H   UNL     1       2.021   5.641  -0.011  0.00  0.00    +0.154 HD
ENDROOT
BRANCH   2   6
ATOM      6  C   UNL     1       1.931   8.264   0.025  0.00  0.00    +0.104 A 
ATOM      7  C   UNL     1       3.236   7.748   0.098  0.00  0.00    +0.032 A 
ATOM      8  C   UNL     1       4.300   8.600   0.152  0.00  0.00    +0.012 A 
ATOM      9  C   UNL     1       4.047   9.986   0.131  0.00  0.00    +0.000 A 
ATOM     10  C   UNL     1       5.095  10.918   0.182  0.00  0.00    +0.010 A 
ATOM     11  C   UNL     1       4.814  12.250   0.160  0.00  0.00    +0.001 A 
ATOM     12  C   UNL     1       3.498  12.703   0.092  0.00  0.00    +0.002 A 
ATOM     13  C   UNL     1       2.457  11.828   0.036  0.00  0.00    +0.028 A 
ATOM     14  C   UNL     1       2.707  10.443   0.057  0.00  0.00    +0.072 A 
ATOM     15  N   UNL     1       1.704   9.565   0.007  0.00  0.00    -0.244 NA
ENDBRANCH   2   6
BRANCH   3  16
ATOM     16  C   UNL     1      -0.051   5.182  -0.287  0.00  0.00    +0.075 A 
ATOM     17  C   UNL     1      -0.953   5.393  -1.333  0.00  0.00    +0.027 A 
ATOM     18  C   UNL     1      -2.011   4.526  -1.514  0.00  0.00    +0.002 A 
ATOM     19  C   UNL     1      -2.182   3.447  -0.664  0.00  0.00    +0.004 A 
ATOM     20  C   UNL     1      -1.296   3.227   0.374  0.00  0.00    +0.047 A 
ATOM     21  C   UNL     1      -0.226   4.084   0.567  0.00  0.00    +0.141 A 
BRANCH  21  22
ATOM     22  O   UNL     1       0.649   3.865   1.584  0.00  0.00    -0.493 OA
ATOM     23  C   UNL     1       0.408   2.727   2.414  0.00  0.00    +0.277 C 
ENDBRANCH  21  22
ENDBRANCH   3  16
BRANCH   1  25
ATOM     24  C   UNL     1      -1.936   9.662   0.064  0.00  0.00    +0.140 C 
ATOM     25  N   UNL     1      -0.730   9.198  -0.059  0.00  0.00    -0.180 NA
BRANCH  24  29
ATOM     26  C   UNL     1      -2.675  13.813  -0.458  0.00  0.00    +0.162 A 
ATOM     27  C   UNL     1      -1.411  13.296  -0.707  0.00  0.00    +0.050 A 
ATOM     28  C   UNL     1      -1.166  11.951  -0.533  0.00  0.00    +0.013 A 
ATOM     29  C   UNL     1      -2.195  11.101  -0.117  0.00  0.00    -0.002 A 
ATOM     30  C   UNL     1      -3.467  11.622   0.134  0.00  0.00    +0.059 A 
ATOM     31  C   UNL     1      -3.704  12.973  -0.037  0.00  0.00    +0.162 A 
BRANCH  31  32
ATOM     32  O   UNL     1      -4.941  13.483   0.205  0.00  0.00    -0.491 OA
ATOM     33  C   UNL     1      -5.948  12.564   0.633  0.00  0.00    +0.277 C 
ENDBRANCH  31  32
BRANCH  26  34
ATOM     34  O   UNL     1      -2.909  15.141  -0.626  0.00  0.00    -0.488 OA
BRANCH  34  35
ATOM     35  C   UNL     1      -1.810  15.945  -1.059  0.00  0.00    +0.232 C 
BRANCH  35  37
ATOM     36  C   UNL     1      -1.058  18.280  -1.533  0.00  0.00    +0.010 C 
ATOM     37  C   UNL     1      -2.263  17.400  -1.190  0.00  0.00    +0.020 C 
ATOM     38  C   UNL     1      -3.308  17.511  -2.302  0.00  0.00    +0.010 C 
ENDBRANCH  35  37
ENDBRANCH  34  35
ENDBRANCH  26  34
ENDBRANCH  24  29
ENDBRANCH   1  25
TORSDOF 9
