REMARK  Name = ZINC03351670
REMARK  13 active torsions:
REMARK  status: ('A' for Active; 'I' for Inactive)
REMARK    1  A    between atoms: C_1  and  C_2
REMARK    2  A    between atoms: C_2  and  O_3
REMARK    3  A    between atoms: O_3  and  C_4
REMARK    4  A    between atoms: C_4  and  C_6
REMARK    5  A    between atoms: C_10  and  N_11
REMARK    6  A    between atoms: C_12  and  C_14
REMARK    7  A    between atoms: C_14  and  C_16
REMARK    8  A    between atoms: C_14  and  N_65
REMARK    9  A    between atoms: C_19  and  C_22
REMARK   10  A    between atoms: C_22  and  O_24
REMARK   11  A    between atoms: O_24  and  C_25
REMARK   12  A    between atoms: C_25  and  C_26
REMARK   13  A    between atoms: C_28  and  C_32
REMARK                            x       y       z     vdW  Elec       q    Type
REMARK                         _______ _______ _______ _____ _____    ______ ____
ROOT
ATOM      1  N   UNL     1       1.774  -3.760   2.546  0.00  0.00    -0.281 N 
ATOM      2  C   UNL     1       1.600  -2.438   2.346  0.00  0.00    +0.204 C 
ATOM      3  O   UNL     1       2.208  -1.637   3.025  0.00  0.00    -0.277 OA
ATOM      4  H   UNL     1       1.287  -4.400   2.003  0.00  0.00    +0.155 HD
ENDROOT
BRANCH   1   9
ATOM      5  C   UNL     1       2.952  -5.511   3.882  0.00  0.00    +0.091 A 
ATOM      6  C   UNL     1       3.915  -5.707   4.953  0.00  0.00    -0.021 A 
ATOM      7  C   UNL     1       4.406  -4.575   5.500  0.00  0.00    -0.004 A 
ATOM      8  S   UNL     1       3.617  -3.263   4.611  0.00  0.00    -0.077 S 
ATOM      9  C   UNL     1       2.647  -4.204   3.526  0.00  0.00    +0.086 A 
ATOM     10  C   UNL     1       5.400  -4.467   6.615  0.00  0.00    +0.046 C 
ATOM     11  C   UNL     1       5.503  -5.836   7.304  0.00  0.00    -0.009 C 
ATOM     12  C   UNL     1       5.665  -6.917   6.232  0.00  0.00    +0.008 C 
ATOM     13  C   UNL     1       4.358  -7.077   5.453  0.00  0.00    +0.037 C 
ATOM     14  C   UNL     1       6.715  -5.849   8.238  0.00  0.00    +0.008 C 
BRANCH   5  15
ATOM     15  C   UNL     1       2.331  -6.649   3.200  0.00  0.00    +0.342 C 
ATOM     16  O   UNL     1       2.858  -7.129   2.215  0.00  0.00    -0.245 OA
BRANCH  15  17
ATOM     17  O   UNL     1       1.174  -7.164   3.666  0.00  0.00    -0.461 OA
BRANCH  17  19
ATOM     18  C   UNL     1      -0.686  -8.734   3.611  0.00  0.00    +0.048 C 
ATOM     19  C   UNL     1       0.616  -8.291   2.940  0.00  0.00    +0.229 C 
ENDBRANCH  17  19
ENDBRANCH  15  17
ENDBRANCH   5  15
ENDBRANCH   1   9
BRANCH   2  20
ATOM     20  C   UNL     1       0.651  -1.955   1.280  0.00  0.00    +0.016 C 
ATOM     21  C   UNL     1      -0.752  -1.809   1.874  0.00  0.00    -0.004 C 
BRANCH  20  27
ATOM     22  C   UNL     1       2.515  -0.711   0.365  0.00  0.00    -0.077 C 
ATOM     23  C   UNL     1       2.913   0.613  -0.291  0.00  0.00    -0.004 C 
ATOM     24  C   UNL     1       2.696   1.756   0.705  0.00  0.00    +0.094 C 
ATOM     25  C   UNL     1       1.231   1.763   1.150  0.00  0.00    -0.004 C 
ATOM     26  C   UNL     1       0.882   0.406   1.764  0.00  0.00    -0.077 C 
ATOM     27  N   UNL     1       1.089  -0.648   0.748  0.00  0.00    +0.387 N 
ATOM     28  H   UNL     1       0.531  -0.423  -0.084  0.00  0.00    -0.081 HD
BRANCH  24  29
ATOM     29  C   UNL     1       3.029   3.069   0.045  0.00  0.00    +0.310 C 
ATOM     30  O   UNL     1       3.401   3.090  -1.104  0.00  0.00    -0.251 OA
BRANCH  29  31
ATOM     31  O   UNL     1       2.911   4.215   0.734  0.00  0.00    -0.465 OA
BRANCH  31  32
ATOM     32  C   UNL     1       3.249   5.442   0.035  0.00  0.00    +0.229 C 
ATOM     33  C   UNL     1       3.055   6.634   0.974  0.00  0.00    +0.048 C 
ENDBRANCH  31  32
ENDBRANCH  29  31
ENDBRANCH  24  29
ENDBRANCH  20  27
ENDBRANCH   2  20
TORSDOF 9
