REMARK  Name = ZINC03027078
REMARK  6 active torsions:
REMARK  status: ('A' for Active; 'I' for Inactive)
REMARK    1  A    between atoms: C_1  and  C_2
REMARK    2  A    between atoms: C_5  and  N_9
REMARK    3  A    between atoms: C_6  and  C_8
REMARK    4  A    between atoms: N_14  and  C_19
REMARK    5  A    between atoms: C_15  and  S_17
REMARK    6  A    between atoms: S_17  and  C_18
REMARK                            x       y       z     vdW  Elec       q    Type
REMARK                         _______ _______ _______ _____ _____    ______ ____
ROOT
ATOM      1  N   UNL     1       3.591   2.119  -0.022  0.00  0.00    -0.281 N 
ATOM      2  C   UNL     1       4.208   2.431   1.164  0.00  0.00    +0.161 A 
ATOM      3  C   UNL     1       5.065   3.534   1.138  0.00  0.00    +0.122 A 
ATOM      4  C   UNL     1       5.752   3.956   2.268  0.00  0.00    +0.275 A 
ATOM      5  O   UNL     1       6.495   4.923   2.224  0.00  0.00    -0.266 OA
ATOM      6  N   UNL     1       5.574   3.268   3.421  0.00  0.00    -0.255 N 
ATOM      7  C   UNL     1       4.732   2.193   3.425  0.00  0.00    +0.178 A 
ATOM      8  N   UNL     1       4.087   1.797   2.356  0.00  0.00    -0.204 NA
ATOM      9  S   UNL     1       4.967   4.084  -0.546  0.00  0.00    -0.055 S 
ATOM     10  C   UNL     1       3.820   2.847  -1.134  0.00  0.00    +0.132 A 
ATOM     11  S   UNL     1       3.174   2.640  -2.706  0.00  0.00    -0.024 S 
ENDROOT
BRANCH   1  16
ATOM     12  C   UNL     1       0.046  -2.307  -0.254  0.00  0.00    +0.044 C 
ATOM     13  C   UNL     1       0.988  -1.132  -0.192  0.00  0.00    -0.050 A 
ATOM     14  C   UNL     1       0.503   0.125   0.124  0.00  0.00    +0.005 A 
ATOM     15  C   UNL     1       1.363   1.204   0.181  0.00  0.00    +0.027 A 
ATOM     16  C   UNL     1       2.716   1.026  -0.079  0.00  0.00    +0.052 A 
ATOM     17  C   UNL     1       3.199  -0.236  -0.396  0.00  0.00    -0.026 A 
ATOM     18  C   UNL     1       2.334  -1.311  -0.451  0.00  0.00    +0.008 A 
ATOM     19  C   UNL     1       4.666  -0.433  -0.678  0.00  0.00    +0.046 C 
ENDBRANCH   1  16
BRANCH   6  20
ATOM     20  C   UNL     1       6.243   3.652   4.591  0.00  0.00    +0.052 A 
ATOM     21  C   UNL     1       5.659   4.564   5.459  0.00  0.00    +0.026 A 
ATOM     22  C   UNL     1       6.319   4.938   6.613  0.00  0.00    +0.002 A 
ATOM     23  C   UNL     1       7.566   4.411   6.899  0.00  0.00    +0.000 A 
ATOM     24  C   UNL     1       8.152   3.505   6.034  0.00  0.00    +0.002 A 
ATOM     25  C   UNL     1       7.495   3.124   4.881  0.00  0.00    +0.026 A 
ENDBRANCH   6  20
BRANCH   7  26
ATOM     26  S   UNL     1       4.505   1.301   4.928  0.00  0.00    -0.091 S 
ATOM     27  C   UNL     1       3.337   0.036   4.370  0.00  0.00    +0.093 C 
ENDBRANCH   7  26
TORSDOF 3
