REMARK  Name = ZINC03266122
REMARK  6 active torsions:
REMARK  status: ('A' for Active; 'I' for Inactive)
REMARK    1  A    between atoms: C_4  and  N_7
REMARK    2  A    between atoms: C_8  and  C_10
REMARK    3  A    between atoms: C_10  and  S_11
REMARK    4  A    between atoms: S_11  and  C_12
REMARK    5  A    between atoms: C_16  and  C_19
REMARK    6  A    between atoms: N_28  and  C_29
REMARK                            x       y       z     vdW  Elec       q    Type
REMARK                         _______ _______ _______ _____ _____    ______ ____
ROOT
ATOM      1  C   UNL     1       4.772   1.446   0.029  0.00  0.00    +0.178 A 
ATOM      2  N   UNL     1       5.921   2.090   0.023  0.00  0.00    -0.215 NA
ATOM      3  C   UNL     1       5.961   3.414  -0.078  0.00  0.00    +0.117 A 
ATOM      4  C   UNL     1       4.792   4.189  -0.182  0.00  0.00    +0.080 A 
ATOM      5  C   UNL     1       5.014   5.628  -0.285  0.00  0.00    +0.004 A 
ATOM      6  C   UNL     1       6.285   6.094  -0.273  0.00  0.00    +0.056 A 
ATOM      7  S   UNL     1       7.267   4.614  -0.122  0.00  0.00    -0.076 S 
ATOM      8  C   UNL     1       3.561   3.464  -0.178  0.00  0.00    +0.268 A 
ATOM      9  O   UNL     1       2.498   4.053  -0.269  0.00  0.00    -0.267 OA
ATOM     10  N   UNL     1       3.589   2.123  -0.068  0.00  0.00    -0.255 N 
ENDROOT
BRANCH   5  11
ATOM     11  C   UNL     1       3.869   6.562  -0.401  0.00  0.00    -0.016 A 
ATOM     12  C   UNL     1       2.875   6.335  -1.353  0.00  0.00    +0.010 A 
ATOM     13  C   UNL     1       1.808   7.205  -1.453  0.00  0.00    +0.020 A 
ATOM     14  C   UNL     1       1.730   8.307  -0.618  0.00  0.00    +0.041 A 
ATOM     15  C   UNL     1       2.716   8.539   0.325  0.00  0.00    +0.020 A 
ATOM     16  C   UNL     1       3.784   7.673   0.437  0.00  0.00    +0.010 A 
ATOM     17 CL   UNL     1       0.388   9.400  -0.754  0.00  0.00    -0.084 Cl
ENDBRANCH   5  11
BRANCH  10  18
ATOM     18  C   UNL     1       2.384   1.408  -0.058  0.00  0.00    +0.052 A 
ATOM     19  C   UNL     1       2.080   0.544  -1.101  0.00  0.00    +0.026 A 
ATOM     20  C   UNL     1       0.891  -0.160  -1.089  0.00  0.00    +0.002 A 
ATOM     21  C   UNL     1       0.005  -0.003  -0.039  0.00  0.00    +0.000 A 
ATOM     22  C   UNL     1       0.305   0.858   1.001  0.00  0.00    +0.002 A 
ATOM     23  C   UNL     1       1.492   1.563   0.994  0.00  0.00    +0.026 A 
ENDBRANCH  10  18
BRANCH   1  24
ATOM     24  S   UNL     1       4.761  -0.311   0.165  0.00  0.00    -0.078 S 
BRANCH  24  25
ATOM     25  C   UNL     1       6.540  -0.631   0.257  0.00  0.00    +0.173 C 
BRANCH  25  27
ATOM     26  N   UNL     1       8.036  -2.590   0.465  0.00  0.00    -0.285 N 
ATOM     27  C   UNL     1       6.777  -2.114   0.381  0.00  0.00    +0.227 C 
ATOM     28  O   UNL     1       5.837  -2.879   0.405  0.00  0.00    -0.275 OA
ATOM     29  H   UNL     1       8.783  -1.976   0.526  0.00  0.00    +0.155 HD
BRANCH  26  33
ATOM     30  C   UNL     1       8.712  -6.701   0.462  0.00  0.00    +0.000 A 
ATOM     31  C   UNL     1       7.678  -6.171  -0.289  0.00  0.00    +0.002 A 
ATOM     32  C   UNL     1       7.452  -4.809  -0.290  0.00  0.00    +0.023 A 
ATOM     33  C   UNL     1       8.263  -3.971   0.464  0.00  0.00    +0.033 A 
ATOM     34  C   UNL     1       9.303  -4.505   1.212  0.00  0.00    +0.023 A 
ATOM     35  C   UNL     1       9.521  -5.869   1.213  0.00  0.00    +0.002 A 
ENDBRANCH  26  33
ENDBRANCH  25  27
ENDBRANCH  24  25
ENDBRANCH   1  24
TORSDOF 6
