REMARK  Name = ZINC02921680
REMARK  9 active torsions:
REMARK  status: ('A' for Active; 'I' for Inactive)
REMARK    1  A    between atoms: C_1  and  C_2
REMARK    2  A    between atoms: C_3  and  C_30
REMARK    3  A    between atoms: C_4  and  C_23
REMARK    4  A    between atoms: C_6  and  C_21
REMARK    5  A    between atoms: C_7  and  S_9
REMARK    6  A    between atoms: S_9  and  C_10
REMARK    7  A    between atoms: C_10  and  C_11
REMARK    8  A    between atoms: C_11  and  C_13
REMARK    9  A    between atoms: C_30  and  C_32
REMARK                            x       y       z     vdW  Elec       q    Type
REMARK                         _______ _______ _______ _____ _____    ______ ____
ROOT
ATOM      1  C   UNL     1       4.602   0.017  -0.776  0.00  0.00    +0.061 C 
ATOM      2  C   UNL     1       3.826   1.246  -0.382  0.00  0.00    +0.013 C 
ATOM      3  C   UNL     1       4.435   2.450  -0.394  0.00  0.00    +0.024 C 
ATOM      4  C   UNL     1       3.710   3.705  -0.002  0.00  0.00    +0.096 C 
ATOM      5  C   UNL     1       2.224   3.485  -0.003  0.00  0.00    +0.069 C 
ATOM      6  C   UNL     1       1.695   2.232  -0.007  0.00  0.00    +0.080 C 
ATOM      7  N   UNL     1       2.516   1.126  -0.013  0.00  0.00    -0.312 N 
ATOM      8  H   UNL     1       2.115   0.145   0.280  0.00  0.00    +0.152 HD
ENDROOT
BRANCH   4   9
ATOM      9  C   UNL     1       4.148   4.120   1.379  0.00  0.00    -0.035 A 
ATOM     10  C   UNL     1       3.925   3.282   2.456  0.00  0.00    +0.006 A 
ATOM     11  C   UNL     1       4.331   3.660   3.722  0.00  0.00    +0.020 A 
ATOM     12  C   UNL     1       4.952   4.881   3.913  0.00  0.00    +0.041 A 
ATOM     13  C   UNL     1       5.171   5.721   2.836  0.00  0.00    +0.020 A 
ATOM     14  C   UNL     1       4.769   5.340   1.570  0.00  0.00    +0.006 A 
ATOM     15 CL   UNL     1       5.458   5.359   5.504  0.00  0.00    -0.084 Cl
ENDBRANCH   4   9
BRANCH   3  16
ATOM     16  C   UNL     1       5.782   2.531  -0.783  0.00  0.00    +0.159 C 
ATOM     17  O   UNL     1       6.414   1.516  -1.000  0.00  0.00    -0.293 OA
ATOM     18  C   UNL     1       6.443   3.877  -0.933  0.00  0.00    +0.091 C 
ENDBRANCH   3  16
BRANCH   5  19
ATOM     19  C   UNL     1       1.346   4.617  -0.001  0.00  0.00    +0.098 C 
ATOM     20  N   UNL     1       0.650   5.515   0.001  0.00  0.00    -0.191 NA
ENDBRANCH   5  19
BRANCH   6  21
ATOM     21  S   UNL     1      -0.054   2.022   0.002  0.00  0.00    -0.101 S 
BRANCH  21  22
ATOM     22  C   UNL     1      -0.153   0.214  -0.008  0.00  0.00    +0.155 C 
BRANCH  22  23
ATOM     23  C   UNL     1      -1.599  -0.209  -0.002  0.00  0.00    +0.173 C 
ATOM     24  O   UNL     1      -2.476   0.628   0.009  0.00  0.00    -0.291 OA
BRANCH  23  25
ATOM     25  C   UNL     1      -1.947  -1.639  -0.008  0.00  0.00    +0.020 A 
ATOM     26  C   UNL     1      -0.938  -2.607  -0.026  0.00  0.00    +0.013 A 
ATOM     27  C   UNL     1      -1.270  -3.945  -0.025  0.00  0.00    +0.022 A 
ATOM     28  C   UNL     1      -2.600  -4.332  -0.020  0.00  0.00    +0.059 A 
ATOM     29  C   UNL     1      -3.607  -3.378  -0.009  0.00  0.00    +0.060 A 
ATOM     30  C   UNL     1      -3.288  -2.035  -0.003  0.00  0.00    +0.032 A 
ATOM     31 CL   UNL     1      -5.270  -3.873  -0.001  0.00  0.00    -0.082 Cl
ATOM     32 CL   UNL     1      -3.009  -6.019  -0.027  0.00  0.00    -0.082 Cl
ENDBRANCH  23  25
ENDBRANCH  22  23
ENDBRANCH  21  22
ENDBRANCH   6  21
TORSDOF 7
