REMARK  Name = ZINC04966859
REMARK  7 active torsions:
REMARK  status: ('A' for Active; 'I' for Inactive)
REMARK    1  A    between atoms: C_3  and  C_8
REMARK    2  A    between atoms: C_14  and  N_17
REMARK    3  A    between atoms: N_17  and  C_18
REMARK    4  A    between atoms: C_18  and  C_19
REMARK    5  A    between atoms: C_19  and  C_21
REMARK    6  A    between atoms: C_19  and  O_28
REMARK    7  A    between atoms: C_25  and  O_27
REMARK                            x       y       z     vdW  Elec       q    Type
REMARK                         _______ _______ _______ _____ _____    ______ ____
ROOT
ATOM      1  C   UNL     1      -0.478   5.203   5.187  0.00  0.00    +0.095 A 
ATOM      2  C   UNL     1      -0.556   6.364   5.962  0.00  0.00    +0.078 A 
ATOM      3  C   UNL     1      -0.505   7.448   5.099  0.00  0.00    +0.158 A 
ATOM      4  N   UNL     1      -0.541   8.772   5.308  0.00  0.00    -0.232 NA
ATOM      5  C   UNL     1      -0.477   9.624   4.304  0.00  0.00    +0.050 A 
ATOM      6  C   UNL     1      -0.363   9.155   2.996  0.00  0.00    +0.014 A 
ATOM      7  C   UNL     1      -0.329   7.806   2.764  0.00  0.00    +0.127 A 
ATOM      8  N   UNL     1      -0.398   6.946   3.827  0.00  0.00    -0.200 N 
ATOM      9  N   UNL     1      -0.384   5.549   3.916  0.00  0.00    -0.163 NA
ATOM     10  C   UNL     1      -0.314  10.324   2.038  0.00  0.00    +0.041 C 
ATOM     11  C   UNL     1      -0.837  11.532   2.844  0.00  0.00    +0.011 C 
ATOM     12  C   UNL     1      -0.500  11.137   4.298  0.00  0.00    +0.056 C 
ENDROOT
BRANCH   1  15
ATOM     13  C   UNL     1      -0.434   1.445   5.312  0.00  0.00    +0.003 A 
ATOM     14  C   UNL     1      -0.414   2.736   4.825  0.00  0.00    +0.010 A 
ATOM     15  C   UNL     1      -0.499   3.812   5.706  0.00  0.00    +0.005 A 
ATOM     16  C   UNL     1      -0.597   3.579   7.076  0.00  0.00    +0.048 A 
ATOM     17  C   UNL     1      -0.622   2.283   7.553  0.00  0.00    +0.124 A 
ATOM     18  C   UNL     1      -0.537   1.217   6.672  0.00  0.00    +0.038 A 
ATOM     19  F   UNL     1      -0.723   2.054   8.881  0.00  0.00    -0.205 F 
ENDBRANCH   1  15
BRANCH   7  20
ATOM     20  N   UNL     1      -0.221   7.320   1.478  0.00  0.00    -0.326 N 
ATOM     21  H   UNL     1       0.593   7.697   1.017  0.00  0.00    +0.148 HD
BRANCH  20  22
ATOM     22  C   UNL     1      -0.197   5.851   1.471  0.00  0.00    +0.139 C 
BRANCH  22  23
ATOM     23  C   UNL     1      -0.076   5.351   0.030  0.00  0.00    +0.162 C 
BRANCH  23  24
ATOM     24  C   UNL     1      -0.051   3.844   0.022  0.00  0.00    -0.014 A 
ATOM     25  C   UNL     1      -1.237   3.133   0.030  0.00  0.00    +0.006 A 
ATOM     26  C   UNL     1      -1.218   1.751   0.017  0.00  0.00    +0.004 A 
ATOM     27  C   UNL     1      -0.013   1.076   0.008  0.00  0.00    +0.045 A 
ATOM     28  C   UNL     1       1.179   1.786   0.000  0.00  0.00    +0.117 A 
ATOM     29  C   UNL     1       1.157   3.174   0.008  0.00  0.00    +0.051 A 
BRANCH  28  30
ATOM     30  O   UNL     1       2.366   1.125  -0.014  0.00  0.00    -0.507 OA
ATOM     31  H   UNL     1       2.701   0.937  -0.901  0.00  0.00    +0.292 HD
ENDBRANCH  28  30
ENDBRANCH  23  24
BRANCH  23  32
ATOM     32  O   UNL     1      -1.194   5.812  -0.730  0.00  0.00    -0.386 OA
ATOM     33  H   UNL     1      -2.050   5.511  -0.394  0.00  0.00    +0.210 HD
ENDBRANCH  23  32
ENDBRANCH  22  23
ENDBRANCH  20  22
ENDBRANCH   7  20
TORSDOF 7
