REMARK  Name = ZINC59048553
REMARK  9 active torsions:
REMARK  status: ('A' for Active; 'I' for Inactive)
REMARK    1  A    between atoms: C_1  and  C_2
REMARK    2  A    between atoms: C_2  and  O_3
REMARK    3  A    between atoms: O_3  and  C_4
REMARK    4  A    between atoms: C_4  and  C_6
REMARK    5  A    between atoms: C_10  and  N_11
REMARK    6  A    between atoms: C_12  and  C_14
REMARK    7  A    between atoms: C_14  and  S_15
REMARK    8  A    between atoms: S_15  and  C_16
REMARK    9  A    between atoms: N_21  and  N_22
REMARK                            x       y       z     vdW  Elec       q    Type
REMARK                         _______ _______ _______ _____ _____    ______ ____
ROOT
ATOM      1  N   UNL     1      -3.033  -2.524   2.498  0.00  0.00    -0.279 N 
ATOM      2  C   UNL     1      -3.808  -2.867   3.546  0.00  0.00    +0.228 C 
ATOM      3  O   UNL     1      -4.910  -3.337   3.357  0.00  0.00    -0.275 OA
ATOM      4  H   UNL     1      -2.152  -2.147   2.650  0.00  0.00    +0.155 HD
ENDROOT
BRANCH   1   9
ATOM      5  C   UNL     1      -2.842  -2.416   0.016  0.00  0.00    +0.091 A 
ATOM      6  C   UNL     1      -3.548  -2.714  -1.219  0.00  0.00    -0.021 A 
ATOM      7  C   UNL     1      -4.777  -3.242  -1.039  0.00  0.00    -0.004 A 
ATOM      8  S   UNL     1      -4.974  -3.335   0.716  0.00  0.00    -0.077 S 
ATOM      9  C   UNL     1      -3.495  -2.708   1.205  0.00  0.00    +0.086 A 
ATOM     10  C   UNL     1      -5.745  -3.651  -2.106  0.00  0.00    +0.043 C 
ATOM     11  C   UNL     1      -5.287  -3.033  -3.435  0.00  0.00    +0.005 C 
ATOM     12  C   UNL     1      -3.790  -3.300  -3.616  0.00  0.00    +0.005 C 
ATOM     13  C   UNL     1      -2.988  -2.468  -2.612  0.00  0.00    +0.037 C 
BRANCH   5  14
ATOM     14  C   UNL     1      -1.497  -1.838   0.006  0.00  0.00    +0.342 C 
ATOM     15  O   UNL     1      -0.523  -2.566  -0.007  0.00  0.00    -0.245 OA
BRANCH  14  16
ATOM     16  O   UNL     1      -1.339  -0.499   0.012  0.00  0.00    -0.461 OA
BRANCH  16  18
ATOM     17  C   UNL     1      -0.019   1.526   0.010  0.00  0.00    +0.048 C 
ATOM     18  C   UNL     1       0.002  -0.004   0.002  0.00  0.00    +0.229 C 
ENDBRANCH  16  18
ENDBRANCH  14  16
ENDBRANCH   5  14
ENDBRANCH   1   9
BRANCH   2  19
ATOM     19  C   UNL     1      -3.306  -2.666   4.953  0.00  0.00    +0.172 C 
BRANCH  19  20
ATOM     20  S   UNL     1      -4.570  -3.220   6.131  0.00  0.00    -0.088 S 
BRANCH  20  21
ATOM     21  C   UNL     1      -3.841  -2.924   7.708  0.00  0.00    +0.160 A 
ATOM     22  N   UNL     1      -2.660  -2.414   8.001  0.00  0.00    -0.133 NA
ATOM     23  N   UNL     1      -2.285  -2.268   9.316  0.00  0.00    -0.124 NA
ATOM     24  C   UNL     1      -3.108  -2.638  10.278  0.00  0.00    +0.196 A 
ATOM     25  S   UNL     1      -4.508  -3.226   9.337  0.00  0.00    -0.023 S 
ATOM     26  N   UNL     1      -2.934  -2.580  11.656  0.00  0.00    -0.260 N 
ATOM     27  H   UNL     1      -3.637  -2.893  12.247  0.00  0.00    +0.168 HD
BRANCH  26  28
ATOM     28  N   UNL     1      -1.775  -2.081  12.178  0.00  0.00    -0.255 NA
ATOM     29  H   UNL     1      -1.794  -2.102  13.187  0.00  0.00    +0.140 HD
ATOM     30  H   UNL     1      -0.974  -2.580  11.821  0.00  0.00    +0.140 HD
ENDBRANCH  26  28
ENDBRANCH  20  21
ENDBRANCH  19  20
ENDBRANCH   2  19
TORSDOF 8
