REMARK  Name = ZINC09481901
REMARK  6 active torsions:
REMARK  status: ('A' for Active; 'I' for Inactive)
REMARK    1  A    between atoms: C_1  and  C_2
REMARK    2  A    between atoms: N_13  and  C_27
REMARK    3  A    between atoms: C_14  and  S_16
REMARK    4  A    between atoms: S_16  and  C_17
REMARK    5  A    between atoms: C_17  and  C_18
REMARK    6  A    between atoms: N_23  and  C_24
REMARK                            x       y       z     vdW  Elec       q    Type
REMARK                         _______ _______ _______ _____ _____    ______ ____
ROOT
ATOM      1  C   UNL     1       6.859  -3.688   0.011  0.00  0.00    +0.008 C 
ATOM      2  C   UNL     1       5.744  -2.686   0.315  0.00  0.00    -0.009 C 
ATOM      3  C   UNL     1       5.952  -1.418  -0.517  0.00  0.00    +0.008 C 
ATOM      4  C   UNL     1       4.995  -0.323  -0.044  0.00  0.00    +0.037 C 
ATOM      5  C   UNL     1       3.574  -0.880  -0.034  0.00  0.00    -0.023 A 
ATOM      6  C   UNL     1       3.356  -2.211  -0.039  0.00  0.00    -0.004 A 
ATOM      7  S   UNL     1       1.592  -2.388  -0.025  0.00  0.00    -0.073 S 
ATOM      8  C   UNL     1       1.152  -0.668  -0.012  0.00  0.00    +0.117 A 
ATOM      9  C   UNL     1       2.394  -0.013  -0.020  0.00  0.00    +0.076 A 
ATOM     10  C   UNL     1       2.345   1.417  -0.013  0.00  0.00    +0.268 A 
ATOM     11  O   UNL     1       3.374   2.070  -0.019  0.00  0.00    -0.267 OA
ATOM     12  N   UNL     1       1.148   2.030   0.002  0.00  0.00    -0.253 N 
ATOM     13  C   UNL     1      -0.016   1.313   0.009  0.00  0.00    +0.178 A 
ATOM     14  N   UNL     1       0.002  -0.004   0.002  0.00  0.00    -0.215 NA
ATOM     15  C   UNL     1       4.385  -3.299  -0.053  0.00  0.00    +0.046 C 
ENDROOT
BRANCH  12  16
ATOM     16  C   UNL     1       1.093   3.431   0.010  0.00  0.00    +0.087 A 
ATOM     17  C   UNL     1       1.071   4.120   1.215  0.00  0.00    +0.029 A 
ATOM     18  C   UNL     1       1.021   5.500   1.220  0.00  0.00    +0.002 A 
ATOM     19  C   UNL     1       0.983   6.197   0.026  0.00  0.00    +0.003 A 
ATOM     20  C   UNL     1       1.000   5.516  -1.177  0.00  0.00    +0.040 A 
ATOM     21  C   UNL     1       1.054   4.134  -1.189  0.00  0.00    +0.147 A 
ATOM     22  F   UNL     1       1.069   3.468  -2.365  0.00  0.00    -0.203 F 
ENDBRANCH  12  16
BRANCH  13  23
ATOM     23  S   UNL     1      -1.560   2.162   0.021  0.00  0.00    -0.078 S 
BRANCH  23  24
ATOM     24  C   UNL     1      -2.694   0.751   0.019  0.00  0.00    +0.173 C 
BRANCH  24  25
ATOM     25  C   UNL     1      -4.116   1.250   0.028  0.00  0.00    +0.231 C 
ATOM     26  O   UNL     1      -4.341   2.441   0.036  0.00  0.00    -0.274 OA
ATOM     27  N   UNL     1      -5.138   0.371   0.028  0.00  0.00    -0.239 N 
ATOM     28  C   UNL     1      -6.410   0.817   0.037  0.00  0.00    +0.306 C 
ATOM     29  O   UNL     1      -6.635   2.012   0.044  0.00  0.00    -0.252 OA
ATOM     30  N   UNL     1      -7.432  -0.061   0.037  0.00  0.00    -0.296 N 
ATOM     31  H   UNL     1      -4.958  -0.582   0.022  0.00  0.00    +0.159 HD
ATOM     32  H   UNL     1      -7.252  -1.014   0.031  0.00  0.00    +0.151 HD
BRANCH  30  33
ATOM     33  C   UNL     1      -8.815   0.424   0.046  0.00  0.00    +0.075 C 
ATOM     34  C   UNL     1      -9.801  -0.273   0.985  0.00  0.00    +0.024 C 
ATOM     35  C   UNL     1      -9.891  -0.501  -0.526  0.00  0.00    +0.024 C 
ENDBRANCH  30  33
ENDBRANCH  24  25
ENDBRANCH  23  24
ENDBRANCH  13  23
TORSDOF 5
