REMARK  Name = ZINC10001120
REMARK  11 active torsions:
REMARK  status: ('A' for Active; 'I' for Inactive)
REMARK    1  A    between atoms: C_1  and  C_2
REMARK    2  A    between atoms: C_2  and  C_3
REMARK    3  A    between atoms: C_2  and  C_4
REMARK    4  A    between atoms: C_4  and  C_6
REMARK    5  A    between atoms: C_4  and  N_27
REMARK    6  A    between atoms: N_8  and  N_9
REMARK    7  A    between atoms: C_10  and  C_11
REMARK    8  A    between atoms: C_16  and  O_17
REMARK    9  A    between atoms: O_17  and  C_18
REMARK   10  A    between atoms: C_18  and  C_19
REMARK   11  A    between atoms: C_28  and  C_30
REMARK                            x       y       z     vdW  Elec       q    Type
REMARK                         _______ _______ _______ _____ _____    ______ ____
ROOT
ATOM      1  C   UNL     1       3.700  -5.162   0.260  0.00  0.00    +0.253 C 
ATOM      2  O   UNL     1       4.712  -4.553   0.534  0.00  0.00    -0.272 OA
ATOM      3  N   UNL     1       3.648  -6.497   0.437  0.00  0.00    -0.205 N 
ATOM      4  H   UNL     1       2.868  -6.995   0.145  0.00  0.00    +0.177 HD
ENDROOT
BRANCH   3   5
ATOM      5  N   UNL     1       4.720  -7.166   1.042  0.00  0.00    -0.188 NA
ATOM      6  C   UNL     1       4.722  -8.462   1.107  0.00  0.00    +0.142 C 
BRANCH   6   7
ATOM      7  C   UNL     1       5.805  -9.162   1.823  0.00  0.00    +0.036 A 
ATOM      8  C   UNL     1       5.845 -10.558   1.843  0.00  0.00    +0.013 A 
ATOM      9  C   UNL     1       6.863 -11.206   2.511  0.00  0.00    +0.001 A 
ATOM     10  C   UNL     1       7.840 -10.479   3.169  0.00  0.00    +0.004 A 
ATOM     11  C   UNL     1       7.809  -9.097   3.160  0.00  0.00    +0.046 A 
ATOM     12  C   UNL     1       6.796  -8.430   2.491  0.00  0.00    +0.130 A 
BRANCH  12  13
ATOM     13  O   UNL     1       6.764  -7.072   2.481  0.00  0.00    -0.487 OA
BRANCH  13  14
ATOM     14  C   UNL     1       7.867  -6.393   3.085  0.00  0.00    +0.266 C 
BRANCH  14  15
ATOM     15  C   UNL     1       7.599  -4.910   3.095  0.00  0.00    +0.008 A 
ATOM     16  C   UNL     1       6.380  -4.425   2.661  0.00  0.00    +0.010 A 
ATOM     17  C   UNL     1       6.134  -3.065   2.670  0.00  0.00    +0.020 A 
ATOM     18  C   UNL     1       7.108  -2.188   3.113  0.00  0.00    +0.042 A 
ATOM     19  C   UNL     1       8.329  -2.673   3.547  0.00  0.00    +0.040 A 
ATOM     20  C   UNL     1       8.573  -4.035   3.543  0.00  0.00    +0.049 A 
ATOM     21 CL   UNL     1      10.102  -4.645   4.093  0.00  0.00    -0.083 Cl
ATOM     22 CL   UNL     1       6.799  -0.480   3.124  0.00  0.00    -0.083 Cl
ENDBRANCH  14  15
ENDBRANCH  13  14
ENDBRANCH  12  13
ENDBRANCH   6   7
ENDBRANCH   3   5
BRANCH   1  23
ATOM     23  C   UNL     1       2.500  -4.426  -0.280  0.00  0.00    +0.163 C 
BRANCH  23  24
ATOM     24  N   UNL     1       2.638  -2.995   0.002  0.00  0.00    -0.300 N 
ATOM     25  C   UNL     1       1.541  -2.217   0.089  0.00  0.00    +0.245 C 
ATOM     26  O   UNL     1       0.437  -2.702  -0.066  0.00  0.00    -0.270 OA
ATOM     27  H   UNL     1       3.519  -2.608   0.126  0.00  0.00    +0.150 HD
BRANCH  25  28
ATOM     28  C   UNL     1       1.680  -0.774   0.373  0.00  0.00    +0.037 A 
ATOM     29  C   UNL     1       0.545   0.035   0.464  0.00  0.00    +0.016 A 
ATOM     30  C   UNL     1       0.680   1.381   0.729  0.00  0.00    +0.039 A 
ATOM     31  C   UNL     1       1.940   1.932   0.905  0.00  0.00    +0.123 A 
ATOM     32  C   UNL     1       3.070   1.133   0.817  0.00  0.00    +0.039 A 
ATOM     33  C   UNL     1       2.946  -0.213   0.552  0.00  0.00    +0.016 A 
ATOM     34  F   UNL     1       2.067   3.252   1.165  0.00  0.00    -0.205 F 
ENDBRANCH  25  28
ENDBRANCH  23  24
BRANCH  23  36
ATOM     35  C   UNL     1       2.166  -6.124  -2.081  0.00  0.00    +0.009 C 
ATOM     36  C   UNL     1       2.407  -4.642  -1.791  0.00  0.00    +0.012 C 
ATOM     37  C   UNL     1       1.248  -3.817  -2.354  0.00  0.00    +0.009 C 
ENDBRANCH  23  36
ENDBRANCH   1  23
TORSDOF 9
