REMARK  Name = ZINC39325328
REMARK  7 active torsions:
REMARK  status: ('A' for Active; 'I' for Inactive)
REMARK    1  A    between atoms: C_1  and  C_2
REMARK    2  A    between atoms: C_5  and  S_9
REMARK    3  A    between atoms: S_9  and  N_12
REMARK    4  A    between atoms: N_12  and  C_13
REMARK    5  A    between atoms: N_12  and  C_19
REMARK    6  A    between atoms: C_13  and  C_14
REMARK    7  A    between atoms: C_19  and  C_20
REMARK                            x       y       z     vdW  Elec       q    Type
REMARK                         _______ _______ _______ _____ _____    ______ ____
ROOT
ATOM      1  N   UNL     1       1.494  -4.781  -0.290  0.00  0.00    -0.168 NA
ENDROOT
BRANCH   1   2
ATOM      2  S   UNL     1      -0.040  -4.169  -0.415  0.00  0.00    +0.061 S 
ATOM      3  O   UNL     1      -0.757  -4.634   0.720  0.00  0.00    -0.153 OA
ATOM      4  O   UNL     1      -0.471  -4.424  -1.745  0.00  0.00    -0.153 OA
BRANCH   2   9
ATOM      5  C   UNL     1       0.377   1.825   0.141  0.00  0.00    +0.045 C 
ATOM      6  C   UNL     1       0.273   0.328   0.003  0.00  0.00    -0.032 A 
ATOM      7  C   UNL     1       0.254  -0.251  -1.253  0.00  0.00    +0.007 A 
ATOM      8  C   UNL     1       0.159  -1.623  -1.380  0.00  0.00    +0.029 A 
ATOM      9  C   UNL     1       0.082  -2.419  -0.252  0.00  0.00    +0.107 A 
ATOM     10  C   UNL     1       0.101  -1.842   1.004  0.00  0.00    +0.048 A 
ATOM     11  C   UNL     1       0.202  -0.468   1.132  0.00  0.00    +0.046 A 
ATOM     12 CL   UNL     1       0.233   0.257   2.709  0.00  0.00    -0.083 Cl
ENDBRANCH   2   9
ENDBRANCH   1   2
BRANCH   1  13
ATOM     13  C   UNL     1       2.086  -5.010   1.031  0.00  0.00    +0.183 C 
BRANCH  13  14
ATOM     14  C   UNL     1       1.867  -6.444   1.437  0.00  0.00    +0.120 A 
ATOM     15  C   UNL     1       2.700  -7.470   1.183  0.00  0.00    +0.046 A 
ATOM     16  C   UNL     1       2.108  -8.626   1.740  0.00  0.00    +0.041 A 
ATOM     17  C   UNL     1       0.949  -8.239   2.302  0.00  0.00    +0.195 A 
ATOM     18  O   UNL     1       0.811  -6.915   2.120  0.00  0.00    -0.466 OA
ENDBRANCH  13  14
ENDBRANCH   1  13
BRANCH   1  19
ATOM     19  C   UNL     1       2.259  -5.093  -1.500  0.00  0.00    +0.126 C 
BRANCH  19  20
ATOM     20  C   UNL     1       3.526  -4.237  -1.537  0.00  0.00    +0.114 C 
ATOM     21  C   UNL     1       4.310  -4.621  -2.776  0.00  0.00    -0.003 C 
ATOM     22  C   UNL     1       4.584  -3.635  -3.673  0.00  0.00    -0.003 A 
ATOM     23  C   UNL     1       5.338  -3.922  -4.894  0.00  0.00    +0.059 A 
ATOM     24  C   UNL     1       5.596  -2.915  -5.772  0.00  0.00    +0.163 A 
ATOM     25  C   UNL     1       5.147  -1.601  -5.525  0.00  0.00    +0.164 A 
ATOM     26  C   UNL     1       4.435  -1.280  -4.387  0.00  0.00    +0.073 A 
ATOM     27  C   UNL     1       4.127  -2.254  -3.430  0.00  0.00    +0.044 A 
ATOM     28  N   UNL     1       3.437  -1.920  -2.337  0.00  0.00    -0.284 N 
ATOM     29  C   UNL     1       3.112  -2.789  -1.397  0.00  0.00    +0.225 C 
ATOM     30  O   UNL     1       2.481  -2.426  -0.422  0.00  0.00    -0.275 OA
ATOM     31  O   UNL     1       5.406  -0.611  -6.420  0.00  0.00    -0.485 OA
ATOM     32  C   UNL     1       6.445  -0.855  -7.372  0.00  0.00    +0.270 C 
ATOM     33  C   UNL     1       6.235  -2.254  -7.966  0.00  0.00    +0.270 C 
ATOM     34  O   UNL     1       6.303  -3.206  -6.900  0.00  0.00    -0.485 OA
ATOM     35  H   UNL     1       3.162  -0.997  -2.228  0.00  0.00    +0.155 HD
ENDBRANCH  19  20
ENDBRANCH   1  19
TORSDOF 6
