REMARK  Name = ZINC48731161
REMARK  6 active torsions:
REMARK  status: ('A' for Active; 'I' for Inactive)
REMARK    1  A    between atoms: C_3  and  C_6
REMARK    2  A    between atoms: C_6  and  C_8
REMARK    3  A    between atoms: C_6  and  N_23
REMARK    4  A    between atoms: C_8  and  N_9
REMARK    5  A    between atoms: C_10  and  C_12
REMARK    6  A    between atoms: N_14  and  C_15
REMARK                            x       y       z     vdW  Elec       q    Type
REMARK                         _______ _______ _______ _____ _____    ______ ____
ROOT
ATOM      1  N   UNL     1       5.483   0.148  -1.580  0.00  0.00    -0.309 N 
ATOM      2  C   UNL     1       6.062  -0.182  -2.751  0.00  0.00    +0.299 C 
ATOM      3  O   UNL     1       5.382  -0.324  -3.746  0.00  0.00    -0.265 OA
ATOM      4  H   UNL     1       6.027   0.261  -0.784  0.00  0.00    +0.149 HD
ENDROOT
BRANCH   2   5
ATOM      5  C   UNL     1       7.542  -0.375  -2.824  0.00  0.00    +0.303 C 
ATOM      6  O   UNL     1       8.222  -0.234  -1.829  0.00  0.00    -0.265 OA
ATOM      7  N   UNL     1       8.121  -0.705  -3.995  0.00  0.00    -0.278 N 
ATOM      8  H   UNL     1       7.588  -0.749  -4.805  0.00  0.00    +0.155 HD
BRANCH   7   9
ATOM      9  C   UNL     1       9.490  -0.985  -4.043  0.00  0.00    +0.037 A 
ATOM     10  C   UNL     1      10.233  -0.630  -5.162  0.00  0.00    +0.026 A 
ATOM     11  C   UNL     1      11.586  -0.906  -5.209  0.00  0.00    +0.043 A 
ATOM     12  C   UNL     1      12.202  -1.538  -4.142  0.00  0.00    +0.159 A 
ATOM     13  C   UNL     1      11.463  -1.895  -3.024  0.00  0.00    +0.160 A 
ATOM     14  C   UNL     1      10.110  -1.613  -2.971  0.00  0.00    +0.064 A 
ATOM     15  F   UNL     1      12.065  -2.511  -1.984  0.00  0.00    -0.202 F 
ATOM     16  F   UNL     1      13.525  -1.808  -4.190  0.00  0.00    -0.202 F 
ENDBRANCH   7   9
ENDBRANCH   2   5
BRANCH   1  17
ATOM     17  C   UNL     1       4.032   0.337  -1.508  0.00  0.00    +0.097 C 
BRANCH  17  18
ATOM     18  C   UNL     1       3.620   0.578  -0.054  0.00  0.00    +0.016 C 
BRANCH  18  19
ATOM     19  N   UNL     1       4.109  -0.527   0.782  0.00  0.00    +0.387 N 
ATOM     20  C   UNL     1       3.617  -1.801   0.244  0.00  0.00    -0.078 C 
ATOM     21  C   UNL     1       4.189  -2.960   1.064  0.00  0.00    -0.019 C 
ATOM     22  C   UNL     1       3.745  -2.814   2.522  0.00  0.00    -0.004 C 
ATOM     23  C   UNL     1       4.199  -1.451   3.050  0.00  0.00    -0.019 C 
ATOM     24  C   UNL     1       3.626  -0.348   2.157  0.00  0.00    -0.078 C 
ATOM     25  H   UNL     1       5.118  -0.529   0.779  0.00  0.00    -0.081 HD
ENDBRANCH  18  19
BRANCH  18  28
ATOM     26  C   UNL     1       0.036   1.379   0.245  0.00  0.00    +0.041 A 
ATOM     27  C   UNL     1       1.394   1.769   0.223  0.00  0.00    +0.043 A 
ATOM     28  C   UNL     1       2.118   0.650   0.037  0.00  0.00    +0.093 A 
ATOM     29  O   UNL     1       1.274  -0.391  -0.054  0.00  0.00    -0.469 OA
ATOM     30  C   UNL     1       0.010   0.045   0.072  0.00  0.00    +0.195 A 
ENDBRANCH  18  28
ENDBRANCH  17  18
ENDBRANCH   1  17
TORSDOF 6
