REMARK  Name = ZINC24003176
REMARK  12 active torsions:
REMARK  status: ('A' for Active; 'I' for Inactive)
REMARK    1  A    between atoms: C_1  and  C_2
REMARK    2  A    between atoms: C_2  and  C_3
REMARK    3  A    between atoms: C_3  and  C_4
REMARK    4  A    between atoms: C_4  and  N_5
REMARK    5  A    between atoms: C_6  and  N_32
REMARK    6  A    between atoms: C_7  and  N_14
REMARK    7  A    between atoms: N_14  and  C_15
REMARK    8  A    between atoms: C_15  and  C_16
REMARK    9  A    between atoms: C_16  and  C_17
REMARK   10  A    between atoms: C_17  and  C_18
REMARK   11  A    between atoms: C_17  and  C_19
REMARK   12  A    between atoms: C_20  and  C_22
REMARK                            x       y       z     vdW  Elec       q    Type
REMARK                         _______ _______ _______ _____ _____    ______ ____
ROOT
ATOM      1  N   UNL     1      -1.400  -4.814   2.488  0.00  0.00    -0.260 N 
ATOM      2  C   UNL     1      -1.428  -4.137   3.653  0.00  0.00    +0.258 C 
ATOM      3  O   UNL     1      -1.583  -2.930   3.652  0.00  0.00    -0.269 OA
ENDROOT
BRANCH   2   4
ATOM      4  C   UNL     1      -1.271  -4.857   4.925  0.00  0.00    +0.076 A 
ATOM      5  C   UNL     1      -1.403  -4.379   6.191  0.00  0.00    +0.032 A 
ATOM      6  C   UNL     1      -1.215  -5.238   7.288  0.00  0.00    +0.025 A 
ATOM      7  C   UNL     1      -1.313  -4.930   8.672  0.00  0.00    +0.132 A 
ATOM      8  C   UNL     1      -1.091  -5.896   9.618  0.00  0.00    +0.039 A 
ATOM      9  C   UNL     1      -0.764  -7.198   9.262  0.00  0.00    +0.004 A 
ATOM     10  C   UNL     1      -0.660  -7.533   7.928  0.00  0.00    +0.016 A 
ATOM     11  C   UNL     1      -0.881  -6.574   6.963  0.00  0.00    +0.023 A 
ATOM     12  S   UNL     1      -0.853  -6.571   5.188  0.00  0.00    -0.084 S 
ATOM     13  F   UNL     1      -1.628  -3.674   9.058  0.00  0.00    -0.205 F 
ENDBRANCH   2   4
BRANCH   1  16
ATOM     14  N   UNL     1      -2.482  -3.534  -0.782  0.00  0.00    -0.280 N 
ATOM     15  C   UNL     1      -2.492  -4.231   0.405  0.00  0.00    +0.127 A 
ATOM     16  C   UNL     1      -1.419  -4.112   1.265  0.00  0.00    +0.140 A 
ATOM     17  C   UNL     1      -0.345  -3.279   0.899  0.00  0.00    +0.277 A 
ATOM     18  O   UNL     1       0.616  -3.156   1.641  0.00  0.00    -0.266 OA
ATOM     19  N   UNL     1      -0.385  -2.619  -0.274  0.00  0.00    -0.273 N 
ATOM     20  H   UNL     1       0.449  -1.963  -0.565  0.00  0.00    +0.173 HD
ATOM     21  C   UNL     1      -1.437  -2.751  -1.102  0.00  0.00    +0.331 A 
ATOM     22  O   UNL     1      -1.445  -2.147  -2.158  0.00  0.00    -0.246 OA
BRANCH  15  23
ATOM     23  N   UNL     1      -3.558  -5.036   0.729  0.00  0.00    -0.343 N 
ATOM     24  H   UNL     1      -3.559  -5.590   1.680  0.00  0.00    +0.144 HD
ATOM     25  H   UNL     1      -4.410  -5.126   0.039  0.00  0.00    +0.144 HD
ENDBRANCH  15  23
BRANCH  14  26
ATOM     26  C   UNL     1      -3.614  -3.651  -1.704  0.00  0.00    +0.128 C 
BRANCH  26  27
ATOM     27  C   UNL     1      -4.653  -2.577  -1.376  0.00  0.00    +0.021 C 
BRANCH  27  29
ATOM     28  C   UNL     1      -6.873  -1.624  -2.011  0.00  0.00    +0.004 C 
ATOM     29  C   UNL     1      -5.835  -2.699  -2.340  0.00  0.00    -0.002 C 
ENDBRANCH  27  29
ENDBRANCH  26  27
ENDBRANCH  14  26
ENDBRANCH   1  16
BRANCH   1  30
ATOM     30  C   UNL     1      -1.349  -6.278   2.492  0.00  0.00    +0.114 C 
BRANCH  30  31
ATOM     31  C   UNL     1       0.108  -6.737   2.398  0.00  0.00    +0.022 C 
BRANCH  31  32
ATOM     32  C   UNL     1       0.161  -8.266   2.403  0.00  0.00    -0.016 C 
ATOM     33  C   UNL     1       1.604  -8.727   2.184  0.00  0.00    +0.007 C 
ATOM     34  C   UNL     1      -0.343  -8.790   3.749  0.00  0.00    +0.007 C 
ENDBRANCH  31  32
ENDBRANCH  30  31
ENDBRANCH   1  30
TORSDOF 9
