REMARK  Name = ZINC65601312
REMARK  10 active torsions:
REMARK  status: ('A' for Active; 'I' for Inactive)
REMARK    1  A    between atoms: C_1  and  C_2
REMARK    2  A    between atoms: C_5  and  C_8
REMARK    3  A    between atoms: C_8  and  C_9
REMARK    4  A    between atoms: C_8  and  N_24
REMARK    5  A    between atoms: C_9  and  N_10
REMARK    6  A    between atoms: C_11  and  C_13
REMARK    7  A    between atoms: N_15  and  C_16
REMARK    8  A    between atoms: C_21  and  C_22
REMARK    9  A    between atoms: N_24  and  C_25
REMARK   10  A    between atoms: N_24  and  C_26
REMARK                            x       y       z     vdW  Elec       q    Type
REMARK                         _______ _______ _______ _____ _____    ______ ____
ROOT
ATOM      1  N   UNL     1      -2.265  -4.246  -0.904  0.00  0.00    -0.309 N 
ATOM      2  C   UNL     1      -3.596  -4.454  -0.943  0.00  0.00    +0.299 C 
ATOM      3  O   UNL     1      -4.139  -5.079  -0.056  0.00  0.00    -0.265 OA
ATOM      4  H   UNL     1      -1.831  -3.747  -1.613  0.00  0.00    +0.149 HD
ENDROOT
BRANCH   2   5
ATOM      5  C   UNL     1      -4.403  -3.916  -2.079  0.00  0.00    +0.303 C 
ATOM      6  O   UNL     1      -3.860  -3.292  -2.967  0.00  0.00    -0.265 OA
ATOM      7  N   UNL     1      -5.734  -4.124  -2.119  0.00  0.00    -0.278 N 
ATOM      8  H   UNL     1      -6.156  -4.693  -1.456  0.00  0.00    +0.155 HD
BRANCH   7   9
ATOM      9  C   UNL     1      -6.507  -3.521  -3.115  0.00  0.00    +0.037 A 
ATOM     10  C   UNL     1      -6.066  -2.353  -3.725  0.00  0.00    +0.025 A 
ATOM     11  C   UNL     1      -6.832  -1.759  -4.709  0.00  0.00    +0.022 A 
ATOM     12  C   UNL     1      -8.037  -2.326  -5.087  0.00  0.00    +0.041 A 
ATOM     13  C   UNL     1      -8.478  -3.489  -4.481  0.00  0.00    +0.025 A 
ATOM     14  C   UNL     1      -7.714  -4.090  -3.500  0.00  0.00    -0.028 A 
ATOM     15  C   UNL     1      -8.192  -5.360  -2.845  0.00  0.00    +0.046 C 
ATOM     16 CL   UNL     1      -8.996  -1.576  -6.324  0.00  0.00    -0.084 Cl
ENDBRANCH   7   9
ENDBRANCH   2   5
BRANCH   1  17
ATOM     17  C   UNL     1      -1.474  -4.774   0.210  0.00  0.00    +0.094 C 
BRANCH  17  18
ATOM     18  C   UNL     1      -0.027  -4.295   0.080  0.00  0.00    -0.021 C 
BRANCH  18  23
ATOM     19  C   UNL     1       0.112   1.480   0.255  0.00  0.00    +0.044 C 
ATOM     20  C   UNL     1       0.076  -0.026   0.209  0.00  0.00    -0.050 A 
ATOM     21  C   UNL     1       0.148  -0.683  -1.005  0.00  0.00    +0.003 A 
ATOM     22  C   UNL     1       0.115  -2.064  -1.047  0.00  0.00    +0.002 A 
ATOM     23  C   UNL     1       0.010  -2.789   0.125  0.00  0.00    -0.059 A 
ATOM     24  C   UNL     1      -0.061  -2.132   1.340  0.00  0.00    +0.002 A 
ATOM     25  C   UNL     1      -0.024  -0.751   1.382  0.00  0.00    +0.003 A 
ENDBRANCH  18  23
BRANCH  18  26
ATOM     26  N   UNL     1       0.771  -4.838   1.187  0.00  0.00    +0.382 N 
ATOM     27  C   UNL     1       0.829  -6.302   1.076  0.00  0.00    -0.096 C 
ATOM     28  C   UNL     1       2.131  -4.287   1.127  0.00  0.00    -0.096 C 
ATOM     29  H   UNL     1       0.343  -4.584   2.065  0.00  0.00    -0.082 HD
ENDBRANCH  18  26
ENDBRANCH  17  18
ENDBRANCH   1  17
TORSDOF 6
