REMARK  Name = ZINC20189508
REMARK  5 active torsions:
REMARK  status: ('A' for Active; 'I' for Inactive)
REMARK    1  A    between atoms: C_1  and  C_2
REMARK    2  A    between atoms: C_5  and  C_21
REMARK    3  A    between atoms: C_7  and  S_8
REMARK    4  A    between atoms: S_8  and  N_11
REMARK    5  A    between atoms: C_21  and  N_22
REMARK                            x       y       z     vdW  Elec       q    Type
REMARK                         _______ _______ _______ _____ _____    ______ ____
ROOT
ATOM      1  S   UNL     1      -3.249   0.087   3.933  0.00  0.00    +0.075 S 
ATOM      2  O   UNL     1      -4.560   0.560   4.214  0.00  0.00    -0.150 OA
ATOM      3  O   UNL     1      -3.007  -1.030   3.088  0.00  0.00    -0.150 OA
ENDROOT
BRANCH   1   4
ATOM      4  N   UNL     1      -2.550  -0.264   5.393  0.00  0.00    -0.203 N 
ATOM      5  C   UNL     1      -3.280  -0.027   6.646  0.00  0.00    +0.132 C 
ATOM      6  C   UNL     1      -2.320   0.641   7.634  0.00  0.00    +0.025 C 
ATOM      7  C   UNL     1      -1.168  -0.318   7.933  0.00  0.00    +0.038 C 
ATOM      8  C   UNL     1      -0.558  -0.825   6.652  0.00  0.00    -0.025 A 
ATOM      9  C   UNL     1      -1.253  -0.785   5.453  0.00  0.00    +0.054 A 
ATOM     10  C   UNL     1      -0.662  -1.266   4.290  0.00  0.00    +0.025 A 
ATOM     11  C   UNL     1       0.618  -1.781   4.328  0.00  0.00    +0.002 A 
ATOM     12  C   UNL     1       1.312  -1.818   5.524  0.00  0.00    +0.000 A 
ATOM     13  C   UNL     1       0.726  -1.342   6.681  0.00  0.00    +0.005 A 
ENDBRANCH   1   4
BRANCH   1  20
ATOM     14  C   UNL     1      -3.175   2.860   5.139  0.00  0.00    +0.046 C 
ATOM     15  C   UNL     1      -2.387   2.676   3.867  0.00  0.00    -0.024 A 
ATOM     16  C   UNL     1      -1.690   3.740   3.326  0.00  0.00    +0.005 A 
ATOM     17  C   UNL     1      -0.964   3.570   2.162  0.00  0.00    +0.002 A 
ATOM     18  C   UNL     1      -0.943   2.338   1.534  0.00  0.00    -0.063 A 
ATOM     19  C   UNL     1      -1.639   1.274   2.076  0.00  0.00    +0.030 A 
ATOM     20  C   UNL     1      -2.361   1.443   3.243  0.00  0.00    +0.112 A 
BRANCH  18  21
ATOM     21  C   UNL     1      -0.156   2.154   0.262  0.00  0.00    -0.051 C 
BRANCH  21  22
ATOM     22  N   UNL     1      -1.016   2.446  -0.892  0.00  0.00    +0.381 N 
ATOM     23  H   UNL     1      -0.441   2.311  -1.821  0.00  0.00    -0.090 HD
ATOM     24  H   UNL     1      -1.373   3.484  -0.830  0.00  0.00    -0.090 HD
ATOM     25  H   UNL     1      -1.876   1.761  -0.891  0.00  0.00    -0.090 HD
ENDBRANCH  21  22
ENDBRANCH  18  21
ENDBRANCH   1  20
TORSDOF 4
