REMARK  Name = ZINC40154487
REMARK  6 active torsions:
REMARK  status: ('A' for Active; 'I' for Inactive)
REMARK    1  A    between atoms: C_1  and  N_2
REMARK    2  A    between atoms: C_10  and  C_11
REMARK    3  A    between atoms: C_11  and  N_12
REMARK    4  A    between atoms: C_21  and  N_22
REMARK    5  A    between atoms: N_22  and  S_23
REMARK    6  A    between atoms: S_23  and  C_26
REMARK                            x       y       z     vdW  Elec       q    Type
REMARK                         _______ _______ _______ _____ _____    ______ ____
ROOT
ATOM      1  N   UNL     1      -1.263   0.234   3.506  0.00  0.00    -0.322 N 
ATOM      2  C   UNL     1      -2.079   1.441   3.315  0.00  0.00    +0.106 C 
ATOM      3  C   UNL     1      -2.962   1.611   4.558  0.00  0.00    +0.024 C 
ATOM      4  C   UNL     1      -3.909   0.415   4.659  0.00  0.00    +0.040 C 
ATOM      5  C   UNL     1      -3.139  -0.876   4.561  0.00  0.00    -0.004 A 
ATOM      6  C   UNL     1      -1.875  -0.926   3.995  0.00  0.00    +0.035 A 
ATOM      7  C   UNL     1      -1.194  -2.137   3.911  0.00  0.00    +0.023 A 
ATOM      8  C   UNL     1      -1.776  -3.294   4.390  0.00  0.00    +0.004 A 
ATOM      9  C   UNL     1      -3.036  -3.252   4.954  0.00  0.00    +0.025 A 
ATOM     10  C   UNL     1      -3.719  -2.043   5.048  0.00  0.00    +0.053 A 
ENDROOT
BRANCH  10  11
ATOM     11  N   UNL     1      -4.993  -2.003   5.618  0.00  0.00    -0.221 N 
ATOM     12  H   UNL     1      -5.661  -1.392   5.270  0.00  0.00    +0.173 HD
BRANCH  11  13
ATOM     13  S   UNL     1      -5.363  -2.999   6.889  0.00  0.00    +0.040 S 
ATOM     14  O   UNL     1      -6.683  -2.630   7.266  0.00  0.00    -0.155 OA
ATOM     15  O   UNL     1      -5.085  -4.309   6.416  0.00  0.00    -0.155 OA
ATOM     16  C   UNL     1      -4.190  -2.543   8.195  0.00  0.00    +0.218 C 
ENDBRANCH  11  13
ENDBRANCH  10  11
BRANCH   1  17
ATOM     17  C   UNL     1       0.166   0.242   3.184  0.00  0.00    +0.179 C 
BRANCH  17  27
ATOM     18  C   UNL     1       0.228   2.159   0.758  0.00  0.00    +0.150 C 
ATOM     19  N   UNL     1       0.382   0.703   0.692  0.00  0.00    -0.329 N 
ATOM     20  C   UNL     1       0.585  -0.047  -0.450  0.00  0.00    +0.069 A 
ATOM     21  C   UNL     1       0.703   0.260  -1.798  0.00  0.00    +0.029 A 
ATOM     22  C   UNL     1       0.906  -0.748  -2.716  0.00  0.00    +0.022 A 
ATOM     23  C   UNL     1       0.994  -2.071  -2.301  0.00  0.00    +0.043 A 
ATOM     24  C   UNL     1       0.879  -2.394  -0.967  0.00  0.00    +0.050 A 
ATOM     25  C   UNL     1       0.673  -1.383  -0.024  0.00  0.00    +0.091 A 
ATOM     26  N   UNL     1       0.522  -1.379   1.325  0.00  0.00    -0.231 NA
ATOM     27  C   UNL     1       0.358  -0.158   1.744  0.00  0.00    +0.128 A 
ATOM     28 CL   UNL     1       1.250  -3.326  -3.472  0.00  0.00    -0.083 Cl
ENDBRANCH  17  27
ENDBRANCH   1  17
TORSDOF 4
