REMARK  Name = ZINC60292011
REMARK  6 active torsions:
REMARK  status: ('A' for Active; 'I' for Inactive)
REMARK    1  A    between atoms: C_5  and  C_7
REMARK    2  A    between atoms: C_10  and  C_12
REMARK    3  A    between atoms: C_12  and  C_13
REMARK    4  A    between atoms: C_13  and  C_14
REMARK    5  A    between atoms: C_21  and  C_23
REMARK    6  A    between atoms: C_23  and  C_24
REMARK                            x       y       z     vdW  Elec       q    Type
REMARK                         _______ _______ _______ _____ _____    ______ ____
ROOT
ATOM      1  C   UNL     1       1.695  -6.403   1.875  0.00  0.00    +0.105 C 
ENDROOT
BRANCH   1   2
ATOM      2  C   UNL     1       1.004  -7.468   2.688  0.00  0.00    +0.216 C 
ATOM      3  O   UNL     1      -0.030  -7.960   2.289  0.00  0.00    -0.276 OA
ATOM      4  N   UNL     1       1.535  -7.873   3.858  0.00  0.00    -0.298 N 
ATOM      5  C   UNL     1       2.851  -7.385   4.292  0.00  0.00    +0.108 C 
ATOM      6  C   UNL     1       3.743  -8.588   4.613  0.00  0.00    +0.019 C 
ATOM      7  C   UNL     1       3.038  -9.484   5.633  0.00  0.00    +0.003 C 
ATOM      8  C   UNL     1       1.725 -10.000   5.040  0.00  0.00    +0.023 C 
ATOM      9  C   UNL     1       0.807  -8.808   4.727  0.00  0.00    +0.085 C 
BRANCH   9  10
ATOM     10  C   UNL     1      -0.451  -9.302   4.010  0.00  0.00    +0.118 C 
BRANCH  10  11
ATOM     11  C   UNL     1      -1.465  -8.189   3.952  0.00  0.00    +0.212 C 
ATOM     12  O   UNL     1      -1.207  -7.107   4.437  0.00  0.00    -0.276 OA
ATOM     13  N   UNL     1      -2.659  -8.395   3.362  0.00  0.00    -0.329 N 
ATOM     14  H   UNL     1      -2.865  -9.260   2.974  0.00  0.00    +0.145 HD
ATOM     15  H   UNL     1      -3.312  -7.678   3.325  0.00  0.00    +0.145 HD
ENDBRANCH  10  11
ENDBRANCH   9  10
ENDBRANCH   1   2
BRANCH   1  16
ATOM     16  C   UNL     1       0.890  -6.130   0.603  0.00  0.00    +0.105 C 
BRANCH  16  20
ATOM     17  C   UNL     1       2.174  -3.128  -0.996  0.00  0.00    +0.157 A 
ATOM     18  C   UNL     1       2.870  -4.102  -1.637  0.00  0.00    +0.161 A 
ATOM     19  N   UNL     1       2.480  -5.280  -1.128  0.00  0.00    -0.221 NA
ATOM     20  C   UNL     1       1.581  -5.066  -0.209  0.00  0.00    +0.197 A 
ATOM     21  O   UNL     1       1.373  -3.746  -0.100  0.00  0.00    -0.440 OA
BRANCH  17  26
ATOM     22  C   UNL     1       1.224   0.447  -1.643  0.00  0.00    +0.001 A 
ATOM     23  C   UNL     1       2.467   1.056  -1.667  0.00  0.00    +0.001 A 
ATOM     24  C   UNL     1       3.615   0.309  -1.474  0.00  0.00    +0.021 A 
ATOM     25  C   UNL     1       3.527  -1.052  -1.255  0.00  0.00    +0.052 A 
ATOM     26  C   UNL     1       2.276  -1.672  -1.229  0.00  0.00    +0.037 A 
ATOM     27  C   UNL     1       1.122  -0.911  -1.426  0.00  0.00    +0.013 A 
ATOM     28 CL   UNL     1       4.968  -1.989  -1.012  0.00  0.00    -0.083 Cl
ENDBRANCH  17  26
ENDBRANCH  16  20
ENDBRANCH   1  16
TORSDOF 6
