REMARK  Name = ZINC11964586
REMARK  8 active torsions:
REMARK  status: ('A' for Active; 'I' for Inactive)
REMARK    1  A    between atoms: C_1  and  C_2
REMARK    2  A    between atoms: C_4  and  C_35
REMARK    3  A    between atoms: C_6  and  C_8
REMARK    4  A    between atoms: C_15  and  C_18
REMARK    5  A    between atoms: C_18  and  N_19
REMARK    6  A    between atoms: C_20  and  C_22
REMARK    7  A    between atoms: C_22  and  C_23
REMARK    8  A    between atoms: C_23  and  C_24
REMARK                            x       y       z     vdW  Elec       q    Type
REMARK                         _______ _______ _______ _____ _____    ______ ____
ROOT
ATOM      1  C   UNL     1       0.322   0.823   5.770  0.00  0.00    +0.149 C 
ENDROOT
BRANCH   1   9
ATOM      2  C   UNL     1       0.050  -2.728   2.432  0.00  0.00    +0.061 A 
ATOM      3  C   UNL     1       0.074  -4.120   2.452  0.00  0.00    +0.015 A 
ATOM      4  C   UNL     1       0.088  -4.797   3.654  0.00  0.00    +0.001 A 
ATOM      5  C   UNL     1       0.074  -4.090   4.845  0.00  0.00    +0.007 A 
ATOM      6  C   UNL     1       0.048  -2.713   4.835  0.00  0.00    -0.001 A 
ATOM      7  C   UNL     1       0.046  -2.010   3.638  0.00  0.00    +0.135 A 
ATOM      8  O   UNL     1       0.046  -0.667   3.855  0.00  0.00    -0.486 OA
ATOM      9  C   UNL     1      -0.391  -0.404   5.199  0.00  0.00    +0.195 C 
ATOM     10  C   UNL     1       0.016  -1.688   5.952  0.00  0.00    +0.085 C 
BRANCH   2  16
ATOM     11  C   UNL     1      -0.018   1.503   0.010  0.00  0.00    +0.066 C 
ATOM     12  C   UNL     1       0.002  -0.004   0.002  0.00  0.00    +0.042 A 
ATOM     13  C   UNL     1       0.006  -0.699  -1.198  0.00  0.00    +0.046 A 
ATOM     14  C   UNL     1       0.025  -2.086  -1.162  0.00  0.00    +0.042 A 
ATOM     15  N   UNL     1       0.039  -2.700   0.009  0.00  0.00    -0.232 NA
ATOM     16  C   UNL     1       0.035  -2.006   1.139  0.00  0.00    +0.164 A 
ATOM     17  N   UNL     1       0.022  -0.679   1.138  0.00  0.00    -0.232 NA
ATOM     18  C   UNL     1       0.029  -2.882  -2.441  0.00  0.00    +0.066 C 
ENDBRANCH   2  16
ENDBRANCH   1   9
BRANCH   1  19
ATOM     19  N   UNL     1      -0.095   2.018   5.033  0.00  0.00    -0.312 N 
ATOM     20  C   UNL     1       0.409   3.224   5.365  0.00  0.00    +0.214 C 
ATOM     21  O   UNL     1       1.206   3.319   6.273  0.00  0.00    -0.276 OA
ATOM     22  H   UNL     1      -0.733   1.942   4.307  0.00  0.00    +0.149 HD
BRANCH  20  23
ATOM     23  C   UNL     1      -0.020   4.453   4.606  0.00  0.00    +0.103 C 
BRANCH  23  24
ATOM     24  C   UNL     1       0.693   5.680   5.178  0.00  0.00    +0.083 C 
BRANCH  24  25
ATOM     25  C   UNL     1       0.265   6.910   4.420  0.00  0.00    +0.109 A 
ATOM     26  N   UNL     1      -0.258   8.031   4.985  0.00  0.00    -0.342 N 
ATOM     27  H   UNL     1      -0.417   8.178   5.931  0.00  0.00    +0.167 HD
ATOM     28  C   UNL     1      -0.519   8.923   3.963  0.00  0.00    +0.066 A 
ATOM     29  C   UNL     1      -1.045  10.207   3.913  0.00  0.00    +0.030 A 
ATOM     30  C   UNL     1      -1.183  10.845   2.700  0.00  0.00    +0.040 A 
ATOM     31  C   UNL     1      -0.799  10.212   1.524  0.00  0.00    +0.126 A 
ATOM     32  C   UNL     1      -0.276   8.938   1.554  0.00  0.00    +0.068 A 
ATOM     33  C   UNL     1      -0.129   8.278   2.777  0.00  0.00    +0.092 A 
ATOM     34  N   UNL     1       0.345   7.056   3.130  0.00  0.00    -0.232 NA
ATOM     35  F   UNL     1      -0.942  10.851   0.342  0.00  0.00    -0.205 F 
ENDBRANCH  24  25
ENDBRANCH  23  24
ENDBRANCH  20  23
ENDBRANCH   1  19
TORSDOF 6
