REMARK  Name = ZINC62513846
REMARK  5 active torsions:
REMARK  status: ('A' for Active; 'I' for Inactive)
REMARK    1  A    between atoms: C_4  and  N_7
REMARK    2  A    between atoms: C_9  and  C_14
REMARK    3  A    between atoms: C_14  and  N_15
REMARK    4  A    between atoms: C_16  and  C_18
REMARK    5  A    between atoms: C_18  and  C_19
REMARK                            x       y       z     vdW  Elec       q    Type
REMARK                         _______ _______ _______ _____ _____    ______ ____
ROOT
ATOM      1  N   UNL     1       7.318  -3.603  -0.013  0.00  0.00    -0.311 N 
ATOM      2  C   UNL     1       8.085  -4.563  -0.568  0.00  0.00    +0.218 C 
ATOM      3  O   UNL     1       7.633  -5.268  -1.446  0.00  0.00    -0.275 OA
ATOM      4  H   UNL     1       7.679  -3.039   0.689  0.00  0.00    +0.149 HD
ENDROOT
BRANCH   1   5
ATOM      5  C   UNL     1       5.940  -3.411  -0.471  0.00  0.00    +0.150 C 
BRANCH   5   8
ATOM      6  N   UNL     1       3.622  -0.651  -0.037  0.00  0.00    -0.234 N 
ATOM      7  C   UNL     1       3.801  -2.116  -0.053  0.00  0.00    +0.163 C 
ATOM      8  C   UNL     1       5.296  -2.267   0.315  0.00  0.00    +0.213 C 
ATOM      9  O   UNL     1       5.835  -0.994  -0.093  0.00  0.00    -0.444 OA
ATOM     10  C   UNL     1       4.845  -0.088  -0.048  0.00  0.00    +0.408 C 
ATOM     11  O   UNL     1       5.032   1.112  -0.016  0.00  0.00    -0.226 OA
BRANCH   6  15
ATOM     12  C   UNL     1      -0.017   1.379   0.010  0.00  0.00    +0.000 A 
ATOM     13  C   UNL     1       1.170   2.089   0.002  0.00  0.00    +0.002 A 
ATOM     14  C   UNL     1       2.377   1.419  -0.013  0.00  0.00    +0.023 A 
ATOM     15  C   UNL     1       2.400   0.031  -0.021  0.00  0.00    +0.040 A 
ATOM     16  C   UNL     1       1.207  -0.680  -0.013  0.00  0.00    +0.023 A 
ATOM     17  C   UNL     1       0.002  -0.004   0.002  0.00  0.00    +0.002 A 
ENDBRANCH   6  15
ENDBRANCH   5   8
ENDBRANCH   1   5
BRANCH   2  18
ATOM     18  C   UNL     1       9.502  -4.761  -0.097  0.00  0.00    +0.133 C 
BRANCH  18  19
ATOM     19  C   UNL     1      10.136  -5.888  -0.871  0.00  0.00    -0.014 A 
ATOM     20  C   UNL     1      10.204  -7.175  -0.496  0.00  0.00    +0.087 A 
ATOM     21  N   UNL     1      10.852  -7.906  -1.454  0.00  0.00    -0.360 N 
ATOM     22  H   UNL     1      11.022  -8.860  -1.407  0.00  0.00    +0.165 HD
ATOM     23  C   UNL     1      11.228  -7.086  -2.495  0.00  0.00    +0.047 A 
ATOM     24  C   UNL     1      10.790  -5.787  -2.178  0.00  0.00    +0.005 A 
ATOM     25  C   UNL     1      11.029  -4.735  -3.064  0.00  0.00    +0.030 A 
ATOM     26  C   UNL     1      11.691  -4.979  -4.248  0.00  0.00    +0.042 A 
ATOM     27  C   UNL     1      12.119  -6.262  -4.561  0.00  0.00    +0.022 A 
ATOM     28  C   UNL     1      11.898  -7.308  -3.693  0.00  0.00    +0.027 A 
ATOM     29 CL   UNL     1      11.990  -3.674  -5.354  0.00  0.00    -0.084 Cl
ENDBRANCH  18  19
ENDBRANCH   2  18
TORSDOF 5
