REMARK  Name = ZINC14743139
REMARK  11 active torsions:
REMARK  status: ('A' for Active; 'I' for Inactive)
REMARK    1  A    between atoms: C_1  and  C_2
REMARK    2  A    between atoms: C_2  and  C_3
REMARK    3  A    between atoms: C_2  and  N_4
REMARK    4  A    between atoms: N_4  and  S_5
REMARK    5  A    between atoms: S_5  and  C_8
REMARK    6  A    between atoms: C_10  and  C_23
REMARK    7  A    between atoms: C_12  and  N_14
REMARK    8  A    between atoms: N_14  and  C_15
REMARK    9  A    between atoms: C_15  and  C_16
REMARK   10  A    between atoms: N_25  and  C_26
REMARK   11  A    between atoms: C_26  and  C_27
REMARK                            x       y       z     vdW  Elec       q    Type
REMARK                         _______ _______ _______ _____ _____    ______ ____
ROOT
ATOM      1  C   UNL     1      -1.005   0.852  -7.297  0.00  0.00    +0.108 A 
ATOM      2  C   UNL     1       0.092   0.032  -7.467  0.00  0.00    +0.041 A 
ATOM      3  C   UNL     1       0.855  -0.352  -6.363  0.00  0.00    +0.040 A 
ATOM      4  C   UNL     1       0.503   0.096  -5.089  0.00  0.00    +0.036 A 
ATOM      5  C   UNL     1      -0.600   0.919  -4.929  0.00  0.00    +0.030 A 
ATOM      6  C   UNL     1      -1.356   1.291  -6.035  0.00  0.00    +0.051 A 
ENDROOT
BRANCH   3   7
ATOM      7  C   UNL     1       2.030  -1.231  -6.542  0.00  0.00    +0.244 C 
ATOM      8  O   UNL     1       2.334  -1.620  -7.653  0.00  0.00    -0.270 OA
ATOM      9  N   UNL     1       2.764  -1.600  -5.474  0.00  0.00    -0.306 N 
ATOM     10  H   UNL     1       2.522  -1.290  -4.588  0.00  0.00    +0.149 HD
BRANCH   9  11
ATOM     11  C   UNL     1       3.929  -2.471  -5.652  0.00  0.00    +0.161 C 
BRANCH  11  12
ATOM     12  C   UNL     1       4.570  -2.732  -4.313  0.00  0.00    +0.077 A 
ATOM     13  C   UNL     1       4.335  -3.801  -3.522  0.00  0.00    +0.117 A 
ATOM     14  N   UNL     1       5.113  -3.657  -2.406  0.00  0.00    -0.306 N 
ATOM     15  C   UNL     1       5.278  -4.425  -1.290  0.00  0.00    +0.092 A 
ATOM     16  C   UNL     1       6.128  -4.045  -0.313  0.00  0.00    +0.018 A 
ATOM     17  C   UNL     1       6.857  -2.849  -0.433  0.00  0.00    +0.005 A 
ATOM     18  C   UNL     1       6.702  -2.075  -1.541  0.00  0.00    +0.047 A 
ATOM     19  C   UNL     1       5.810  -2.486  -2.552  0.00  0.00    +0.138 A 
ATOM     20  N   UNL     1       5.469  -1.948  -3.714  0.00  0.00    -0.231 NA
ENDBRANCH  11  12
ENDBRANCH   9  11
ENDBRANCH   3   7
BRANCH   1  21
ATOM     21  S   UNL     1      -1.965   1.334  -8.693  0.00  0.00    +0.059 S 
ATOM     22  O   UNL     1      -2.618   2.546  -8.338  0.00  0.00    -0.153 OA
ATOM     23  O   UNL     1      -1.114   1.231  -9.827  0.00  0.00    -0.153 OA
BRANCH  21  24
ATOM     24  N   UNL     1      -3.153   0.197  -8.888  0.00  0.00    -0.187 NA
ATOM     25  H   UNL     1      -3.164  -0.361  -9.681  0.00  0.00    +0.148 HD
BRANCH  24  27
ATOM     26  C   UNL     1      -5.418   0.855  -8.242  0.00  0.00    +0.025 C 
ATOM     27  C   UNL     1      -4.185   0.033  -7.862  0.00  0.00    +0.070 C 
ATOM     28  C   UNL     1      -4.570  -1.445  -7.757  0.00  0.00    +0.025 C 
ENDBRANCH  24  27
ENDBRANCH  21  24
ENDBRANCH   1  21
BRANCH   5  29
ATOM     29  N   UNL     1      -0.957   1.370  -3.655  0.00  0.00    -0.343 N 
ATOM     30  H   UNL     1      -1.729   1.946  -3.543  0.00  0.00    +0.146 HD
BRANCH  29  31
ATOM     31  C   UNL     1      -0.164   0.973  -2.489  0.00  0.00    +0.105 C 
BRANCH  31  32
ATOM     32  C   UNL     1      -0.763   1.598  -1.228  0.00  0.00    +0.010 C 
ATOM     33  C   UNL     1      -0.013   1.086   0.008  0.00  0.00    +0.009 C 
ATOM     34  C   UNL     1      -0.737   1.583   1.260  0.00  0.00    +0.027 C 
ATOM     35  C   UNL     1      -1.003   3.058   1.151  0.00  0.00    -0.031 C 
ATOM     36  C   UNL     1      -0.952   3.725   0.043  0.00  0.00    -0.031 C 
ATOM     37  C   UNL     1      -0.615   3.120  -1.288  0.00  0.00    +0.032 C 
ENDBRANCH  31  32
ENDBRANCH  29  31
ENDBRANCH   5  29
TORSDOF 9
