REMARK  Name = ZINC62570763
REMARK  5 active torsions:
REMARK  status: ('A' for Active; 'I' for Inactive)
REMARK    1  A    between atoms: C_1  and  C_2
REMARK    2  A    between atoms: N_8  and  S_12
REMARK    3  A    between atoms: S_12  and  C_15
REMARK    4  A    between atoms: C_20  and  O_21
REMARK    5  A    between atoms: O_21  and  C_22
REMARK                            x       y       z     vdW  Elec       q    Type
REMARK                         _______ _______ _______ _____ _____    ______ ____
ROOT
ATOM      1  S   UNL     1       0.727  -2.034   3.757  0.00  0.00    +0.078 S 
ATOM      2  O   UNL     1      -0.198  -1.024   4.137  0.00  0.00    -0.150 OA
ATOM      3  O   UNL     1       1.021  -3.149   4.587  0.00  0.00    -0.150 OA
ENDROOT
BRANCH   1  11
ATOM      4  C   UNL     1      -1.353   1.796   0.870  0.00  0.00    +0.044 C 
ATOM      5  C   UNL     1      -1.033   0.354   0.569  0.00  0.00    -0.048 A 
ATOM      6  C   UNL     1      -1.197  -0.137  -0.713  0.00  0.00    +0.007 A 
ATOM      7  C   UNL     1      -0.907  -1.459  -0.995  0.00  0.00    +0.048 A 
ATOM      8  C   UNL     1      -0.448  -2.299   0.007  0.00  0.00    +0.143 A 
ATOM      9  C   UNL     1      -0.280  -1.801   1.297  0.00  0.00    +0.093 A 
ATOM     10  C   UNL     1      -0.569  -0.475   1.575  0.00  0.00    +0.031 A 
ATOM     11  N   UNL     1       0.192  -2.646   2.314  0.00  0.00    -0.196 N 
ATOM     12  C   UNL     1       0.196  -4.096   2.053  0.00  0.00    +0.172 C 
ATOM     13  C   UNL     1       0.693  -4.307   0.616  0.00  0.00    +0.250 C 
ATOM     14  O   UNL     1      -0.169  -3.598  -0.279  0.00  0.00    -0.488 OA
ENDBRANCH   1  11
BRANCH   1  15
ATOM     15  C   UNL     1       2.259  -1.222   3.443  0.00  0.00    +0.151 A 
ATOM     16  C   UNL     1       2.359   0.147   3.594  0.00  0.00    +0.052 A 
ATOM     17  C   UNL     1       3.561   0.785   3.348  0.00  0.00    +0.043 A 
ATOM     18  C   UNL     1       4.666   0.053   2.949  0.00  0.00    +0.024 A 
ATOM     19  C   UNL     1       4.570  -1.316   2.797  0.00  0.00    +0.049 A 
ATOM     20  C   UNL     1       3.366  -1.958   3.049  0.00  0.00    +0.147 A 
ATOM     21 CL   UNL     1       3.685   2.506   3.538  0.00  0.00    -0.083 Cl
BRANCH  20  22
ATOM     22  O   UNL     1       3.271  -3.307   2.905  0.00  0.00    -0.493 OA
ATOM     23  C   UNL     1       4.414  -3.985   2.381  0.00  0.00    +0.277 C 
ENDBRANCH  20  22
ENDBRANCH   1  15
TORSDOF 3
