REMARK  Name = ZINC16043124
REMARK  3 active torsions:
REMARK  status: ('A' for Active; 'I' for Inactive)
REMARK    1  A    between atoms: C_4  and  C_7
REMARK    2  A    between atoms: N_26  and  C_29
REMARK    3  A    between atoms: C_29  and  C_30
REMARK                            x       y       z     vdW  Elec       q    Type
REMARK                         _______ _______ _______ _____ _____    ______ ____
ROOT
ATOM      1  C   UNL     1       1.258  -3.821  -5.529  0.00  0.00    +0.154 C 
ATOM      2  C   UNL     1       2.248  -4.958  -5.641  0.00  0.00    +0.046 A 
ATOM      3  C   UNL     1       3.107  -5.298  -4.655  0.00  0.00    -0.015 A 
ATOM      4  C   UNL     1       3.883  -6.422  -5.140  0.00  0.00    +0.003 A 
ATOM      5  C   UNL     1       4.908  -7.183  -4.569  0.00  0.00    +0.010 A 
ATOM      6  C   UNL     1       5.426  -8.198  -5.334  0.00  0.00    +0.001 A 
ATOM      7  C   UNL     1       4.965  -8.467  -6.612  0.00  0.00    +0.002 A 
ATOM      8  C   UNL     1       3.953  -7.729  -7.202  0.00  0.00    +0.026 A 
ATOM      9  C   UNL     1       3.408  -6.691  -6.449  0.00  0.00    +0.047 A 
ATOM     10  N   UNL     1       2.421  -5.787  -6.717  0.00  0.00    -0.356 N 
ATOM     11  H   UNL     1       1.917  -5.739  -7.545  0.00  0.00    +0.166 HD
ATOM     12  C   UNL     1       3.198  -4.607  -3.319  0.00  0.00    +0.069 C 
ATOM     13  C   UNL     1       2.506  -3.240  -3.420  0.00  0.00    +0.167 C 
ATOM     14  N   UNL     1       1.228  -3.399  -4.112  0.00  0.00    -0.276 N 
ATOM     15  C   UNL     1       0.049  -3.177  -3.528  0.00  0.00    +0.234 C 
ATOM     16  O   UNL     1      -0.953  -3.404  -4.172  0.00  0.00    -0.274 OA
ATOM     17  C   UNL     1      -0.120  -2.671  -2.132  0.00  0.00    +0.204 C 
ATOM     18  N   UNL     1       1.156  -2.411  -1.487  0.00  0.00    -0.287 N 
ATOM     19  C   UNL     1       2.336  -2.662  -2.052  0.00  0.00    +0.237 C 
ATOM     20  O   UNL     1       3.336  -2.404  -1.416  0.00  0.00    -0.274 OA
ENDROOT
BRANCH   1  24
ATOM     21  C   UNL     1      -2.620  -5.147  -6.733  0.00  0.00    +0.000 A 
ATOM     22  C   UNL     1      -2.082  -3.997  -7.280  0.00  0.00    +0.000 A 
ATOM     23  C   UNL     1      -0.827  -3.568  -6.890  0.00  0.00    +0.006 A 
ATOM     24  C   UNL     1      -0.110  -4.288  -5.953  0.00  0.00    -0.021 A 
ATOM     25  C   UNL     1      -0.645  -5.441  -5.411  0.00  0.00    +0.006 A 
ATOM     26  C   UNL     1      -1.903  -5.868  -5.796  0.00  0.00    +0.000 A 
ENDBRANCH   1  24
BRANCH  18  27
ATOM     27  C   UNL     1       1.145  -1.845  -0.136  0.00  0.00    +0.143 C 
BRANCH  27  28
ATOM     28  C   UNL     1       1.157  -0.341  -0.221  0.00  0.00    -0.026 A 
ATOM     29  C   UNL     1       2.360   0.339  -0.246  0.00  0.00    +0.009 A 
ATOM     30  C   UNL     1       2.377   1.719  -0.325  0.00  0.00    +0.050 A 
ATOM     31  C   UNL     1       1.186   2.425  -0.379  0.00  0.00    +0.166 A 
ATOM     32  C   UNL     1      -0.027   1.740  -0.353  0.00  0.00    +0.167 A 
ATOM     33  C   UNL     1      -0.035   0.357  -0.274  0.00  0.00    +0.054 A 
ATOM     34  O   UNL     1      -1.043   2.649  -0.422  0.00  0.00    -0.453 OA
ATOM     35  C   UNL     1      -0.449   3.914  -0.069  0.00  0.00    +0.466 C 
ATOM     36  O   UNL     1       0.929   3.763  -0.458  0.00  0.00    -0.453 OA
ENDBRANCH  27  28
ENDBRANCH  18  27
TORSDOF 3
