REMARK  Name = ZINC16661522
REMARK  7 active torsions:
REMARK  status: ('A' for Active; 'I' for Inactive)
REMARK    1  A    between atoms: C_1  and  C_2
REMARK    2  A    between atoms: C_5  and  N_9
REMARK    3  A    between atoms: N_9  and  S_10
REMARK    4  A    between atoms: S_10  and  C_13
REMARK    5  A    between atoms: C_16  and  N_19
REMARK    6  A    between atoms: C_22  and  C_27
REMARK    7  A    between atoms: C_22  and  C_28
REMARK                            x       y       z     vdW  Elec       q    Type
REMARK                         _______ _______ _______ _____ _____    ______ ____
ROOT
ATOM      1  C   UNL     1       1.495   2.887   1.278  0.00  0.00    +0.109 A 
ATOM      2  C   UNL     1       0.974   4.165   1.193  0.00  0.00    +0.030 A 
ATOM      3  C   UNL     1       1.035   5.011   2.283  0.00  0.00    +0.027 A 
ATOM      4  C   UNL     1       1.629   4.581   3.462  0.00  0.00    +0.059 A 
ATOM      5  C   UNL     1       2.156   3.299   3.543  0.00  0.00    +0.027 A 
ATOM      6  C   UNL     1       2.087   2.455   2.451  0.00  0.00    +0.030 A 
ENDROOT
BRANCH   4   7
ATOM      7  N   UNL     1       1.697   5.438   4.566  0.00  0.00    -0.143 N 
ATOM      8  C   UNL     1       1.783   5.064   5.851  0.00  0.00    +0.246 C 
ATOM      9  O   UNL     1       1.840   3.890   6.153  0.00  0.00    -0.273 OA
ATOM     10  C   UNL     1       1.811   6.128   6.906  0.00  0.00    +0.064 C 
ATOM     11  C   UNL     1       2.202   7.476   6.242  0.00  0.00    +0.205 C 
ATOM     12  S   UNL     1       1.678   7.111   4.517  0.00  0.00    +0.053 S 
ATOM     13  O   UNL     1       2.691   7.480   3.591  0.00  0.00    -0.155 OA
ATOM     14  O   UNL     1       0.320   7.474   4.312  0.00  0.00    -0.155 OA
ATOM     15  C   UNL     1       2.839   5.766   7.980  0.00  0.00    +0.022 C 
ATOM     16  C   UNL     1       0.425   6.250   7.540  0.00  0.00    +0.022 C 
ENDBRANCH   4   7
BRANCH   1  17
ATOM     17  S   UNL     1       1.410   1.808  -0.112  0.00  0.00    +0.072 S 
ATOM     18  O   UNL     1       2.458   0.861   0.044  0.00  0.00    -0.150 OA
ATOM     19  O   UNL     1       1.296   2.636  -1.262  0.00  0.00    -0.150 OA
BRANCH  17  20
ATOM     20  N   UNL     1      -0.011   0.966   0.007  0.00  0.00    -0.215 N 
ATOM     21  H   UNL     1       0.003  -0.002   0.071  0.00  0.00    +0.174 HD
BRANCH  20  26
ATOM     22  C   UNL     1      -4.958   3.739   0.023  0.00  0.00    +0.044 C 
ATOM     23  C   UNL     1      -3.644   3.002   0.019  0.00  0.00    -0.049 A 
ATOM     24  C   UNL     1      -2.597   3.464  -0.757  0.00  0.00    +0.005 A 
ATOM     25  C   UNL     1      -1.391   2.791  -0.763  0.00  0.00    +0.026 A 
ATOM     26  C   UNL     1      -1.230   1.649   0.011  0.00  0.00    +0.062 A 
ATOM     27  C   UNL     1      -2.286   1.185   0.786  0.00  0.00    +0.040 A 
ATOM     28  C   UNL     1      -3.488   1.866   0.792  0.00  0.00    +0.020 A 
ATOM     29 BR   UNL     1      -2.076  -0.374   1.836  0.00  0.00    -0.048 Br
ENDBRANCH  20  26
ENDBRANCH  17  20
ENDBRANCH   1  17
TORSDOF 4
