REMARK  Name = ZINC04281250
REMARK  9 active torsions:
REMARK  status: ('A' for Active; 'I' for Inactive)
REMARK    1  A    between atoms: C_1  and  C_2
REMARK    2  A    between atoms: C_2  and  C_28
REMARK    3  A    between atoms: C_5  and  C_26
REMARK    4  A    between atoms: C_6  and  N_12
REMARK    5  A    between atoms: C_9  and  C_10
REMARK    6  A    between atoms: C_9  and  C_11
REMARK    7  A    between atoms: C_13  and  C_15
REMARK    8  A    between atoms: C_16  and  C_17
REMARK    9  A    between atoms: C_21  and  N_23
REMARK                            x       y       z     vdW  Elec       q    Type
REMARK                         _______ _______ _______ _____ _____    ______ ____
ROOT
ATOM      1  C   UNL     1      -3.616  13.823   2.257  0.00  0.00    -0.010 C 
ATOM      2  C   UNL     1      -3.783  14.085   0.759  0.00  0.00    -0.069 C 
ATOM      3  C   UNL     1      -4.376  12.845   0.088  0.00  0.00    +0.024 C 
ATOM      4  C   UNL     1      -3.312  11.756   0.082  0.00  0.00    -0.021 A 
ATOM      5  C   UNL     1      -3.566  10.330   0.091  0.00  0.00    +0.084 A 
ATOM      6  C   UNL     1      -2.462   9.483   0.076  0.00  0.00    +0.090 A 
ATOM      7  S   UNL     1      -1.123  10.584   0.066  0.00  0.00    -0.078 S 
ATOM      8  C   UNL     1      -2.009  12.115   0.069  0.00  0.00    -0.015 A 
ATOM      9  C   UNL     1      -1.464  13.506   0.047  0.00  0.00    -0.041 C 
ATOM     10  C   UNL     1      -0.453  13.679   1.189  0.00  0.00    -0.005 C 
ATOM     11  C   UNL     1      -0.717  13.710  -1.285  0.00  0.00    -0.005 C 
ATOM     12  C   UNL     1      -4.800  15.232   0.595  0.00  0.00    -0.010 C 
ATOM     13  N   UNL     1      -2.522  14.551   0.127  0.00  0.00    +0.389 N 
ATOM     14  H   UNL     1      -2.158  15.339   0.675  0.00  0.00    -0.084 HD
ATOM     15  H   UNL     1      -2.736  14.867  -0.827  0.00  0.00    -0.084 HD
ENDROOT
BRANCH   6  16
ATOM     16  N   UNL     1      -2.443   8.097   0.069  0.00  0.00    -0.275 N 
ATOM     17  C   UNL     1      -1.267   7.439   0.054  0.00  0.00    +0.241 C 
ATOM     18  O   UNL     1      -0.221   8.062   0.048  0.00  0.00    -0.270 OA
ATOM     19  H   UNL     1      -3.276   7.601   0.073  0.00  0.00    +0.156 HD
BRANCH  17  20
ATOM     20  C   UNL     1      -1.247   5.976   0.046  0.00  0.00    +0.068 C 
ATOM     21  C   UNL     1      -0.070   5.317   0.031  0.00  0.00    +0.013 C 
BRANCH  21  22
ATOM     22  C   UNL     1      -0.050   3.846   0.023  0.00  0.00    -0.023 A 
ATOM     23  C   UNL     1      -1.250   3.126   0.030  0.00  0.00    +0.008 A 
ATOM     24  C   UNL     1      -1.223   1.748   0.017  0.00  0.00    +0.003 A 
ATOM     25  C   UNL     1      -0.013   1.076   0.008  0.00  0.00    +0.033 A 
ATOM     26  C   UNL     1       1.178   1.780   0.000  0.00  0.00    +0.127 A 
ATOM     27  C   UNL     1       1.168   3.159   0.008  0.00  0.00    +0.040 A 
BRANCH  26  28
ATOM     28  N   UNL     1       2.467   1.052  -0.015  0.00  0.00    +0.056 N 
ATOM     29  O   UNL     1       2.478  -0.166  -0.022  0.00  0.00    -0.126 OA
ATOM     30  O   UNL     1       3.516   1.671  -0.022  0.00  0.00    -0.126 OA
ENDBRANCH  26  28
ENDBRANCH  21  22
ENDBRANCH  17  20
ENDBRANCH   6  16
BRANCH   5  31
ATOM     31  C   UNL     1      -4.897   9.799   0.115  0.00  0.00    +0.102 C 
ATOM     32  N   UNL     1      -5.952   9.378   0.134  0.00  0.00    -0.191 NA
ENDBRANCH   5  31
TORSDOF 5
