REMARK  Name = ZINC13500111
REMARK  12 active torsions:
REMARK  status: ('A' for Active; 'I' for Inactive)
REMARK    1  A    between atoms: C_1  and  C_2
REMARK    2  A    between atoms: C_2  and  C_3
REMARK    3  A    between atoms: C_3  and  C_4
REMARK    4  A    between atoms: C_4  and  C_6
REMARK    5  A    between atoms: C_4  and  N_72
REMARK    6  A    between atoms: N_10  and  C_11
REMARK    7  A    between atoms: C_11  and  C_12
REMARK    8  A    between atoms: C_12  and  C_13
REMARK    9  A    between atoms: C_19  and  C_20
REMARK   10  A    between atoms: C_19  and  N_72
REMARK   11  A    between atoms: C_26  and  C_32
REMARK   12  A    between atoms: C_33  and  N_72
REMARK                            x       y       z     vdW  Elec       q    Type
REMARK                         _______ _______ _______ _____ _____    ______ ____
ROOT
ATOM      1  N   UNL     1       1.349  -2.372   5.198  0.00  0.00    +0.391 N 
ATOM      2  H   UNL     1       1.702  -2.906   4.396  0.00  0.00    -0.080 HD
ENDROOT
BRANCH   1   3
ATOM      3  C   UNL     1       2.169  -1.152   5.359  0.00  0.00    -0.067 C 
ATOM      4  C   UNL     1       2.349  -0.473   3.986  0.00  0.00    -0.015 C 
ATOM      5  C   UNL     1       3.807   0.051   4.010  0.00  0.00    -0.002 C 
ATOM      6  C   UNL     1       4.564  -1.077   4.756  0.00  0.00    -0.002 C 
ATOM      7  C   UNL     1       3.577  -1.536   5.849  0.00  0.00    -0.015 C 
ENDBRANCH   1   3
BRANCH   1   8
ATOM      8  C   UNL     1       1.445  -3.209   6.412  0.00  0.00    +0.003 C 
BRANCH   8   9
ATOM      9  C   UNL     1       0.866  -2.485   7.600  0.00  0.00    +0.138 A 
ATOM     10  N   UNL     1       0.025  -1.480   7.571  0.00  0.00    -0.115 NA
ATOM     11  N   UNL     1      -0.234  -1.142   8.787  0.00  0.00    -0.023 NA
ATOM     12  N   UNL     1       0.424  -1.901   9.591  0.00  0.00    -0.044 NA
ATOM     13  N   UNL     1       1.115  -2.742   8.898  0.00  0.00    -0.231 N 
BRANCH  13  14
ATOM     14  C   UNL     1       2.002  -3.782   9.424  0.00  0.00    +0.152 C 
BRANCH  14  15
ATOM     15  C   UNL     1       3.446  -3.275   9.411  0.00  0.00    +0.058 C 
BRANCH  15  16
ATOM     16  C   UNL     1       4.356  -4.335   9.977  0.00  0.00    -0.046 A 
ATOM     17  C   UNL     1       4.627  -4.362  11.332  0.00  0.00    +0.004 A 
ATOM     18  C   UNL     1       5.457  -5.337  11.851  0.00  0.00    +0.000 A 
ATOM     19  C   UNL     1       6.025  -6.279  11.014  0.00  0.00    +0.000 A 
ATOM     20  C   UNL     1       5.758  -6.249   9.658  0.00  0.00    +0.000 A 
ATOM     21  C   UNL     1       4.923  -5.277   9.139  0.00  0.00    +0.004 A 
ENDBRANCH  15  16
ENDBRANCH  14  15
ENDBRANCH  13  14
ENDBRANCH   8   9
BRANCH   8  22
ATOM     22  C   UNL     1       0.672  -4.509   6.180  0.00  0.00    -0.008 C 
BRANCH  22  24
ATOM     23  C   UNL     1       0.417  -6.483   4.670  0.00  0.00    +0.004 C 
ATOM     24  C   UNL     1       1.263  -5.245   4.976  0.00  0.00    -0.005 C 
ENDBRANCH  22  24
ENDBRANCH   8  22
ENDBRANCH   1   8
BRANCH   1  25
ATOM     25  C   UNL     1      -0.060  -2.003   4.949  0.00  0.00    -0.036 C 
BRANCH  25  26
ATOM     26  C   UNL     1      -0.204  -1.599   3.504  0.00  0.00    +0.001 A 
ATOM     27  C   UNL     1      -0.232  -2.548   2.536  0.00  0.00    +0.017 A 
ATOM     28  C   UNL     1      -0.374  -2.122   1.143  0.00  0.00    -0.001 A 
ATOM     29  C   UNL     1      -0.409  -3.055   0.101  0.00  0.00    +0.010 A 
ATOM     30  C   UNL     1      -0.541  -2.625  -1.189  0.00  0.00    +0.001 A 
ATOM     31  C   UNL     1      -0.648  -1.270  -1.475  0.00  0.00    +0.005 A 
ATOM     32  C   UNL     1      -0.609  -0.333  -0.465  0.00  0.00    -0.026 A 
ATOM     33  C   UNL     1      -0.474  -0.747   0.856  0.00  0.00    +0.052 A 
ATOM     34  N   UNL     1      -0.439   0.168   1.887  0.00  0.00    -0.322 N 
ATOM     35  H   UNL     1      -0.509   1.115   1.688  0.00  0.00    +0.169 HD
ATOM     36  C   UNL     1      -0.309  -0.233   3.163  0.00  0.00    +0.251 A 
ATOM     37  O   UNL     1      -0.282   0.604   4.049  0.00  0.00    -0.268 OA
ATOM     38  C   UNL     1      -0.718   1.134  -0.790  0.00  0.00    +0.046 C 
ENDBRANCH  25  26
ENDBRANCH   1  25
TORSDOF 10
