REMARK  Name = ZINC38592132
REMARK  8 active torsions:
REMARK  status: ('A' for Active; 'I' for Inactive)
REMARK    1  A    between atoms: C_1  and  C_2
REMARK    2  A    between atoms: C_2  and  O_3
REMARK    3  A    between atoms: O_3  and  C_4
REMARK    4  A    between atoms: C_4  and  C_6
REMARK    5  A    between atoms: C_8  and  N_17
REMARK    6  A    between atoms: C_18  and  C_20
REMARK    7  A    between atoms: C_20  and  N_21
REMARK    8  A    between atoms: N_24  and  C_27
REMARK                            x       y       z     vdW  Elec       q    Type
REMARK                         _______ _______ _______ _____ _____    ______ ____
ROOT
ATOM      1  N   UNL     1      -3.413  -0.994   2.264  0.00  0.00    -0.288 N 
ATOM      2  C   UNL     1      -3.911  -1.239   3.492  0.00  0.00    +0.200 C 
ATOM      3  O   UNL     1      -3.917  -2.369   3.929  0.00  0.00    -0.278 OA
ATOM      4  H   UNL     1      -3.341  -0.081   1.943  0.00  0.00    +0.155 HD
ENDROOT
BRANCH   1   6
ATOM      5  C   UNL     1      -3.169  -3.506   1.752  0.00  0.00    +0.234 C 
ATOM      6  C   UNL     1      -3.012  -2.028   1.472  0.00  0.00    +0.053 C 
ATOM      7  C   UNL     1      -2.378  -1.944   0.245  0.00  0.00    +0.020 A 
ATOM      8  C   UNL     1      -1.964  -0.842  -0.542  0.00  0.00    +0.050 A 
ATOM      9  C   UNL     1      -1.351  -1.059  -1.733  0.00  0.00    +0.124 A 
ATOM     10  C   UNL     1      -1.115  -2.353  -2.211  0.00  0.00    +0.040 A 
ATOM     11  C   UNL     1      -1.484  -3.453  -1.510  0.00  0.00    +0.029 A 
ATOM     12  C   UNL     1      -2.131  -3.307  -0.256  0.00  0.00    +0.045 A 
ATOM     13  N   UNL     1      -2.581  -4.202   0.603  0.00  0.00    -0.367 N 
ATOM     14  F   UNL     1      -0.960  -0.001  -2.476  0.00  0.00    -0.205 F 
ATOM     15  H   UNL     1      -2.530  -5.164   0.493  0.00  0.00    +0.161 HD
BRANCH   5  16
ATOM     16  C   UNL     1      -4.629  -3.858   1.881  0.00  0.00    +0.336 C 
ATOM     17  O   UNL     1      -5.321  -3.933   0.893  0.00  0.00    -0.248 OA
BRANCH  16  18
ATOM     18  O   UNL     1      -5.160  -4.090   3.091  0.00  0.00    -0.463 OA
BRANCH  18  20
ATOM     19  C   UNL     1      -6.968  -4.671   4.586  0.00  0.00    +0.048 C 
ATOM     20  C   UNL     1      -6.516  -4.537   3.130  0.00  0.00    +0.229 C 
ENDBRANCH  18  20
ENDBRANCH  16  18
ENDBRANCH   5  16
ENDBRANCH   1   6
BRANCH   2  21
ATOM     21  C   UNL     1      -4.460  -0.107   4.322  0.00  0.00    +0.019 C 
BRANCH  21  22
ATOM     22  N   UNL     1      -4.741  -0.588   5.681  0.00  0.00    +0.387 N 
ATOM     23  C   UNL     1      -5.870  -1.527   5.643  0.00  0.00    -0.059 C 
ATOM     24  C   UNL     1      -6.090  -2.116   7.040  0.00  0.00    +0.086 C 
ATOM     25  N   UNL     1      -6.255  -1.008   7.993  0.00  0.00    -0.333 N 
ATOM     26  C   UNL     1      -5.250   0.067   7.986  0.00  0.00    +0.086 C 
ATOM     27  C   UNL     1      -5.069   0.553   6.545  0.00  0.00    -0.059 C 
ATOM     28  H   UNL     1      -3.927  -1.060   6.045  0.00  0.00    -0.081 HD
BRANCH  25  29
ATOM     29  C   UNL     1      -7.334  -0.977   8.880  0.00  0.00    +0.030 A 
ATOM     30  C   UNL     1      -8.195  -2.063   8.966  0.00  0.00    +0.024 A 
ATOM     31  C   UNL     1      -9.261  -2.030   9.844  0.00  0.00    +0.022 A 
ATOM     32  C   UNL     1      -9.472  -0.915  10.636  0.00  0.00    +0.041 A 
ATOM     33  C   UNL     1      -8.616   0.169  10.552  0.00  0.00    +0.022 A 
ATOM     34  C   UNL     1      -7.545   0.138   9.681  0.00  0.00    +0.024 A 
ATOM     35 CL   UNL     1     -10.813  -0.876  11.737  0.00  0.00    -0.084 Cl
ENDBRANCH  25  29
ENDBRANCH  21  22
ENDBRANCH   2  21
TORSDOF 7
