REMARK  Name = ZINC37634656
REMARK  8 active torsions:
REMARK  status: ('A' for Active; 'I' for Inactive)
REMARK    1  A    between atoms: C_1  and  C_2
REMARK    2  A    between atoms: C_2  and  C_3
REMARK    3  A    between atoms: C_2  and  C_4
REMARK    4  A    between atoms: C_2  and  N_5
REMARK    5  A    between atoms: N_5  and  C_6
REMARK    6  A    between atoms: C_6  and  C_7
REMARK    7  A    between atoms: C_7  and  C_8
REMARK    8  A    between atoms: N_10  and  C_11
REMARK                            x       y       z     vdW  Elec       q    Type
REMARK                         _______ _______ _______ _____ _____    ______ ____
ROOT
ATOM      1  C   UNL     1       3.931   0.530  -3.633  0.00  0.00    +0.215 C 
ATOM      2  O   UNL     1       4.052   1.735  -3.710  0.00  0.00    -0.276 OA
ATOM      3  N   UNL     1       5.022  -0.250  -3.507  0.00  0.00    -0.283 N 
ATOM      4  H   UNL     1       4.923  -1.205  -3.372  0.00  0.00    +0.155 HD
ENDROOT
BRANCH   3   5
ATOM      5  C   UNL     1       6.298   0.318  -3.571  0.00  0.00    +0.080 A 
ATOM      6  C   UNL     1       6.968   0.355  -4.755  0.00  0.00    +0.066 A 
ATOM      7  C   UNL     1       8.242   0.914  -4.853  0.00  0.00    +0.044 A 
ATOM      8  C   UNL     1       8.868   1.444  -3.774  0.00  0.00    +0.071 A 
ATOM      9  C   UNL     1       8.230   1.441  -2.502  0.00  0.00    +0.120 A 
ATOM     10  C   UNL     1       6.896   0.863  -2.396  0.00  0.00    +0.124 A 
ATOM     11  N   UNL     1       6.396   0.920  -1.162  0.00  0.00    -0.189 NA
ATOM     12  S   UNL     1       7.523   1.642  -0.269  0.00  0.00    +0.117 S 
ATOM     13  N   UNL     1       8.690   1.914  -1.343  0.00  0.00    -0.189 NA
ATOM     14 CL   UNL     1      10.454   2.128  -3.945  0.00  0.00    -0.081 Cl
ATOM     15 CL   UNL     1       6.221  -0.308  -6.175  0.00  0.00    -0.082 Cl
ENDBRANCH   3   5
BRANCH   1  16
ATOM     16  C   UNL     1       2.560  -0.093  -3.678  0.00  0.00    +0.077 C 
BRANCH  16  17
ATOM     17  C   UNL     1       1.504   1.005  -3.824  0.00  0.00    -0.073 C 
BRANCH  17  18
ATOM     18  N   UNL     1       0.168   0.397  -3.867  0.00  0.00    +0.383 N 
ATOM     19  H   UNL     1       0.004  -0.116  -3.014  0.00  0.00    -0.085 HD
ATOM     20  H   UNL     1       0.110  -0.232  -4.654  0.00  0.00    -0.085 HD
BRANCH  18  22
ATOM     21  C   UNL     1      -0.597   2.228  -5.301  0.00  0.00    -0.011 C 
ATOM     22  C   UNL     1      -0.846   1.451  -4.008  0.00  0.00    -0.077 C 
ATOM     23  C   UNL     1      -0.758   2.405  -2.814  0.00  0.00    -0.011 C 
ATOM     24  C   UNL     1      -2.238   0.818  -4.053  0.00  0.00    -0.011 C 
ENDBRANCH  18  22
ENDBRANCH  17  18
ENDBRANCH  16  17
ENDBRANCH   1  16
TORSDOF 5
