REMARK  Name = ZINC15684814
REMARK  9 active torsions:
REMARK  status: ('A' for Active; 'I' for Inactive)
REMARK    1  A    between atoms: C_1  and  C_2
REMARK    2  A    between atoms: C_2  and  C_4
REMARK    3  A    between atoms: C_2  and  O_21
REMARK    4  A    between atoms: C_15  and  C_17
REMARK    5  A    between atoms: O_21  and  C_22
REMARK    6  A    between atoms: C_22  and  C_24
REMARK    7  A    between atoms: C_24  and  C_25
REMARK    8  A    between atoms: C_25  and  C_26
REMARK    9  A    between atoms: C_26  and  C_27
REMARK                            x       y       z     vdW  Elec       q    Type
REMARK                         _______ _______ _______ _____ _____    ______ ____
ROOT
ATOM      1  C   UNL     1       4.276  -1.085  -0.970  0.00  0.00    +0.062 C 
ATOM      2  C   UNL     1       3.905  -0.779   0.482  0.00  0.00    +0.259 C 
ENDROOT
BRANCH   2   3
ATOM      3  C   UNL     1       2.563  -0.094   0.524  0.00  0.00    +0.261 C 
ATOM      4  O   UNL     1       1.619  -0.642   1.052  0.00  0.00    -0.271 OA
ATOM      5  N   UNL     1       2.413   1.128  -0.026  0.00  0.00    -0.258 N 
ATOM      6  C   UNL     1       3.542   1.813  -0.672  0.00  0.00    +0.209 C 
ATOM      7  C   UNL     1       3.524   3.268  -0.279  0.00  0.00    +0.235 C 
ATOM      8  O   UNL     1       4.565   3.889  -0.228  0.00  0.00    -0.274 OA
ATOM      9  N   UNL     1       2.365   3.888   0.016  0.00  0.00    -0.283 N 
ATOM     10  C   UNL     1       1.157   3.182   0.012  0.00  0.00    +0.056 A 
ATOM     11  C   UNL     1       1.174   1.786   0.000  0.00  0.00    +0.058 A 
ATOM     12  C   UNL     1      -0.013   1.076   0.008  0.00  0.00    +0.026 A 
ATOM     13  C   UNL     1      -1.219   1.754   0.017  0.00  0.00    +0.014 A 
ATOM     14  C   UNL     1      -1.239   3.137   0.030  0.00  0.00    +0.057 A 
ATOM     15  C   UNL     1      -0.056   3.853   0.025  0.00  0.00    +0.037 A 
ATOM     16  H   UNL     1       2.368   4.833   0.234  0.00  0.00    +0.155 HD
BRANCH  14  17
ATOM     17  C   UNL     1      -2.557   3.867   0.043  0.00  0.00    +0.417 C 
ATOM     18  F   UNL     1      -2.975   4.100  -1.271  0.00  0.00    -0.166 F 
ATOM     19  F   UNL     1      -3.514   3.090   0.706  0.00  0.00    -0.166 F 
ATOM     20  F   UNL     1      -2.406   5.089   0.708  0.00  0.00    -0.166 F 
ENDBRANCH  14  17
ENDBRANCH   2   3
BRANCH   2  21
ATOM     21  O   UNL     1       3.839  -2.018   1.236  0.00  0.00    -0.452 OA
BRANCH  21  22
ATOM     22  C   UNL     1       4.971  -2.432   1.827  0.00  0.00    +0.308 C 
ATOM     23  O   UNL     1       5.983  -1.782   1.718  0.00  0.00    -0.251 OA
BRANCH  22  24
ATOM     24  C   UNL     1       4.979  -3.709   2.627  0.00  0.00    +0.121 C 
BRANCH  24  25
ATOM     25  C   UNL     1       6.382  -3.950   3.189  0.00  0.00    +0.016 C 
BRANCH  25  26
ATOM     26  C   UNL     1       6.391  -5.247   4.001  0.00  0.00    +0.038 C 
BRANCH  26  27
ATOM     27  C   UNL     1       7.772  -5.484   4.554  0.00  0.00    -0.022 A 
ATOM     28  C   UNL     1       8.732  -6.246   4.007  0.00  0.00    +0.087 A 
ATOM     29  N   UNL     1       9.853  -6.220   4.791  0.00  0.00    -0.360 N 
ATOM     30  H   UNL     1      10.678  -6.694   4.600  0.00  0.00    +0.165 HD
ATOM     31  C   UNL     1       9.633  -5.428   5.895  0.00  0.00    +0.047 A 
ATOM     32  C   UNL     1       8.320  -4.931   5.795  0.00  0.00    +0.003 A 
ATOM     33  C   UNL     1       7.817  -4.088   6.788  0.00  0.00    +0.010 A 
ATOM     34  C   UNL     1       8.604  -3.748   7.852  0.00  0.00    +0.001 A 
ATOM     35  C   UNL     1       9.899  -4.235   7.955  0.00  0.00    +0.002 A 
ATOM     36  C   UNL     1      10.416  -5.069   6.987  0.00  0.00    +0.026 A 
ENDBRANCH  26  27
ENDBRANCH  25  26
ENDBRANCH  24  25
ENDBRANCH  22  24
ENDBRANCH  21  22
ENDBRANCH   2  21
TORSDOF 8
