REMARK  Name = ZINC35403767
REMARK  8 active torsions:
REMARK  status: ('A' for Active; 'I' for Inactive)
REMARK    1  A    between atoms: C_1  and  C_2
REMARK    2  A    between atoms: C_2  and  C_3
REMARK    3  A    between atoms: C_7  and  C_37
REMARK    4  A    between atoms: C_8  and  N_9
REMARK    5  A    between atoms: C_14  and  C_31
REMARK    6  A    between atoms: C_17  and  C_22
REMARK    7  A    between atoms: C_17  and  C_28
REMARK    8  A    between atoms: C_37  and  C_38
REMARK                            x       y       z     vdW  Elec       q    Type
REMARK                         _______ _______ _______ _____ _____    ______ ____
ROOT
ATOM      1  N   UNL     1       2.412  -0.873   0.179  0.00  0.00    -0.209 N 
ATOM      2  C   UNL     1       2.765   0.454   0.206  0.00  0.00    +0.229 C 
ATOM      3  O   UNL     1       2.267   1.365  -0.420  0.00  0.00    -0.275 OA
ATOM      4  C   UNL     1       3.858   0.524   1.144  0.00  0.00    +0.078 C 
ATOM      5  C   UNL     1       4.563   1.496   1.997  0.00  0.00    -0.019 C 
ATOM      6  N   UNL     1       5.436   0.604   2.836  0.00  0.00    +0.399 N 
ATOM      7  C   UNL     1       4.818  -0.756   2.851  0.00  0.00    +0.074 C 
ATOM      8  C   UNL     1       3.437  -0.569   2.204  0.00  0.00    +0.091 C 
ATOM      9  C   UNL     1       2.964  -1.587   1.204  0.00  0.00    +0.229 C 
ATOM     10  O   UNL     1       3.056  -2.793   1.289  0.00  0.00    -0.275 OA
ATOM     11  H   UNL     1       6.360   0.554   2.434  0.00  0.00    -0.083 HD
ATOM     12  H   UNL     1       5.490   0.965   3.776  0.00  0.00    -0.083 HD
ENDROOT
BRANCH   1  18
ATOM     13  C   UNL     1       0.198  -1.465  -0.589  0.00  0.00    -0.026 A 
ATOM     14  C   UNL     1      -0.629  -2.012  -1.551  0.00  0.00    +0.005 A 
ATOM     15  C   UNL     1      -0.090  -2.532  -2.713  0.00  0.00    +0.001 A 
ATOM     16  C   UNL     1       1.277  -2.506  -2.917  0.00  0.00    +0.005 A 
ATOM     17  C   UNL     1       2.109  -1.960  -1.959  0.00  0.00    -0.026 A 
ATOM     18  C   UNL     1       1.571  -1.433  -0.793  0.00  0.00    +0.050 A 
BRANCH  13  20
ATOM     19  C   UNL     1      -0.598   0.609   0.513  0.00  0.00    +0.009 C 
ATOM     20  C   UNL     1      -0.391  -0.898   0.677  0.00  0.00    +0.033 C 
ENDBRANCH  13  20
BRANCH  17  21
ATOM     21  C   UNL     1       3.599  -1.932  -2.181  0.00  0.00    +0.033 C 
ATOM     22  C   UNL     1       4.237  -3.153  -1.514  0.00  0.00    +0.009 C 
ENDBRANCH  17  21
ENDBRANCH   1  18
BRANCH   7  23
ATOM     23  C   UNL     1       5.664  -1.722   2.064  0.00  0.00    -0.047 A 
ATOM     24  C   UNL     1       5.564  -3.081   2.301  0.00  0.00    +0.003 A 
ATOM     25  C   UNL     1       6.340  -3.967   1.578  0.00  0.00    +0.000 A 
ATOM     26  C   UNL     1       7.216  -3.496   0.618  0.00  0.00    +0.000 A 
ATOM     27  C   UNL     1       7.315  -2.138   0.380  0.00  0.00    +0.000 A 
ATOM     28  C   UNL     1       6.536  -1.252   1.100  0.00  0.00    +0.003 A 
ENDBRANCH   7  23
BRANCH   5  29
ATOM     29  C   UNL     1       5.396   2.438   1.166  0.00  0.00    -0.022 A 
ATOM     30  C   UNL     1       5.119   3.706   0.779  0.00  0.00    +0.011 A 
ATOM     31  C   UNL     1       6.043   4.389   0.009  0.00  0.00    +0.028 A 
ATOM     32  C   UNL     1       7.198   3.768  -0.336  0.00  0.00    +0.078 A 
ATOM     33  S   UNL     1       7.006   2.173   0.443  0.00  0.00    -0.083 S 
ATOM     34 CL   UNL     1       8.522   4.370  -1.284  0.00  0.00    -0.076 Cl
ENDBRANCH   5  29
BRANCH   7  35
ATOM     35  C   UNL     1       4.655  -1.239   4.270  0.00  0.00    +0.350 C 
ATOM     36  O   UNL     1       5.038  -0.546   5.197  0.00  0.00    -0.248 OA
ATOM     37  O   UNL     1       4.142  -2.322   4.489  0.00  0.00    -0.248 OA
ENDBRANCH   7  35
TORSDOF 6
