REMARK  Name = ZINC40404709
REMARK  15 active torsions:
REMARK  status: ('A' for Active; 'I' for Inactive)
REMARK    1  A    between atoms: C_1  and  C_2
REMARK    2  A    between atoms: C_2  and  C_3
REMARK    3  A    between atoms: C_3  and  C_4
REMARK    4  A    between atoms: C_4  and  O_6
REMARK    5  A    between atoms: O_6  and  C_7
REMARK    6  A    between atoms: C_7  and  C_8
REMARK    7  A    between atoms: C_8  and  C_10
REMARK    8  A    between atoms: C_8  and  O_35
REMARK    9  A    between atoms: C_10  and  N_11
REMARK   10  A    between atoms: N_11  and  C_12
REMARK   11  A    between atoms: N_11  and  C_32
REMARK   12  A    between atoms: C_12  and  C_13
REMARK   13  A    between atoms: C_19  and  C_24
REMARK   14  A    between atoms: C_28  and  O_30
REMARK   15  A    between atoms: O_30  and  C_31
REMARK                            x       y       z     vdW  Elec       q    Type
REMARK                         _______ _______ _______ _____ _____    ______ ____
ROOT
ATOM      1  C   UNL     1      -4.303  -8.202   1.845  0.00  0.00    +0.094 A 
ATOM      2  N   UNL     1      -3.992  -9.437   2.314  0.00  0.00    -0.312 N 
ATOM      3  H   UNL     1      -4.222 -10.218   1.786  0.00  0.00    +0.170 HD
ATOM      4  C   UNL     1      -3.372  -9.600   3.497  0.00  0.00    +0.260 A 
ATOM      5  O   UNL     1      -3.099 -10.716   3.905  0.00  0.00    -0.267 OA
ATOM      6  C   UNL     1      -3.036  -8.443   4.270  0.00  0.00    +0.080 A 
ATOM      7  C   UNL     1      -2.371  -8.358   5.564  0.00  0.00    +0.004 A 
ATOM      8  C   UNL     1      -2.156  -7.136   6.109  0.00  0.00    +0.056 A 
ATOM      9  S   UNL     1      -2.843  -6.020   4.900  0.00  0.00    -0.076 S 
ATOM     10  C   UNL     1      -3.396  -7.208   3.704  0.00  0.00    +0.116 A 
ATOM     11  N   UNL     1      -4.005  -7.127   2.524  0.00  0.00    -0.229 NA
ENDROOT
BRANCH   7  12
ATOM     12  C   UNL     1      -1.938  -9.587   6.272  0.00  0.00    -0.013 A 
ATOM     13  C   UNL     1      -2.828 -10.646   6.444  0.00  0.00    +0.009 A 
ATOM     14  C   UNL     1      -2.422 -11.788   7.103  0.00  0.00    +0.004 A 
ATOM     15  C   UNL     1      -1.134 -11.887   7.595  0.00  0.00    +0.045 A 
ATOM     16  C   UNL     1      -0.241 -10.837   7.428  0.00  0.00    +0.121 A 
ATOM     17  C   UNL     1      -0.637  -9.689   6.762  0.00  0.00    +0.054 A 
BRANCH  16  18
ATOM     18  O   UNL     1       1.025 -10.938   7.913  0.00  0.00    -0.495 OA
ATOM     19  C   UNL     1       1.367 -12.153   8.583  0.00  0.00    +0.277 C 
ENDBRANCH  16  18
ENDBRANCH   7  12
BRANCH   1  20
ATOM     20  C   UNL     1      -4.998  -8.068   0.514  0.00  0.00    -0.003 C 
BRANCH  20  21
ATOM     21  N   UNL     1      -5.103  -6.647   0.157  0.00  0.00    +0.388 N 
ATOM     22  H   UNL     1      -5.531  -6.140   0.917  0.00  0.00    -0.081 HD
BRANCH  21  23
ATOM     23  C   UNL     1      -5.926  -6.505  -1.051  0.00  0.00    -0.068 C 
ATOM     24  C   UNL     1      -7.045  -5.461  -1.025  0.00  0.00    -0.017 C 
ATOM     25  C   UNL     1      -7.387  -6.951  -0.967  0.00  0.00    -0.017 C 
ENDBRANCH  21  23
BRANCH  21  26
ATOM     26  C   UNL     1      -3.761  -6.106  -0.098  0.00  0.00    -0.043 C 
BRANCH  26  27
ATOM     27  C   UNL     1      -3.858  -4.599  -0.348  0.00  0.00    +0.136 C 
BRANCH  27  28
ATOM     28  O   UNL     1      -4.693  -4.357  -1.482  0.00  0.00    -0.390 OA
ATOM     29  H   UNL     1      -4.373  -4.762  -2.299  0.00  0.00    +0.210 HD
ENDBRANCH  27  28
BRANCH  27  30
ATOM     30  C   UNL     1      -2.461  -4.036  -0.614  0.00  0.00    +0.261 C 
BRANCH  30  31
ATOM     31  O   UNL     1      -2.535  -2.614  -0.731  0.00  0.00    -0.462 OA
BRANCH  31  32
ATOM     32  C   UNL     1      -1.386  -1.961  -0.967  0.00  0.00    +0.307 C 
ATOM     33  O   UNL     1      -0.351  -2.576  -1.070  0.00  0.00    -0.251 OA
BRANCH  32  34
ATOM     34  C   UNL     1      -1.387  -0.460  -1.103  0.00  0.00    +0.120 C 
BRANCH  34  36
ATOM     35  C   UNL     1       0.039   1.553  -1.505  0.00  0.00    +0.004 C 
ATOM     36  C   UNL     1       0.039   0.029  -1.367  0.00  0.00    +0.008 C 
ENDBRANCH  34  36
ENDBRANCH  32  34
ENDBRANCH  31  32
ENDBRANCH  30  31
ENDBRANCH  27  30
ENDBRANCH  26  27
ENDBRANCH  21  26
ENDBRANCH  20  21
ENDBRANCH   1  20
TORSDOF 13
