REMARK  Name = ZINC64103110
REMARK  6 active torsions:
REMARK  status: ('A' for Active; 'I' for Inactive)
REMARK    1  A    between atoms: C_7  and  C_10
REMARK    2  A    between atoms: C_10  and  N_11
REMARK    3  A    between atoms: C_14  and  C_17
REMARK    4  A    between atoms: C_17  and  C_29
REMARK    5  A    between atoms: N_20  and  C_24
REMARK    6  A    between atoms: C_29  and  C_30
REMARK                            x       y       z     vdW  Elec       q    Type
REMARK                         _______ _______ _______ _____ _____    ______ ____
ROOT
ATOM      1  C   UNL     1      -0.260  -5.716  -5.046  0.00  0.00    +0.119 C 
ATOM      2  C   UNL     1       0.961  -6.166  -5.824  0.00  0.00    +0.247 C 
ATOM      3  O   UNL     1       1.628  -7.160  -5.630  0.00  0.00    -0.273 OA
ATOM      4  N   UNL     1       1.150  -5.232  -6.777  0.00  0.00    -0.221 N 
ATOM      5  C   UNL     1       0.228  -4.264  -6.710  0.00  0.00    +0.310 C 
ATOM      6  O   UNL     1       0.191  -3.313  -7.465  0.00  0.00    -0.252 OA
ATOM      7  N   UNL     1      -0.653  -4.463  -5.713  0.00  0.00    -0.284 N 
ATOM      8  H   UNL     1      -1.402  -3.893  -5.480  0.00  0.00    +0.151 HD
ENDROOT
BRANCH   1  12
ATOM      9  N   UNL     1       0.371  -3.559  -1.408  0.00  0.00    +0.382 N 
ATOM     10  C   UNL     1       1.561  -4.138  -2.044  0.00  0.00    -0.078 C 
ATOM     11  C   UNL     1       1.258  -4.454  -3.510  0.00  0.00    -0.013 C 
ATOM     12  C   UNL     1       0.102  -5.455  -3.582  0.00  0.00    +0.018 C 
ATOM     13  C   UNL     1      -1.111  -4.872  -2.851  0.00  0.00    -0.013 C 
ATOM     14  C   UNL     1      -0.720  -4.540  -1.409  0.00  0.00    -0.078 C 
ATOM     15  H   UNL     1       0.085  -2.738  -1.920  0.00  0.00    -0.081 HD
BRANCH   9  16
ATOM     16  C   UNL     1       0.691  -3.186  -0.024  0.00  0.00    -0.045 C 
BRANCH  16  23
ATOM     17  C   UNL     1       5.263  -3.171   0.362  0.00  0.00    +0.001 A 
ATOM     18  C   UNL     1       5.827  -1.889   0.310  0.00  0.00    +0.002 A 
ATOM     19  C   UNL     1       5.086  -0.772   0.159  0.00  0.00    +0.026 A 
ATOM     20  C   UNL     1       3.671  -0.858   0.045  0.00  0.00    +0.043 A 
ATOM     21  N   UNL     1       2.749   0.062  -0.105  0.00  0.00    -0.380 N 
ATOM     22  C   UNL     1       1.438  -0.593  -0.164  0.00  0.00    +0.142 C 
ATOM     23  C   UNL     1       1.709  -2.075  -0.025  0.00  0.00    -0.058 C 
ATOM     24  C   UNL     1       3.050  -2.201   0.098  0.00  0.00    -0.003 A 
ATOM     25  C   UNL     1       3.928  -3.365   0.264  0.00  0.00    +0.010 A 
ATOM     26  H   UNL     1       2.908   1.018  -0.166  0.00  0.00    +0.160 HD
ENDBRANCH  16  23
ENDBRANCH   9  16
ENDBRANCH   1  12
BRANCH   4  27
ATOM     27  C   UNL     1       2.232  -5.271  -7.764  0.00  0.00    +0.086 C 
ATOM     28  C   UNL     1       3.076  -3.983  -7.674  0.00  0.00    +0.023 C 
ATOM     29  C   UNL     1       3.445  -3.667  -9.145  0.00  0.00    +0.002 C 
ATOM     30  C   UNL     1       2.155  -4.050  -9.911  0.00  0.00    +0.002 C 
ATOM     31  C   UNL     1       1.646  -5.314  -9.187  0.00  0.00    +0.023 C 
ENDBRANCH   4  27
BRANCH   1  32
ATOM     32  C   UNL     1      -1.379  -6.754  -5.146  0.00  0.00    +0.070 C 
BRANCH  32  33
ATOM     33  C   UNL     1      -1.715  -6.992  -6.595  0.00  0.00    -0.045 A 
ATOM     34  C   UNL     1      -2.681  -6.222  -7.216  0.00  0.00    +0.006 A 
ATOM     35  C   UNL     1      -2.990  -6.439  -8.545  0.00  0.00    +0.038 A 
ATOM     36  C   UNL     1      -2.332  -7.428  -9.256  0.00  0.00    +0.123 A 
ATOM     37  C   UNL     1      -1.364  -8.199  -8.633  0.00  0.00    +0.038 A 
ATOM     38  C   UNL     1      -1.053  -7.976  -7.305  0.00  0.00    +0.006 A 
ATOM     39  F   UNL     1      -2.633  -7.642 -10.555  0.00  0.00    -0.205 F 
ENDBRANCH  32  33
ENDBRANCH   1  32
TORSDOF 6
