REMARK  Name = ZINC03840003
REMARK  6 active torsions:
REMARK  status: ('A' for Active; 'I' for Inactive)
REMARK    1  A    between atoms: C_1  and  C_2
REMARK    2  A    between atoms: C_10  and  C_12
REMARK    3  A    between atoms: C_12  and  S_13
REMARK    4  A    between atoms: S_13  and  C_16
REMARK    5  A    between atoms: C_23  and  C_38
REMARK    6  A    between atoms: C_32  and  C_37
REMARK                            x       y       z     vdW  Elec       q    Type
REMARK                         _______ _______ _______ _____ _____    ______ ____
ROOT
ATOM      1  C   UNL     1       0.845  -6.082  -4.499  0.00  0.00    +0.014 C 
ATOM      2  C   UNL     1       2.018  -5.194  -4.920  0.00  0.00    +0.043 C 
ATOM      3  C   UNL     1       1.797  -3.781  -4.399  0.00  0.00    +0.057 A 
ATOM      4  C   UNL     1       2.098  -2.713  -5.183  0.00  0.00    +0.015 A 
ATOM      5  S   UNL     1       1.663  -1.339  -4.151  0.00  0.00    -0.057 S 
ATOM      6  C   UNL     1       1.135  -2.264  -2.777  0.00  0.00    +0.165 A 
ATOM      7  N   UNL     1       1.314  -3.501  -3.192  0.00  0.00    -0.229 NA
ATOM      8  N   UNL     1       0.643  -1.814  -1.557  0.00  0.00    -0.263 N 
ATOM      9  C   UNL     1       0.534  -0.492  -1.321  0.00  0.00    +0.240 C 
ATOM     10  O   UNL     1       0.865   0.305  -2.173  0.00  0.00    -0.274 OA
ATOM     11  C   UNL     1       2.648  -2.724  -6.566  0.00  0.00    +0.051 C 
ATOM     12  C   UNL     1       3.175  -4.137  -6.884  0.00  0.00    -0.021 C 
ATOM     13  C   UNL     1       2.112  -5.161  -6.450  0.00  0.00    +0.045 C 
ATOM     14  C   UNL     1       2.552  -6.523  -6.943  0.00  0.00    +0.184 C 
ATOM     15  C   UNL     1       2.573  -6.480  -8.498  0.00  0.00    +0.044 C 
ATOM     16  C   UNL     1       3.772  -5.622  -8.867  0.00  0.00    +0.008 C 
ATOM     17  C   UNL     1       3.460  -4.199  -8.382  0.00  0.00    +0.008 C 
ATOM     18  C   UNL     1       2.705  -7.979  -8.787  0.00  0.00    +0.101 C 
ATOM     19  C   UNL     1       2.087  -8.630  -7.552  0.00  0.00    +0.311 C 
ATOM     20  O   UNL     1       1.970  -9.818  -7.369  0.00  0.00    -0.251 OA
ATOM     21  O   UNL     1       1.688  -7.652  -6.690  0.00  0.00    -0.461 OA
ATOM     22  C   UNL     1       1.923  -8.360 -10.046  0.00  0.00    +0.019 C 
ATOM     23  C   UNL     1       4.469  -4.385  -6.108  0.00  0.00    +0.012 C 
ATOM     24  H   UNL     1       0.379  -2.452  -0.875  0.00  0.00    +0.157 HD
ENDROOT
BRANCH   9  25
ATOM     25  C   UNL     1       0.002  -0.004   0.002  0.00  0.00    +0.267 C 
BRANCH  25  26
ATOM     26  S   UNL     1      -0.022   1.810   0.012  0.00  0.00    +0.005 S 
ATOM     27  O   UNL     1       1.305   2.317   0.002  0.00  0.00    -0.169 OA
ATOM     28  O   UNL     1      -0.989   2.291  -0.912  0.00  0.00    -0.169 OA
BRANCH  26  29
ATOM     29  C   UNL     1      -0.659   2.245   1.596  0.00  0.00    +0.089 A 
ATOM     30  C   UNL     1      -2.020   2.409   1.774  0.00  0.00    +0.027 A 
ATOM     31  C   UNL     1      -2.519   2.746   3.018  0.00  0.00    +0.002 A 
ATOM     32  C   UNL     1      -1.657   2.929   4.082  0.00  0.00    +0.000 A 
ATOM     33  C   UNL     1      -0.295   2.770   3.904  0.00  0.00    +0.002 A 
ATOM     34  C   UNL     1       0.204   2.429   2.661  0.00  0.00    +0.027 A 
ENDBRANCH  26  29
ENDBRANCH  25  26
ENDBRANCH   9  25
TORSDOF 3
