REMARK  Name = ZINC22059654
REMARK  6 active torsions:
REMARK  status: ('A' for Active; 'I' for Inactive)
REMARK    1  A    between atoms: C_1  and  C_2
REMARK    2  A    between atoms: C_2  and  C_3
REMARK    3  A    between atoms: C_3  and  C_18
REMARK    4  A    between atoms: N_6  and  C_10
REMARK    5  A    between atoms: C_10  and  C_11
REMARK    6  A    between atoms: C_16  and  C_17
REMARK                            x       y       z     vdW  Elec       q    Type
REMARK                         _______ _______ _______ _____ _____    ______ ____
ROOT
ATOM      1  C   UNL     1       4.770   2.766   3.476  0.00  0.00    +0.138 C 
ATOM      2  C   UNL     1       4.707   1.918   2.221  0.00  0.00    +0.251 C 
ATOM      3  O   UNL     1       5.206   0.826   2.050  0.00  0.00    -0.272 OA
ATOM      4  N   UNL     1       3.983   2.631   1.336  0.00  0.00    -0.220 N 
ATOM      5  C   UNL     1       3.587   3.801   1.850  0.00  0.00    +0.310 C 
ATOM      6  O   UNL     1       2.925   4.617   1.240  0.00  0.00    -0.252 OA
ATOM      7  N   UNL     1       4.002   3.971   3.119  0.00  0.00    -0.281 N 
ATOM      8  H   UNL     1       3.872   4.779   3.854  0.00  0.00    +0.152 HD
ENDROOT
BRANCH   1   9
ATOM      9  C   UNL     1       4.127   2.047   4.635  0.00  0.00    -0.015 A 
ATOM     10  C   UNL     1       4.889   1.232   5.451  0.00  0.00    +0.007 A 
ATOM     11  C   UNL     1       4.301   0.577   6.516  0.00  0.00    +0.020 A 
ATOM     12  C   UNL     1       2.948   0.729   6.760  0.00  0.00    +0.041 A 
ATOM     13  C   UNL     1       2.184   1.540   5.939  0.00  0.00    +0.020 A 
ATOM     14  C   UNL     1       2.775   2.199   4.877  0.00  0.00    +0.007 A 
ATOM     15 CL   UNL     1       2.207  -0.100   8.093  0.00  0.00    -0.084 Cl
ENDBRANCH   1   9
BRANCH   1  17
ATOM     16  C   UNL     1       6.791   4.010   2.695  0.00  0.00    +0.007 C 
ATOM     17  C   UNL     1       6.219   3.130   3.808  0.00  0.00    +0.037 C 
ENDBRANCH   1  17
BRANCH   4  18
ATOM     18  C   UNL     1       3.672   2.182  -0.023  0.00  0.00    +0.153 C 
BRANCH  18  19
ATOM     19  C   UNL     1       2.377   1.411  -0.014  0.00  0.00    -0.027 A 
ATOM     20  C   UNL     1       2.396   0.028  -0.022  0.00  0.00    +0.005 A 
ATOM     21  C   UNL     1       1.209  -0.679  -0.014  0.00  0.00    +0.000 A 
ATOM     22  C   UNL     1       0.002  -0.004   0.002  0.00  0.00    +0.000 A 
ATOM     23  C   UNL     1      -0.017   1.378   0.010  0.00  0.00    +0.003 A 
ATOM     24  C   UNL     1       1.171   2.085   0.002  0.00  0.00    -0.046 A 
ATOM     25  C   UNL     1       1.151   3.592   0.010  0.00  0.00    +0.044 C 
ENDBRANCH  18  19
ENDBRANCH   4  18
TORSDOF 4
