REMARK  Name = ZINC01564494
REMARK  6 active torsions:
REMARK  status: ('A' for Active; 'I' for Inactive)
REMARK    1  A    between atoms: C_1  and  O_2
REMARK    2  A    between atoms: O_2  and  C_3
REMARK    3  A    between atoms: C_8  and  C_15
REMARK    4  A    between atoms: C_12  and  O_13
REMARK    5  A    between atoms: O_13  and  C_14
REMARK    6  A    between atoms: C_15  and  C_16
REMARK                            x       y       z     vdW  Elec       q    Type
REMARK                         _______ _______ _______ _____ _____    ______ ____
ROOT
ATOM      1  C   UNL     1      -2.516   0.952   0.019  0.00  0.00    +0.024 C 
ENDROOT
BRANCH   1   2
ATOM      2  C   UNL     1      -2.943   0.676   1.462  0.00  0.00    -0.036 C 
ATOM      3  C   UNL     1      -4.146  -0.230   1.460  0.00  0.00    -0.054 A 
ATOM      4  C   UNL     1      -4.163  -1.301   0.578  0.00  0.00    +0.051 A 
ATOM      5  C   UNL     1      -5.244  -2.163   0.542  0.00  0.00    +0.166 A 
ATOM      6  C   UNL     1      -6.323  -1.952   1.397  0.00  0.00    +0.167 A 
ATOM      7  C   UNL     1      -6.302  -0.883   2.272  0.00  0.00    +0.053 A 
ATOM      8  C   UNL     1      -5.216  -0.021   2.304  0.00  0.00    -0.044 A 
ATOM      9  C   UNL     1      -5.244   1.133   3.274  0.00  0.00    +0.016 C 
ATOM     10  C   UNL     1      -3.834   1.696   3.456  0.00  0.00    -0.077 C 
ATOM     11  O   UNL     1      -7.253  -2.925   1.175  0.00  0.00    -0.453 OA
ATOM     12  C   UNL     1      -6.557  -3.968   0.466  0.00  0.00    +0.466 C 
ATOM     13  O   UNL     1      -5.499  -3.269  -0.216  0.00  0.00    -0.453 OA
ATOM     14  N   UNL     1      -3.256   1.950   2.123  0.00  0.00    +0.384 N 
ATOM     15  H   UNL     1      -3.931   2.473   1.553  0.00  0.00    -0.085 HD
ATOM     16  H   UNL     1      -2.395   2.501   2.225  0.00  0.00    -0.085 HD
ENDBRANCH   1   2
BRANCH   1  22
ATOM     17  C   UNL     1       2.292   5.271   0.006  0.00  0.00    +0.162 A 
ATOM     18  C   UNL     1       2.342   3.908  -0.000  0.00  0.00    +0.058 A 
ATOM     19  C   UNL     1       1.148   3.168   0.008  0.00  0.00    -0.014 A 
ATOM     20  C   UNL     1       1.163   1.762   0.000  0.00  0.00    +0.009 A 
ATOM     21  C   UNL     1      -0.013   1.076   0.008  0.00  0.00    +0.004 A 
ATOM     22  C   UNL     1      -1.235   1.746   0.017  0.00  0.00    -0.048 A 
ATOM     23  C   UNL     1      -1.288   3.106   0.030  0.00  0.00    +0.012 A 
ATOM     24  C   UNL     1      -0.095   3.849   0.023  0.00  0.00    -0.014 A 
ATOM     25  C   UNL     1      -0.114   5.254   0.029  0.00  0.00    +0.058 A 
ATOM     26  C   UNL     1       1.062   5.946   0.021  0.00  0.00    +0.162 A 
BRANCH  17  28
ATOM     27  C   UNL     1       4.670   5.242  -0.018  0.00  0.00    +0.277 C 
ATOM     28  O   UNL     1       3.449   5.985  -0.002  0.00  0.00    -0.491 OA
ENDBRANCH  17  28
BRANCH  26  29
ATOM     29  O   UNL     1       1.042   7.305   0.028  0.00  0.00    -0.491 OA
ATOM     30  C   UNL     1      -0.241   7.934   0.043  0.00  0.00    +0.277 C 
ENDBRANCH  26  29
ENDBRANCH   1  22
TORSDOF 4
