REMARK  Name = ZINC36572011
REMARK  17 active torsions:
REMARK  status: ('A' for Active; 'I' for Inactive)
REMARK    1  A    between atoms: C_1  and  C_2
REMARK    2  A    between atoms: C_2  and  C_3
REMARK    3  A    between atoms: C_3  and  N_4
REMARK    4  A    between atoms: N_4  and  C_5
REMARK    5  A    between atoms: C_5  and  C_7
REMARK    6  A    between atoms: C_5  and  C_21
REMARK    7  A    between atoms: N_23  and  C_24
REMARK    8  A    between atoms: C_24  and  C_25
REMARK    9  A    between atoms: C_24  and  C_26
REMARK   10  A    between atoms: C_24  and  C_27
REMARK   11  A    between atoms: C_27  and  C_28
REMARK   12  A    between atoms: C_28  and  C_29
REMARK   13  A    between atoms: C_28  and  C_30
REMARK   14  A    between atoms: C_28  and  C_31
REMARK   15  A    between atoms: C_32  and  C_34
REMARK   16  A    between atoms: C_34  and  C_35
REMARK   17  A    between atoms: C_35  and  S_36
REMARK                            x       y       z     vdW  Elec       q    Type
REMARK                         _______ _______ _______ _____ _____    ______ ____
ROOT
ATOM      1  C   UNL     1       2.970  -3.231   0.373  0.00  0.00    +0.193 C 
ENDROOT
BRANCH   1   2
ATOM      2  C   UNL     1       4.438  -3.432   0.648  0.00  0.00    -0.010 A 
ATOM      3  C   UNL     1       5.345  -2.977  -0.241  0.00  0.00    +0.015 A 
ATOM      4  C   UNL     1       6.733  -3.141  -0.028  0.00  0.00    -0.017 A 
ATOM      5  C   UNL     1       7.667  -2.665  -0.958  0.00  0.00    +0.008 A 
ATOM      6  C   UNL     1       9.001  -2.836  -0.727  0.00  0.00    +0.001 A 
ATOM      7  C   UNL     1       9.450  -3.479   0.421  0.00  0.00    +0.001 A 
ATOM      8  C   UNL     1       8.565  -3.954   1.347  0.00  0.00    +0.009 A 
ATOM      9  C   UNL     1       7.193  -3.793   1.138  0.00  0.00    -0.010 A 
ATOM     10  C   UNL     1       6.208  -4.287   2.104  0.00  0.00    -0.010 A 
ATOM     11  C   UNL     1       4.835  -4.087   1.837  0.00  0.00    -0.012 A 
ATOM     12  C   UNL     1       3.885  -4.551   2.758  0.00  0.00    +0.009 A 
ATOM     13  C   UNL     1       4.296  -5.180   3.896  0.00  0.00    +0.001 A 
ATOM     14  C   UNL     1       5.648  -5.370   4.158  0.00  0.00    +0.001 A 
ATOM     15  C   UNL     1       6.598  -4.940   3.276  0.00  0.00    +0.009 A 
ENDBRANCH   1   2
BRANCH   1  16
ATOM     16  C   UNL     1       2.732  -3.243  -1.115  0.00  0.00    +0.239 C 
ATOM     17  O   UNL     1       2.715  -2.201  -1.736  0.00  0.00    -0.273 OA
ATOM     18  N   UNL     1       2.539  -4.413  -1.757  0.00  0.00    -0.308 N 
ATOM     19  H   UNL     1       2.482  -5.239  -1.252  0.00  0.00    +0.149 HD
BRANCH  18  20
ATOM     20  C   UNL     1       2.416  -4.436  -3.217  0.00  0.00    +0.030 C 
ATOM     21  C   UNL     1       1.024  -3.944  -3.619  0.00  0.00    +0.031 C 
ATOM     22  C   UNL     1       3.477  -3.522  -3.833  0.00  0.00    +0.031 C 
BRANCH  20  23
ATOM     23  C   UNL     1       2.617  -5.865  -3.723  0.00  0.00    +0.031 C 
BRANCH  23  24
ATOM     24  C   UNL     1       3.766  -6.521  -2.955  0.00  0.00    -0.036 C 
ATOM     25  C   UNL     1       3.236  -7.101  -1.642  0.00  0.00    +0.010 C 
ATOM     26  C   UNL     1       4.370  -7.644  -3.801  0.00  0.00    +0.010 C 
ATOM     27  C   UNL     1       4.841  -5.475  -2.654  0.00  0.00    +0.010 C 
ENDBRANCH  23  24
ENDBRANCH  20  23
ENDBRANCH  18  20
ENDBRANCH   1  16
BRANCH   1  28
ATOM     28  N   UNL     1       2.541  -1.943   0.925  0.00  0.00    -0.286 N 
ATOM     29  C   UNL     1       1.242  -1.588   0.874  0.00  0.00    +0.217 C 
ATOM     30  O   UNL     1       0.887  -0.522   1.331  0.00  0.00    -0.276 OA
BRANCH  28  31
ATOM     31  C   UNL     1       3.524  -1.042   1.532  0.00  0.00    +0.108 C 
BRANCH  31  33
ATOM     32  C   UNL     1       4.932   0.986   1.152  0.00  0.00    +0.005 C 
ATOM     33  C   UNL     1       4.001  -0.031   0.488  0.00  0.00    +0.016 C 
ENDBRANCH  31  33
ENDBRANCH  28  31
BRANCH  29  34
ATOM     34  C   UNL     1       0.231  -2.514   0.250  0.00  0.00    +0.106 C 
BRANCH  34  35
ATOM     35  C   UNL     1      -1.158  -1.876   0.321  0.00  0.00    +0.075 C 
BRANCH  35  36
ATOM     36  S   UNL     1      -2.375  -2.992  -0.430  0.00  0.00    -0.178 S 
ATOM     37  H   UNL     1      -3.540  -2.331  -0.309  0.00  0.00    +0.102 HD
ENDBRANCH  35  36
ENDBRANCH  34  35
ENDBRANCH  29  34
ENDBRANCH   1  28
TORSDOF 11
