REMARK  Name = ZINC03414095
REMARK  6 active torsions:
REMARK  status: ('A' for Active; 'I' for Inactive)
REMARK    1  A    between atoms: C_1  and  N_2
REMARK    2  A    between atoms: N_2  and  C_3
REMARK    3  A    between atoms: N_2  and  S_22
REMARK    4  A    between atoms: C_3  and  C_4
REMARK    5  A    between atoms: C_9  and  C_12
REMARK    6  A    between atoms: S_22  and  C_25
REMARK                            x       y       z     vdW  Elec       q    Type
REMARK                         _______ _______ _______ _____ _____    ______ ____
ROOT
ATOM      1  C   UNL     1      -2.799   8.740   0.069  0.00  0.00    +0.234 C 
ATOM      2  O   UNL     1      -3.956   8.375   0.077  0.00  0.00    -0.274 OA
ATOM      3  N   UNL     1      -1.805   7.829   0.055  0.00  0.00    -0.264 N 
ATOM      4  C   UNL     1      -2.106   6.473   0.052  0.00  0.00    +0.165 A 
ATOM      5  N   UNL     1      -1.282   5.445   0.045  0.00  0.00    -0.225 NA
ATOM      6  C   UNL     1      -1.737   4.200   0.038  0.00  0.00    +0.082 A 
ATOM      7  C   UNL     1      -3.091   4.011   0.050  0.00  0.00    +0.077 A 
ATOM      8  S   UNL     1      -3.663   5.704   0.063  0.00  0.00    -0.060 S 
ATOM      9  H   UNL     1      -0.880   8.121   0.049  0.00  0.00    +0.157 HD
ENDROOT
BRANCH   6  10
ATOM     10  C   UNL     1      -0.805   3.046   0.025  0.00  0.00    +0.026 A 
ATOM     11  C   UNL     1      -1.143   1.734   0.016  0.00  0.00    +0.093 A 
ATOM     12  N   UNL     1      -0.011   0.966   0.007  0.00  0.00    -0.360 N 
ATOM     13  H   UNL     1       0.002  -0.004   0.002  0.00  0.00    +0.165 HD
ATOM     14  C   UNL     1       1.107   1.770   0.001  0.00  0.00    +0.047 A 
ATOM     15  C   UNL     1       0.665   3.105   0.011  0.00  0.00    +0.009 A 
ATOM     16  C   UNL     1       1.591   4.146   0.008  0.00  0.00    +0.010 A 
ATOM     17  C   UNL     1       2.929   3.865  -0.006  0.00  0.00    +0.001 A 
ATOM     18  C   UNL     1       3.372   2.550  -0.016  0.00  0.00    +0.002 A 
ATOM     19  C   UNL     1       2.473   1.506  -0.013  0.00  0.00    +0.026 A 
ENDBRANCH   6  10
BRANCH   1  20
ATOM     20  C   UNL     1      -2.473  10.211   0.072  0.00  0.00    +0.205 C 
BRANCH  20  22
ATOM     21  C   UNL     1      -4.384  11.275   1.358  0.00  0.00    +0.132 C 
ATOM     22  N   UNL     1      -3.715  10.987   0.087  0.00  0.00    -0.171 NA
BRANCH  22  23
ATOM     23  S   UNL     1      -4.364  11.538  -1.333  0.00  0.00    +0.061 S 
ATOM     24  O   UNL     1      -5.170  12.661  -1.003  0.00  0.00    -0.153 OA
ATOM     25  O   UNL     1      -3.294  11.616  -2.265  0.00  0.00    -0.153 OA
BRANCH  23  26
ATOM     26  C   UNL     1      -5.457  10.290  -1.926  0.00  0.00    +0.106 A 
ATOM     27  C   UNL     1      -4.986   9.301  -2.769  0.00  0.00    +0.030 A 
ATOM     28  C   UNL     1      -5.841   8.319  -3.229  0.00  0.00    +0.022 A 
ATOM     29  C   UNL     1      -7.173   8.331  -2.855  0.00  0.00    +0.041 A 
ATOM     30  C   UNL     1      -7.646   9.323  -2.015  0.00  0.00    +0.022 A 
ATOM     31  C   UNL     1      -6.788  10.302  -1.551  0.00  0.00    +0.030 A 
ATOM     32 CL   UNL     1      -8.251   7.100  -3.438  0.00  0.00    -0.084 Cl
ENDBRANCH  23  26
ENDBRANCH  22  23
ENDBRANCH  20  22
ENDBRANCH   1  20
TORSDOF 5
