REMARK  Name = ZINC09087603
REMARK  1 active torsions:
REMARK  status: ('A' for Active; 'I' for Inactive)
REMARK    1  A    between atoms: C_10  and  N_11
REMARK                            x       y       z     vdW  Elec       q    Type
REMARK                         _______ _______ _______ _____ _____    ______ ____
ROOT
ATOM      1  N   UNL     1      -2.516   3.782   0.047  0.00  0.00    -0.209 N 
ATOM      2  C   UNL     1      -3.177   4.137   1.198  0.00  0.00    +0.228 C 
ATOM      3  O   UNL     1      -2.752   4.112   2.334  0.00  0.00    -0.275 OA
ATOM      4  C   UNL     1      -4.484   4.546   0.758  0.00  0.00    +0.074 C 
ATOM      5  C   UNL     1      -5.694   5.260   1.198  0.00  0.00    -0.054 C 
ATOM      6  C   UNL     1      -5.425   6.767   1.414  0.00  0.00    -0.016 C 
ATOM      7  C   UNL     1      -6.729   7.436   0.896  0.00  0.00    -0.020 C 
ATOM      8  C   UNL     1      -7.364   6.413  -0.058  0.00  0.00    -0.076 C 
ATOM      9  C   UNL     1      -5.572   5.241  -1.211  0.00  0.00    +0.053 C 
ATOM     10  C   UNL     1      -4.161   5.219  -0.633  0.00  0.00    +0.089 C 
ATOM     11  C   UNL     1      -3.195   4.152  -1.084  0.00  0.00    +0.229 C 
ATOM     12  O   UNL     1      -3.052   3.715  -2.206  0.00  0.00    -0.275 OA
ATOM     13  C   UNL     1      -5.837   4.074  -2.129  0.00  0.00    -0.026 A 
ATOM     14  C   UNL     1      -5.831   2.709  -1.948  0.00  0.00    +0.019 A 
ATOM     15  C   UNL     1      -6.124   1.867  -3.007  0.00  0.00    +0.018 A 
ATOM     16  C   UNL     1      -6.426   2.402  -4.247  0.00  0.00    +0.017 A 
ATOM     17  C   UNL     1      -6.441   3.769  -4.431  0.00  0.00    +0.024 A 
ATOM     18  C   UNL     1      -6.150   4.622  -3.368  0.00  0.00    +0.036 A 
ATOM     19  N   UNL     1      -6.109   6.016  -3.304  0.00  0.00    -0.286 N 
ATOM     20  C   UNL     1      -5.791   6.456  -2.073  0.00  0.00    +0.212 C 
ATOM     21  O   UNL     1      -5.699   7.614  -1.723  0.00  0.00    -0.277 OA
ATOM     22 BR   UNL     1      -6.111  -0.007  -2.760  0.00  0.00    -0.050 Br
ATOM     23  H   UNL     1      -6.290   6.599  -4.058  0.00  0.00    +0.155 HD
ATOM     24  N   UNL     1      -6.502   5.225  -0.037  0.00  0.00    +0.395 N 
ATOM     25  H   UNL     1      -7.078   4.375  -0.061  0.00  0.00    -0.079 HD
ENDROOT
BRANCH   1  35
ATOM     26  C   UNL     1       2.311   5.261   0.007  0.00  0.00    +0.001 A 
ATOM     27  C   UNL     1       1.094   5.940   0.022  0.00  0.00    +0.001 A 
ATOM     28  C   UNL     1      -0.086   5.261   0.031  0.00  0.00    +0.010 A 
ATOM     29  C   UNL     1      -0.081   3.857   0.024  0.00  0.00    +0.004 A 
ATOM     30  C   UNL     1       1.156   3.167   0.008  0.00  0.00    -0.016 A 
ATOM     31  C   UNL     1       2.355   3.901  -0.000  0.00  0.00    +0.008 A 
ATOM     32  C   UNL     1       1.164   1.762   0.000  0.00  0.00    +0.008 A 
ATOM     33  C   UNL     1      -0.013   1.076   0.008  0.00  0.00    +0.002 A 
ATOM     34  C   UNL     1      -1.234   1.744   0.017  0.00  0.00    +0.024 A 
ATOM     35  C   UNL     1      -1.283   3.120   0.032  0.00  0.00    +0.052 A 
ENDBRANCH   1  35
TORSDOF 1
