REMARK  Name = ZINC39700227
REMARK  13 active torsions:
REMARK  status: ('A' for Active; 'I' for Inactive)
REMARK    1  A    between atoms: C_1  and  C_2
REMARK    2  A    between atoms: C_2  and  C_3
REMARK    3  A    between atoms: C_7  and  C_31
REMARK    4  A    between atoms: C_8  and  N_9
REMARK    5  A    between atoms: N_9  and  C_10
REMARK    6  A    between atoms: C_10  and  N_12
REMARK    7  A    between atoms: N_12  and  C_13
REMARK    8  A    between atoms: C_13  and  C_15
REMARK    9  A    between atoms: C_13  and  C_16
REMARK   10  A    between atoms: C_16  and  C_18
REMARK   11  A    between atoms: C_16  and  N_23
REMARK   12  A    between atoms: N_26  and  C_29
REMARK   13  A    between atoms: C_29  and  C_30
REMARK                            x       y       z     vdW  Elec       q    Type
REMARK                         _______ _______ _______ _____ _____    ______ ____
ROOT
ATOM      1  C   UNL     1      -3.302  -1.411   6.147  0.00  0.00    +0.091 C 
ATOM      2  C   UNL     1      -3.022  -0.373   7.236  0.00  0.00    +0.030 C 
ENDROOT
BRANCH   1   3
ATOM      3  N   UNL     1      -2.879  -0.882   4.848  0.00  0.00    -0.322 N 
ATOM      4  H   UNL     1      -3.523  -0.442   4.271  0.00  0.00    +0.148 HD
BRANCH   3   5
ATOM      5  C   UNL     1      -1.596  -1.006   4.455  0.00  0.00    +0.135 C 
ATOM      6  S   UNL     1      -0.460  -1.782   5.474  0.00  0.00    -0.019 S 
BRANCH   5   7
ATOM      7  N   UNL     1      -1.207  -0.519   3.260  0.00  0.00    -0.296 N 
ATOM      8  H   UNL     1      -1.833  -0.020   2.713  0.00  0.00    +0.154 HD
BRANCH   7  14
ATOM      9  C   UNL     1       1.029   0.297   2.853  0.00  0.00    -0.026 A 
ATOM     10  C   UNL     1       2.320   0.080   2.412  0.00  0.00    +0.005 A 
ATOM     11  C   UNL     1       2.686  -1.160   1.923  0.00  0.00    +0.001 A 
ATOM     12  C   UNL     1       1.762  -2.187   1.873  0.00  0.00    +0.005 A 
ATOM     13  C   UNL     1       0.469  -1.977   2.312  0.00  0.00    -0.029 A 
ATOM     14  C   UNL     1       0.100  -0.734   2.809  0.00  0.00    +0.039 A 
ATOM     15  C   UNL     1      -0.538  -3.097   2.257  0.00  0.00    +0.045 C 
BRANCH   9  17
ATOM     16  C   UNL     1       0.769   1.658   4.909  0.00  0.00    +0.009 C 
ATOM     17  C   UNL     1       0.631   1.650   3.385  0.00  0.00    +0.033 C 
ENDBRANCH   9  17
ENDBRANCH   7  14
ENDBRANCH   5   7
ENDBRANCH   3   5
ENDBRANCH   1   3
BRANCH   1  18
ATOM     18  C   UNL     1      -4.800  -1.719   6.110  0.00  0.00    +0.113 C 
BRANCH  18  19
ATOM     19  N   UNL     1      -5.248  -2.136   7.445  0.00  0.00    -0.297 NA
ATOM     20  C   UNL     1      -4.470  -3.286   7.927  0.00  0.00    +0.066 C 
ATOM     21  C   UNL     1      -4.926  -3.650   9.341  0.00  0.00    -0.063 C 
ATOM     22  N   UNL     1      -6.358  -3.978   9.325  0.00  0.00    +0.381 N 
ATOM     23  C   UNL     1      -7.123  -2.812   8.866  0.00  0.00    -0.063 C 
ATOM     24  C   UNL     1      -6.686  -2.440   7.447  0.00  0.00    +0.066 C 
ATOM     25  H   UNL     1      -6.518  -4.753   8.699  0.00  0.00    -0.082 HD
BRANCH  22  26
ATOM     26  C   UNL     1      -6.791  -4.345  10.680  0.00  0.00    -0.082 C 
ATOM     27  C   UNL     1      -8.249  -4.806  10.642  0.00  0.00    -0.017 C 
ENDBRANCH  22  26
ENDBRANCH  18  19
BRANCH  18  28
ATOM     28  C   UNL     1      -5.556  -0.485   5.689  0.00  0.00    +0.009 A 
ATOM     29  C   UNL     1      -6.062  -0.168   4.472  0.00  0.00    +0.013 A 
ATOM     30  C   UNL     1      -6.728   1.033   4.315  0.00  0.00    +0.008 A 
ATOM     31  C   UNL     1      -6.855   1.859   5.383  0.00  0.00    +0.045 A 
ATOM     32  S   UNL     1      -6.024   0.935   6.665  0.00  0.00    -0.100 S 
ENDBRANCH  18  28
ENDBRANCH   1  18
TORSDOF 9
