REMARK  Name = ZINC09312457
REMARK  17 active torsions:
REMARK  status: ('A' for Active; 'I' for Inactive)
REMARK    1  A    between atoms: C_1  and  C_2
REMARK    2  A    between atoms: C_2  and  C_3
REMARK    3  A    between atoms: C_3  and  C_4
REMARK    4  A    between atoms: C_4  and  O_5
REMARK    5  A    between atoms: O_5  and  C_6
REMARK    6  A    between atoms: C_9  and  C_15
REMARK    7  A    between atoms: C_11  and  O_12
REMARK    8  A    between atoms: O_12  and  C_13
REMARK    9  A    between atoms: C_13  and  C_14
REMARK   10  A    between atoms: C_17  and  C_28
REMARK   11  A    between atoms: N_21  and  C_22
REMARK   12  A    between atoms: C_22  and  C_23
REMARK   13  A    between atoms: C_23  and  C_24
REMARK   14  A    between atoms: C_24  and  O_25
REMARK   15  A    between atoms: O_25  and  C_26
REMARK   16  A    between atoms: C_28  and  C_30
REMARK   17  A    between atoms: C_37  and  C_40
REMARK                            x       y       z     vdW  Elec       q    Type
REMARK                         _______ _______ _______ _____ _____    ______ ____
ROOT
ATOM      1  C   UNL     1       1.137  -1.266   0.010  0.00  0.00    +0.145 C 
ATOM      2  C   UNL     1       2.385  -0.415   0.000  0.00  0.00    +0.076 C 
ATOM      3  C   UNL     1       3.438  -1.264   0.060  0.00  0.00    +0.249 C 
ATOM      4  C   UNL     1       2.938  -2.654   0.118  0.00  0.00    +0.288 C 
ATOM      5  O   UNL     1       3.638  -3.645   0.182  0.00  0.00    -0.266 OA
ATOM      6  N   UNL     1       1.593  -2.659   0.086  0.00  0.00    -0.283 N 
ATOM      7  O   UNL     1       4.740  -0.899   0.068  0.00  0.00    -0.282 OA
ENDROOT
BRANCH   1  11
ATOM      8  C   UNL     1      -1.260  -0.318   3.422  0.00  0.00    +0.162 A 
ATOM      9  C   UNL     1      -0.098  -1.058   3.572  0.00  0.00    +0.050 A 
ATOM     10  C   UNL     1       0.672  -1.367   2.466  0.00  0.00    +0.009 A 
ATOM     11  C   UNL     1       0.291  -0.931   1.211  0.00  0.00    -0.019 A 
ATOM     12  C   UNL     1      -0.868  -0.193   1.054  0.00  0.00    +0.055 A 
ATOM     13  C   UNL     1      -1.647   0.116   2.158  0.00  0.00    +0.162 A 
BRANCH   8  14
ATOM     14  O   UNL     1      -2.022  -0.018   4.508  0.00  0.00    -0.488 OA
BRANCH  14  15
ATOM     15  C   UNL     1      -1.564  -0.497   5.774  0.00  0.00    +0.229 C 
BRANCH  15  16
ATOM     16  C   UNL     1      -2.543  -0.064   6.867  0.00  0.00    +0.041 C 
BRANCH  16  18
ATOM     17  C   UNL     1      -3.031  -0.143   9.316  0.00  0.00    +0.004 C 
ATOM     18  C   UNL     1      -2.052  -0.576   8.223  0.00  0.00    -0.000 C 
ENDBRANCH  16  18
ENDBRANCH  15  16
ENDBRANCH  14  15
ENDBRANCH   8  14
BRANCH  13  19
ATOM     19  O   UNL     1      -2.787   0.841   2.005  0.00  0.00    -0.489 OA
BRANCH  19  20
ATOM     20  C   UNL     1      -3.061   1.352   0.699  0.00  0.00    +0.226 C 
ATOM     21  C   UNL     1      -4.312   2.232   0.747  0.00  0.00    +0.048 C 
ENDBRANCH  19  20
ENDBRANCH  13  19
ENDBRANCH   1  11
BRANCH   2  22
ATOM     22  C   UNL     1       2.446   1.048  -0.068  0.00  0.00    +0.195 C 
ATOM     23  O   UNL     1       2.880   1.684   0.875  0.00  0.00    -0.287 OA
BRANCH  22  24
ATOM     24  C   UNL     1       1.979   1.751  -1.280  0.00  0.00    +0.023 A 
ATOM     25  C   UNL     1       1.549   1.024  -2.394  0.00  0.00    +0.015 A 
ATOM     26  C   UNL     1       1.124   1.679  -3.525  0.00  0.00    +0.046 A 
ATOM     27  C   UNL     1       1.107   3.075  -3.569  0.00  0.00    +0.124 A 
ATOM     28  C   UNL     1       1.530   3.793  -2.454  0.00  0.00    -0.002 A 
ATOM     29  C   UNL     1       1.964   3.149  -1.322  0.00  0.00    +0.019 A 
ATOM     30  C   UNL     1       1.389   5.265  -2.795  0.00  0.00    +0.083 C 
ATOM     31  C   UNL     1       0.476   5.217  -4.043  0.00  0.00    +0.175 C 
ATOM     32  O   UNL     1       0.736   3.908  -4.578  0.00  0.00    -0.488 OA
ATOM     33  C   UNL     1      -0.994   5.357  -3.644  0.00  0.00    +0.052 C 
ENDBRANCH  22  24
ENDBRANCH   2  22
BRANCH   6  34
ATOM     34  C   UNL     1       0.734  -3.846   0.121  0.00  0.00    +0.111 C 
BRANCH  34  35
ATOM     35  C   UNL     1       0.470  -4.327  -1.307  0.00  0.00    +0.047 C 
BRANCH  35  36
ATOM     36  C   UNL     1      -0.426  -5.566  -1.271  0.00  0.00    +0.161 C 
BRANCH  36  37
ATOM     37  O   UNL     1      -0.672  -6.015  -2.605  0.00  0.00    -0.383 OA
ATOM     38  C   UNL     1      -1.504  -7.175  -2.684  0.00  0.00    +0.193 C 
ENDBRANCH  36  37
ENDBRANCH  35  36
ENDBRANCH  34  35
ENDBRANCH   6  34
TORSDOF 13
