REMARK  Name = ZINC53654571
REMARK  12 active torsions:
REMARK  status: ('A' for Active; 'I' for Inactive)
REMARK    1  A    between atoms: C_1  and  C_2
REMARK    2  A    between atoms: C_4  and  C_22
REMARK    3  A    between atoms: N_10  and  C_11
REMARK    4  A    between atoms: C_11  and  C_12
REMARK    5  A    between atoms: C_12  and  C_13
REMARK    6  A    between atoms: C_12  and  C_14
REMARK    7  A    between atoms: C_16  and  C_20
REMARK    8  A    between atoms: C_16  and  C_21
REMARK    9  A    between atoms: C_22  and  C_23
REMARK   10  A    between atoms: N_25  and  C_26
REMARK   11  A    between atoms: C_26  and  C_27
REMARK   12  A    between atoms: C_27  and  C_28
REMARK                            x       y       z     vdW  Elec       q    Type
REMARK                         _______ _______ _______ _____ _____    ______ ____
ROOT
ATOM      1  C   UNL     1       0.464   2.041  -0.056  0.00  0.00    -0.013 C 
ATOM      2  C   UNL     1       0.187   0.536  -0.054  0.00  0.00    -0.067 C 
ATOM      3  C   UNL     1      -1.325   0.275   0.179  0.00  0.00    -0.007 C 
ATOM      4  C   UNL     1      -1.365  -0.469   1.512  0.00  0.00    +0.044 C 
ATOM      5  C   UNL     1       0.017  -1.185   1.505  0.00  0.00    -0.057 C 
ATOM      6  N   UNL     1       0.917  -0.116   1.073  0.00  0.00    +0.384 N 
ATOM      7  C   UNL     1       0.226  -1.780   2.878  0.00  0.00    -0.008 C 
ATOM      8  C   UNL     1      -0.793  -2.919   3.051  0.00  0.00    -0.030 C 
ATOM      9  C   UNL     1      -2.230  -2.420   2.913  0.00  0.00    +0.081 C 
ATOM     10  C   UNL     1      -2.399  -1.546   1.656  0.00  0.00    +0.136 C 
ATOM     11  O   UNL     1      -3.283  -1.706   0.848  0.00  0.00    -0.297 OA
ATOM     12  C   UNL     1      -0.613  -3.543   4.436  0.00  0.00    +0.011 C 
ATOM     13  C   UNL     1      -0.531  -3.988   1.988  0.00  0.00    +0.011 C 
ATOM     14  H   UNL     1       1.071   0.541   1.822  0.00  0.00    -0.081 HD
ENDROOT
BRANCH   6  15
ATOM     15  C   UNL     1       2.193  -0.675   0.605  0.00  0.00    -0.075 C 
BRANCH  15  16
ATOM     16  C   UNL     1       3.036  -1.098   1.809  0.00  0.00    -0.034 C 
ATOM     17  C   UNL     1       4.389  -1.623   1.325  0.00  0.00    +0.005 C 
ATOM     18  C   UNL     1       3.256   0.107   2.727  0.00  0.00    +0.005 C 
ENDBRANCH  15  16
ENDBRANCH   6  15
BRANCH   3  19
ATOM     19  C   UNL     1      -2.090   1.597   0.275  0.00  0.00    +0.098 C 
BRANCH  19  20
ATOM     20  C   UNL     1      -2.102   2.269  -1.074  0.00  0.00    +0.213 C 
ATOM     21  O   UNL     1      -1.553   1.743  -2.019  0.00  0.00    -0.276 OA
ATOM     22  N   UNL     1      -2.723   3.455  -1.230  0.00  0.00    -0.315 N 
ATOM     23  H   UNL     1      -3.162   3.876  -0.474  0.00  0.00    +0.149 HD
BRANCH  22  24
ATOM     24  C   UNL     1      -2.735   4.109  -2.541  0.00  0.00    +0.110 C 
BRANCH  24  25
ATOM     25  C   UNL     1      -3.500   5.430  -2.445  0.00  0.00    +0.073 C 
BRANCH  25  26
ATOM     26  C   UNL     1      -3.512   6.102  -3.794  0.00  0.00    +0.035 A 
ATOM     27  H   UNL     1      -4.488   6.749  -6.685  0.00  0.00    +0.166 HD
ATOM     28  C   UNL     1      -4.391   5.868  -4.787  0.00  0.00    +0.105 A 
ATOM     29  N   UNL     1      -4.042   6.688  -5.826  0.00  0.00    -0.352 N 
ATOM     30  C   UNL     1      -2.962   7.395  -5.431  0.00  0.00    +0.171 A 
ATOM     31  N   UNL     1      -2.654   7.043  -4.213  0.00  0.00    -0.350 N 
ATOM     32  H   UNL     1      -1.918   7.404  -3.694  0.00  0.00    +0.166 HD
ENDBRANCH  25  26
ENDBRANCH  24  25
ENDBRANCH  22  24
ENDBRANCH  19  20
ENDBRANCH   3  19
TORSDOF 7
