REMARK  Name = ZINC09234005
REMARK  7 active torsions:
REMARK  status: ('A' for Active; 'I' for Inactive)
REMARK    1  A    between atoms: C_1  and  C_2
REMARK    2  A    between atoms: C_2  and  C_3
REMARK    3  A    between atoms: C_2  and  C_4
REMARK    4  A    between atoms: N_9  and  C_12
REMARK    5  A    between atoms: C_15  and  C_21
REMARK    6  A    between atoms: C_17  and  N_18
REMARK    7  A    between atoms: N_23  and  C_24
REMARK                            x       y       z     vdW  Elec       q    Type
REMARK                         _______ _______ _______ _____ _____    ______ ____
ROOT
ATOM      1  C   UNL     1      -2.170   9.992  -0.917  0.00  0.00    +0.060 A 
ATOM      2  C   UNL     1      -1.552   9.304   0.124  0.00  0.00    +0.026 A 
ATOM      3  C   UNL     1      -1.539   7.928   0.129  0.00  0.00    +0.015 A 
ATOM      4  C   UNL     1      -2.136   7.221  -0.919  0.00  0.00    +0.039 A 
ATOM      5  C   UNL     1      -2.755   7.915  -1.963  0.00  0.00    +0.047 A 
ATOM      6  C   UNL     1      -2.770   9.291  -1.959  0.00  0.00    +0.148 A 
ENDROOT
BRANCH   1  12
ATOM      7  C   UNL     1      -1.245  15.029   0.639  0.00  0.00    +0.218 C 
ATOM      8  O   UNL     1      -1.956  15.535   1.481  0.00  0.00    -0.275 OA
ATOM      9  N   UNL     1      -1.706  14.006  -0.107  0.00  0.00    -0.298 N 
ATOM     10  C   UNL     1      -3.030  13.419   0.153  0.00  0.00    +0.126 C 
ATOM     11  C   UNL     1      -2.872  11.899   0.277  0.00  0.00    +0.124 C 
ATOM     12  N   UNL     1      -2.187  11.383  -0.915  0.00  0.00    -0.325 N 
ATOM     13  C   UNL     1      -0.826  11.926  -1.025  0.00  0.00    +0.124 C 
ATOM     14  C   UNL     1      -0.899  13.446  -1.202  0.00  0.00    +0.126 C 
BRANCH   7  16
ATOM     15  C   UNL     1       0.238  17.001   0.888  0.00  0.00    +0.017 C 
ATOM     16  C   UNL     1       0.156  15.544   0.427  0.00  0.00    +0.069 C 
ATOM     17  C   UNL     1       1.139  14.697   1.238  0.00  0.00    +0.017 C 
ENDBRANCH   7  16
ENDBRANCH   1  12
BRANCH   4  18
ATOM     18  C   UNL     1      -2.118   5.746  -0.921  0.00  0.00    +0.245 C 
ATOM     19  O   UNL     1      -2.642   5.133  -1.831  0.00  0.00    -0.270 OA
ATOM     20  N   UNL     1      -1.521   5.078   0.086  0.00  0.00    -0.306 N 
ATOM     21  H   UNL     1      -1.103   5.568   0.812  0.00  0.00    +0.150 HD
BRANCH  20  22
ATOM     22  C   UNL     1      -1.504   3.614   0.084  0.00  0.00    +0.036 C 
ATOM     23  C   UNL     1      -0.783   3.114  -1.169  0.00  0.00    +0.029 C 
ATOM     24  C   UNL     1      -0.764   1.584  -1.171  0.00  0.00    -0.008 C 
ATOM     25  C   UNL     1      -0.030   1.081   0.074  0.00  0.00    +0.007 C 
ATOM     26  C   UNL     1      -0.751   1.581   1.327  0.00  0.00    -0.008 C 
ATOM     27  C   UNL     1      -0.769   3.111   1.329  0.00  0.00    +0.029 C 
ATOM     28  C   UNL     1      -2.187   1.054   1.335  0.00  0.00    +0.007 C 
ATOM     29  C   UNL     1      -2.921   1.556   0.090  0.00  0.00    -0.008 C 
ATOM     30  C   UNL     1      -2.200   1.056  -1.164  0.00  0.00    +0.007 C 
ATOM     31  C   UNL     1      -2.940   3.086   0.091  0.00  0.00    +0.029 C 
ENDBRANCH  20  22
ENDBRANCH   4  18
BRANCH   6  32
ATOM     32  N   UNL     1      -3.425  10.027  -3.064  0.00  0.00    +0.058 N 
ATOM     33  O   UNL     1      -3.950   9.415  -3.976  0.00  0.00    -0.126 OA
ATOM     34  O   UNL     1      -3.439  11.245  -3.061  0.00  0.00    -0.126 OA
ENDBRANCH   6  32
TORSDOF 5
