REMARK  Name = ZINC14979715
REMARK  12 active torsions:
REMARK  status: ('A' for Active; 'I' for Inactive)
REMARK    1  A    between atoms: C_1  and  C_2
REMARK    2  A    between atoms: C_2  and  O_3
REMARK    3  A    between atoms: O_3  and  C_4
REMARK    4  A    between atoms: C_8  and  C_11
REMARK    5  A    between atoms: C_9  and  O_10
REMARK    6  A    between atoms: C_11  and  N_68
REMARK    7  A    between atoms: C_14  and  C_17
REMARK    8  A    between atoms: C_17  and  C_19
REMARK    9  A    between atoms: C_17  and  N_27
REMARK   10  A    between atoms: C_19  and  C_20
REMARK   11  A    between atoms: N_27  and  C_28
REMARK   12  A    between atoms: C_29  and  C_31
REMARK                            x       y       z     vdW  Elec       q    Type
REMARK                         _______ _______ _______ _____ _____    ______ ____
ROOT
ATOM      1  C   UNL     1       4.489  -2.069  -1.934  0.00  0.00    -0.078 C 
ATOM      2  C   UNL     1       5.988  -2.109  -2.242  0.00  0.00    -0.013 C 
ATOM      3  C   UNL     1       6.224  -2.951  -3.498  0.00  0.00    +0.006 C 
ATOM      4  C   UNL     1       5.655  -4.356  -3.276  0.00  0.00    -0.013 C 
ATOM      5  C   UNL     1       4.167  -4.251  -2.938  0.00  0.00    -0.078 C 
ATOM      6  N   UNL     1       4.009  -3.449  -1.706  0.00  0.00    +0.382 N 
ATOM      7  H   UNL     1       4.567  -3.876  -0.958  0.00  0.00    -0.081 HD
ENDROOT
BRANCH   6   8
ATOM      8  C   UNL     1       2.590  -3.428  -1.296  0.00  0.00    -0.039 C 
BRANCH   8  13
ATOM      9  C   UNL     1       2.716  -2.701   2.417  0.00  0.00    +0.162 A 
ATOM     10  C   UNL     1       2.265  -1.391   2.453  0.00  0.00    +0.049 A 
ATOM     11  C   UNL     1       1.921  -0.747   1.279  0.00  0.00    +0.004 A 
ATOM     12  C   UNL     1       2.027  -1.406   0.068  0.00  0.00    +0.005 A 
ATOM     13  C   UNL     1       2.477  -2.712   0.026  0.00  0.00    -0.019 A 
ATOM     14  C   UNL     1       2.828  -3.362   1.198  0.00  0.00    +0.160 A 
BRANCH  14  15
ATOM     15  O   UNL     1       3.276  -4.646   1.157  0.00  0.00    -0.503 OA
ATOM     16  H   UNL     1       2.571  -5.308   1.152  0.00  0.00    +0.292 HD
ENDBRANCH  14  15
BRANCH   9  17
ATOM     17  O   UNL     1       3.055  -3.337   3.571  0.00  0.00    -0.489 OA
BRANCH  17  19
ATOM     18  C   UNL     1       3.345  -3.467   5.966  0.00  0.00    +0.048 C 
ATOM     19  C   UNL     1       2.921  -2.594   4.784  0.00  0.00    +0.226 C 
ENDBRANCH  17  19
ENDBRANCH   9  17
ENDBRANCH   8  13
ENDBRANCH   6   8
BRANCH   3  20
ATOM     20  C   UNL     1       7.725  -3.046  -3.778  0.00  0.00    +0.083 C 
BRANCH  20  21
ATOM     21  N   UNL     1       7.941  -3.716  -5.063  0.00  0.00    -0.294 N 
ATOM     22  C   UNL     1       8.768  -4.924  -5.129  0.00  0.00    +0.132 C 
ATOM     23  C   UNL     1       7.380  -3.221  -6.184  0.00  0.00    +0.282 C 
ATOM     24  O   UNL     1       7.478  -3.830  -7.233  0.00  0.00    -0.267 OA
BRANCH  23  25
ATOM     25  C   UNL     1       6.651  -1.949  -6.139  0.00  0.00    +0.189 A 
ATOM     26  C   UNL     1       5.927  -1.403  -7.160  0.00  0.00    +0.054 A 
ATOM     27  C   UNL     1       5.405  -0.192  -6.681  0.00  0.00    +0.042 A 
ATOM     28  C   UNL     1       5.828  -0.053  -5.405  0.00  0.00    +0.196 A 
ATOM     29  O   UNL     1       6.574  -1.117  -5.081  0.00  0.00    -0.458 OA
ENDBRANCH  23  25
ENDBRANCH  20  21
BRANCH  20  30
ATOM     30  C   UNL     1       8.323  -1.639  -3.830  0.00  0.00    +0.059 C 
BRANCH  30  31
ATOM     31  C   UNL     1       9.807  -1.714  -3.576  0.00  0.00    -0.027 A 
ATOM     32  C   UNL     1      10.286  -1.730  -2.279  0.00  0.00    +0.005 A 
ATOM     33  C   UNL     1      11.647  -1.803  -2.046  0.00  0.00    +0.000 A 
ATOM     34  C   UNL     1      12.529  -1.851  -3.109  0.00  0.00    +0.001 A 
ATOM     35  C   UNL     1      12.052  -1.830  -4.406  0.00  0.00    +0.020 A 
ATOM     36  C   UNL     1      10.690  -1.762  -4.640  0.00  0.00    +0.044 A 
ATOM     37 CL   UNL     1      10.089  -1.735  -6.268  0.00  0.00    -0.083 Cl
ENDBRANCH  30  31
ENDBRANCH  20  30
ENDBRANCH   3  20
TORSDOF 10
