REMARK  Name = ZINC12475865
REMARK  9 active torsions:
REMARK  status: ('A' for Active; 'I' for Inactive)
REMARK    1  A    between atoms: C_1  and  C_2
REMARK    2  A    between atoms: C_7  and  N_8
REMARK    3  A    between atoms: N_8  and  C_9
REMARK    4  A    between atoms: C_9  and  C_11
REMARK    5  A    between atoms: C_9  and  C_17
REMARK    6  A    between atoms: C_14  and  C_16
REMARK    7  A    between atoms: N_19  and  C_20
REMARK    8  A    between atoms: C_26  and  C_28
REMARK    9  A    between atoms: C_28  and  C_29
REMARK                            x       y       z     vdW  Elec       q    Type
REMARK                         _______ _______ _______ _____ _____    ______ ____
ROOT
ATOM      1  N   UNL     1      -0.285  -0.069   2.734  0.00  0.00    -0.252 N 
ATOM      2  C   UNL     1      -1.369   0.251   3.467  0.00  0.00    +0.225 C 
ATOM      3  O   UNL     1      -1.272   1.043   4.381  0.00  0.00    -0.275 OA
ENDROOT
BRANCH   1  10
ATOM      4  C   UNL     1      -0.032  -2.840   3.326  0.00  0.00    +0.045 C 
ATOM      5  C   UNL     1      -0.280  -2.344   1.925  0.00  0.00    -0.029 A 
ATOM      6  C   UNL     1      -0.397  -3.244   0.883  0.00  0.00    +0.005 A 
ATOM      7  C   UNL     1      -0.625  -2.789  -0.402  0.00  0.00    +0.000 A 
ATOM      8  C   UNL     1      -0.737  -1.433  -0.650  0.00  0.00    +0.002 A 
ATOM      9  C   UNL     1      -0.621  -0.529   0.387  0.00  0.00    +0.024 A 
ATOM     10  C   UNL     1      -0.397  -0.982   1.681  0.00  0.00    +0.040 A 
ENDBRANCH   1  10
BRANCH   1  11
ATOM     11  C   UNL     1       1.012   0.540   3.041  0.00  0.00    +0.233 C 
BRANCH  11  12
ATOM     12  C   UNL     1       2.045  -0.542   3.225  0.00  0.00    +0.135 A 
ATOM     13  C   UNL     1       2.900  -0.646   4.258  0.00  0.00    +0.047 A 
ATOM     14  C   UNL     1       3.683  -1.800   4.027  0.00  0.00    +0.045 A 
ATOM     15  C   UNL     1       3.259  -2.333   2.866  0.00  0.00    +0.102 A 
ATOM     16  O   UNL     1       2.263  -1.570   2.388  0.00  0.00    -0.462 OA
ATOM     17  C   UNL     1       3.806  -3.577   2.216  0.00  0.00    +0.086 C 
ENDBRANCH  11  12
BRANCH  11  18
ATOM     18  C   UNL     1       1.425   1.441   1.905  0.00  0.00    +0.242 C 
ATOM     19  O   UNL     1       0.666   1.636   0.979  0.00  0.00    -0.273 OA
ATOM     20  N   UNL     1       2.638   2.029   1.918  0.00  0.00    -0.311 N 
ATOM     21  H   UNL     1       3.245   1.872   2.658  0.00  0.00    +0.149 HD
BRANCH  20  22
ATOM     22  C   UNL     1       3.039   2.904   0.814  0.00  0.00    +0.073 C 
ATOM     23  C   UNL     1       3.623   2.059  -0.321  0.00  0.00    +0.022 C 
ATOM     24  C   UNL     1       4.042   2.973  -1.474  0.00  0.00    +0.002 C 
ATOM     25  C   UNL     1       5.098   3.964  -0.981  0.00  0.00    +0.000 C 
ATOM     26  C   UNL     1       4.514   4.809   0.153  0.00  0.00    +0.002 C 
ATOM     27  C   UNL     1       4.095   3.895   1.307  0.00  0.00    +0.022 C 
ENDBRANCH  20  22
ENDBRANCH  11  18
ENDBRANCH   1  11
BRANCH   2  28
ATOM     28  C   UNL     1      -2.703  -0.376   3.152  0.00  0.00    +0.133 C 
BRANCH  28  29
ATOM     29  C   UNL     1      -3.742   0.146   4.111  0.00  0.00    -0.014 A 
ATOM     30  C   UNL     1      -4.135  -0.434   5.256  0.00  0.00    +0.087 A 
ATOM     31  N   UNL     1      -5.096   0.329   5.861  0.00  0.00    -0.360 N 
ATOM     32  H   UNL     1      -5.532   0.114   6.700  0.00  0.00    +0.165 HD
ATOM     33  C   UNL     1      -5.352   1.448   5.100  0.00  0.00    +0.047 A 
ATOM     34  C   UNL     1      -4.511   1.385   3.974  0.00  0.00    +0.003 A 
ATOM     35  C   UNL     1      -4.549   2.402   3.019  0.00  0.00    +0.010 A 
ATOM     36  C   UNL     1      -5.402   3.457   3.184  0.00  0.00    +0.001 A 
ATOM     37  C   UNL     1      -6.231   3.525   4.295  0.00  0.00    +0.002 A 
ATOM     38  C   UNL     1      -6.216   2.528   5.246  0.00  0.00    +0.026 A 
ENDBRANCH  28  29
ENDBRANCH   2  28
TORSDOF 7
