REMARK  Name = ZINC20103687
REMARK  5 active torsions:
REMARK  status: ('A' for Active; 'I' for Inactive)
REMARK    1  A    between atoms: C_10  and  C_12
REMARK    2  A    between atoms: C_12  and  S_13
REMARK    3  A    between atoms: S_13  and  C_14
REMARK    4  A    between atoms: C_16  and  N_21
REMARK    5  A    between atoms: C_18  and  O_20
REMARK                            x       y       z     vdW  Elec       q    Type
REMARK                         _______ _______ _______ _____ _____    ______ ____
ROOT
ATOM      1  C   UNL     1      -3.450  -3.449   3.354  0.00  0.00    +0.001 A 
ATOM      2  C   UNL     1      -2.186  -3.873   2.987  0.00  0.00    +0.004 A 
ATOM      3  C   UNL     1      -1.574  -3.349   1.859  0.00  0.00    +0.047 A 
ATOM      4  C   UNL     1      -2.227  -2.401   1.095  0.00  0.00    +0.142 A 
ATOM      5  C   UNL     1      -3.517  -1.990   1.445  0.00  0.00    +0.081 A 
ATOM      6  C   UNL     1      -4.118  -2.511   2.590  0.00  0.00    +0.017 A 
ATOM      7  C   UNL     1      -4.257  -1.046   0.588  0.00  0.00    +0.267 C 
ATOM      8  N   UNL     1      -3.721  -0.048  -0.030  0.00  0.00    -0.200 N 
ATOM      9  N   UNL     1      -2.384   0.319   0.032  0.00  0.00    -0.145 NA
ATOM     10  C   UNL     1      -1.412  -0.526   0.013  0.00  0.00    +0.222 C 
ATOM     11  O   UNL     1      -1.612  -1.862   0.007  0.00  0.00    -0.439 OA
ATOM     12  O   UNL     1      -5.589  -1.239   0.441  0.00  0.00    -0.268 OA
ATOM     13  H   UNL     1      -4.423   0.533  -0.647  0.00  0.00    +0.178 HD
ENDROOT
BRANCH  10  14
ATOM     14  C   UNL     1       0.002  -0.004   0.002  0.00  0.00    +0.171 C 
BRANCH  14  15
ATOM     15  S   UNL     1      -0.022   1.810   0.012  0.00  0.00    -0.116 S 
BRANCH  15  16
ATOM     16  C   UNL     1       1.681   2.259  -0.002  0.00  0.00    +0.014 A 
ATOM     17  C   UNL     1       2.046   3.599   0.002  0.00  0.00    +0.037 A 
ATOM     18  C   UNL     1       3.388   3.952  -0.009  0.00  0.00    +0.029 A 
ATOM     19  C   UNL     1       4.365   2.965  -0.024  0.00  0.00    +0.068 A 
ATOM     20  C   UNL     1       4.000   1.627  -0.028  0.00  0.00    +0.120 A 
ATOM     21  C   UNL     1       2.660   1.273  -0.011  0.00  0.00    +0.060 A 
BRANCH  18  22
ATOM     22  N   UNL     1       3.757   5.299  -0.005  0.00  0.00    -0.358 N 
ATOM     23  H   UNL     1       4.821   5.579  -0.014  0.00  0.00    +0.142 HD
ATOM     24  H   UNL     1       2.983   6.081   0.007  0.00  0.00    +0.142 HD
ENDBRANCH  18  22
BRANCH  20  25
ATOM     25  O   UNL     1       4.957   0.662  -0.042  0.00  0.00    -0.507 OA
ATOM     26  H   UNL     1       4.668  -0.399  -0.046  0.00  0.00    +0.292 HD
ENDBRANCH  20  25
ENDBRANCH  15  16
ENDBRANCH  14  15
ENDBRANCH  10  14
TORSDOF 5
