REMARK  Name = ZINC09113560
REMARK  1 active torsions:
REMARK  status: ('A' for Active; 'I' for Inactive)
REMARK    1  A    between atoms: C_19  and  C_21
REMARK                            x       y       z     vdW  Elec       q    Type
REMARK                         _______ _______ _______ _____ _____    ______ ____
ROOT
ATOM      1  C   UNL     1      -4.993   4.932  -2.983  0.00  0.00    +0.055 A 
ATOM      2  C   UNL     1      -4.036   5.693  -2.330  0.00  0.00    -0.023 A 
ATOM      3  C   UNL     1      -4.336   6.962  -1.888  0.00  0.00    -0.031 A 
ATOM      4  C   UNL     1      -5.612   7.470  -2.108  0.00  0.00    +0.054 A 
ATOM      5  C   UNL     1      -6.574   6.718  -2.759  0.00  0.00    +0.162 A 
ATOM      6  C   UNL     1      -6.263   5.438  -3.203  0.00  0.00    +0.162 A 
ATOM      7  O   UNL     1      -7.185   4.686  -3.852  0.00  0.00    -0.485 OA
ATOM      8  C   UNL     1      -8.547   5.085  -3.828  0.00  0.00    +0.270 C 
ATOM      9  C   UNL     1      -8.691   6.598  -3.870  0.00  0.00    +0.270 C 
ATOM     10  O   UNL     1      -7.812   7.235  -2.956  0.00  0.00    -0.485 OA
ATOM     11  C   UNL     1      -3.358   7.847  -1.167  0.00  0.00    +0.012 C 
ATOM     12  C   UNL     1      -3.887   8.121   0.258  0.00  0.00    +0.013 C 
ATOM     13  C   UNL     1      -3.529   9.604   0.518  0.00  0.00    +0.001 C 
ATOM     14  C   UNL     1      -3.783  10.263  -0.860  0.00  0.00    +0.001 C 
ATOM     15  C   UNL     1      -3.294   9.213  -1.877  0.00  0.00    +0.013 C 
ATOM     16  C   UNL     1      -1.964   7.258  -1.073  0.00  0.00    +0.119 C 
ATOM     17  N   UNL     1      -2.022   5.795  -1.005  0.00  0.00    -0.296 N 
ATOM     18  C   UNL     1      -2.667   5.091  -2.123  0.00  0.00    +0.143 C 
ATOM     19  C   UNL     1      -1.510   5.123   0.044  0.00  0.00    +0.222 C 
ATOM     20  O   UNL     1      -1.067   5.730   0.996  0.00  0.00    -0.275 OA
ENDROOT
BRANCH  19  21
ATOM     21  C   UNL     1      -1.487   3.616   0.034  0.00  0.00    +0.048 C 
ATOM     22  C   UNL     1      -0.821   3.124  -1.252  0.00  0.00    +0.019 C 
ATOM     23  C   UNL     1      -0.797   1.595  -1.262  0.00  0.00    -0.009 C 
ATOM     24  C   UNL     1      -0.007   1.089  -0.053  0.00  0.00    +0.007 C 
ATOM     25  C   UNL     1      -0.674   1.581   1.234  0.00  0.00    -0.009 C 
ATOM     26  C   UNL     1      -0.697   3.110   1.243  0.00  0.00    +0.019 C 
ATOM     27  C   UNL     1      -2.106   1.048   1.302  0.00  0.00    +0.007 C 
ATOM     28  C   UNL     1      -2.896   1.554   0.093  0.00  0.00    -0.009 C 
ATOM     29  C   UNL     1      -2.230   1.062  -1.194  0.00  0.00    +0.007 C 
ATOM     30  C   UNL     1      -2.920   3.083   0.102  0.00  0.00    +0.019 C 
ENDBRANCH  19  21
TORSDOF 1
