REMARK  Name = ZINC20866764
REMARK  8 active torsions:
REMARK  status: ('A' for Active; 'I' for Inactive)
REMARK    1  A    between atoms: C_4  and  C_7
REMARK    2  A    between atoms: C_7  and  N_8
REMARK    3  A    between atoms: C_9  and  C_26
REMARK    4  A    between atoms: C_12  and  S_13
REMARK    5  A    between atoms: S_13  and  C_14
REMARK    6  A    between atoms: C_14  and  C_15
REMARK    7  A    between atoms: N_17  and  N_18
REMARK    8  A    between atoms: C_19  and  C_21
REMARK                            x       y       z     vdW  Elec       q    Type
REMARK                         _______ _______ _______ _____ _____    ______ ____
ROOT
ATOM      1  N   UNL     1      -9.910   3.725   0.516  0.00  0.00    -0.298 N 
ATOM      2  C   UNL     1     -10.532   4.927   0.270  0.00  0.00    +0.165 A 
ATOM      3  N   UNL     1      -9.625   5.735  -0.229  0.00  0.00    -0.128 NA
ATOM      4  N   UNL     1      -8.494   5.130  -0.306  0.00  0.00    -0.122 NA
ATOM      5  C   UNL     1      -8.611   3.896   0.131  0.00  0.00    +0.193 A 
ENDROOT
BRANCH   2   6
ATOM      6  C   UNL     1     -11.953   5.249   0.521  0.00  0.00    +0.019 A 
ATOM      7  C   UNL     1     -12.933   4.269   0.354  0.00  0.00    +0.013 A 
ATOM      8  C   UNL     1     -14.256   4.574   0.595  0.00  0.00    +0.021 A 
ATOM      9  C   UNL     1     -14.615   5.852   0.990  0.00  0.00    +0.041 A 
ATOM     10  C   UNL     1     -13.648   6.830   1.151  0.00  0.00    +0.021 A 
ATOM     11  C   UNL     1     -12.320   6.535   0.919  0.00  0.00    +0.013 A 
ATOM     12 CL   UNL     1     -16.284   6.230   1.284  0.00  0.00    -0.084 Cl
ENDBRANCH   2   6
BRANCH   1  13
ATOM     13  C   UNL     1     -10.515   2.513   1.075  0.00  0.00    +0.161 C 
BRANCH  13  17
ATOM     14  C   UNL     1     -10.469   2.736   5.341  0.00  0.00    +0.000 A 
ATOM     15  C   UNL     1     -11.550   3.229   4.635  0.00  0.00    +0.000 A 
ATOM     16  C   UNL     1     -11.565   3.157   3.254  0.00  0.00    +0.005 A 
ATOM     17  C   UNL     1     -10.499   2.592   2.580  0.00  0.00    -0.028 A 
ATOM     18  C   UNL     1      -9.420   2.094   3.287  0.00  0.00    +0.005 A 
ATOM     19  C   UNL     1      -9.403   2.171   4.667  0.00  0.00    +0.000 A 
ENDBRANCH  13  17
ENDBRANCH   1  13
BRANCH   5  20
ATOM     20  S   UNL     1      -7.329   2.691   0.213  0.00  0.00    -0.077 S 
BRANCH  20  21
ATOM     21  C   UNL     1      -5.950   3.652  -0.458  0.00  0.00    +0.174 C 
BRANCH  21  22
ATOM     22  C   UNL     1      -4.708   2.799  -0.485  0.00  0.00    +0.239 C 
ATOM     23  O   UNL     1      -4.751   1.653  -0.089  0.00  0.00    -0.273 OA
ATOM     24  N   UNL     1      -3.550   3.308  -0.948  0.00  0.00    -0.233 N 
ATOM     25  H   UNL     1      -3.510   4.347  -1.307  0.00  0.00    +0.173 HD
BRANCH  24  26
ATOM     26  N   UNL     1      -2.395   2.515  -0.973  0.00  0.00    -0.230 N 
ATOM     27  C   UNL     1      -1.237   3.025  -1.436  0.00  0.00    +0.267 C 
ATOM     28  O   UNL     1      -1.194   4.174  -1.833  0.00  0.00    -0.268 OA
ATOM     29  H   UNL     1      -2.434   1.476  -0.614  0.00  0.00    +0.173 HD
BRANCH  27  30
ATOM     30  C   UNL     1      -0.029   2.194  -1.462  0.00  0.00    +0.075 A 
ATOM     31  C   UNL     1       1.246   2.519  -1.899  0.00  0.00    +0.021 A 
ATOM     32  C   UNL     1       2.204   1.540  -1.816  0.00  0.00    +0.008 A 
ATOM     33  C   UNL     1       1.865   0.321  -1.319  0.00  0.00    +0.046 A 
ATOM     34  S   UNL     1       0.182   0.499  -0.947  0.00  0.00    -0.092 S 
ENDBRANCH  27  30
ENDBRANCH  24  26
ENDBRANCH  21  22
ENDBRANCH  20  21
ENDBRANCH   5  20
TORSDOF 8
