REMARK  Name = ZINC13640242
REMARK  7 active torsions:
REMARK  status: ('A' for Active; 'I' for Inactive)
REMARK    1  A    between atoms: C_4  and  C_7
REMARK    2  A    between atoms: C_7  and  C_8
REMARK    3  A    between atoms: C_8  and  O_9
REMARK    4  A    between atoms: O_9  and  C_10
REMARK    5  A    between atoms: C_23  and  C_26
REMARK    6  A    between atoms: C_29  and  O_33
REMARK    7  A    between atoms: C_31  and  O_32
REMARK                            x       y       z     vdW  Elec       q    Type
REMARK                         _______ _______ _______ _____ _____    ______ ____
ROOT
ATOM      1  C   UNL     1      -0.881  -2.144   0.625  0.00  0.00    +0.121 A 
ATOM      2  C   UNL     1       0.118  -2.772  -0.105  0.00  0.00    +0.047 A 
ATOM      3  C   UNL     1       1.061  -2.020  -0.775  0.00  0.00    +0.027 A 
ATOM      4  C   UNL     1       1.019  -0.632  -0.725  0.00  0.00    +0.032 A 
ATOM      5  C   UNL     1       0.002  -0.004   0.002  0.00  0.00    -0.016 A 
ATOM      6  C   UNL     1      -0.934  -0.760   0.674  0.00  0.00    +0.051 A 
ATOM      7  C   UNL     1      -0.018   1.475   0.010  0.00  0.00    +0.049 C 
ATOM      8  C   UNL     1      -0.629   2.245   1.123  0.00  0.00    -0.023 C 
ATOM      9  C   UNL     1       0.026   3.393   1.255  0.00  0.00    -0.030 C 
ATOM     10  C   UNL     1       1.169   3.461   0.240  0.00  0.00    +0.033 C 
ATOM     11  C   UNL     1       1.458   1.973  -0.001  0.00  0.00    +0.029 C 
ATOM     12  C   UNL     1       2.006   1.587  -1.364  0.00  0.00    +0.108 C 
ATOM     13  N   UNL     1       2.011   0.108  -1.386  0.00  0.00    -0.336 N 
ATOM     14  H   UNL     1       2.713  -0.359  -1.865  0.00  0.00    +0.147 HD
ENDROOT
BRANCH  12  15
ATOM     15  C   UNL     1       1.112   2.120  -2.454  0.00  0.00    +0.015 A 
ATOM     16  C   UNL     1       0.082   1.341  -2.945  0.00  0.00    +0.012 A 
ATOM     17  C   UNL     1      -0.742   1.829  -3.941  0.00  0.00    +0.046 A 
ATOM     18  C   UNL     1      -0.529   3.099  -4.459  0.00  0.00    +0.120 A 
ATOM     19  C   UNL     1       0.507   3.880  -3.972  0.00  0.00    +0.091 A 
ATOM     20  C   UNL     1       1.329   3.390  -2.968  0.00  0.00    +0.125 A 
BRANCH  20  21
ATOM     21  O   UNL     1       2.346   4.154  -2.488  0.00  0.00    -0.506 OA
ATOM     22  H   UNL     1       3.182   4.036  -2.959  0.00  0.00    +0.292 HD
ENDBRANCH  20  21
BRANCH  18  23
ATOM     23  O   UNL     1      -1.337   3.577  -5.442  0.00  0.00    -0.507 OA
ATOM     24  H   UNL     1      -1.028   3.376  -6.336  0.00  0.00    +0.292 HD
ENDBRANCH  18  23
ENDBRANCH  12  15
BRANCH   1  25
ATOM     25  O   UNL     1      -1.806  -2.886   1.291  0.00  0.00    -0.492 OA
BRANCH  25  26
ATOM     26  C   UNL     1      -1.690  -4.307   1.195  0.00  0.00    +0.233 C 
BRANCH  26  27
ATOM     27  C   UNL     1      -2.809  -4.966   2.004  0.00  0.00    +0.076 C 
BRANCH  27  31
ATOM     28  C   UNL     1      -2.461  -9.214   1.718  0.00  0.00    +0.000 A 
ATOM     29  C   UNL     1      -1.813  -8.534   2.732  0.00  0.00    +0.000 A 
ATOM     30  C   UNL     1      -1.926  -7.160   2.825  0.00  0.00    +0.004 A 
ATOM     31  C   UNL     1      -2.686  -6.465   1.903  0.00  0.00    -0.044 A 
ATOM     32  C   UNL     1      -3.338  -7.145   0.891  0.00  0.00    +0.004 A 
ATOM     33  C   UNL     1      -3.221  -8.520   0.796  0.00  0.00    +0.000 A 
ENDBRANCH  27  31
ENDBRANCH  26  27
ENDBRANCH  25  26
ENDBRANCH   1  25
TORSDOF 7
