REMARK  Name = ZINC37077028
REMARK  8 active torsions:
REMARK  status: ('A' for Active; 'I' for Inactive)
REMARK    1  A    between atoms: C_1  and  C_2
REMARK    2  A    between atoms: C_5  and  N_12
REMARK    3  A    between atoms: C_8  and  C_10
REMARK    4  A    between atoms: C_8  and  C_11
REMARK    5  A    between atoms: N_12  and  C_13
REMARK    6  A    between atoms: C_16  and  N_19
REMARK    7  A    between atoms: N_19  and  S_20
REMARK    8  A    between atoms: S_20  and  C_23
REMARK                            x       y       z     vdW  Elec       q    Type
REMARK                         _______ _______ _______ _____ _____    ______ ____
ROOT
ATOM      1  C   UNL     1      -3.738  -2.931  -1.037  0.00  0.00    +0.027 A 
ATOM      2  C   UNL     1      -3.061  -2.502  -2.171  0.00  0.00    +0.025 A 
ATOM      3  C   UNL     1      -3.675  -2.562  -3.406  0.00  0.00    +0.026 A 
ATOM      4  C   UNL     1      -4.970  -3.052  -3.515  0.00  0.00    +0.048 A 
ATOM      5  C   UNL     1      -5.647  -3.483  -2.381  0.00  0.00    +0.026 A 
ATOM      6  C   UNL     1      -5.030  -3.427  -1.147  0.00  0.00    +0.025 A 
ENDROOT
BRANCH   1   7
ATOM      7  N   UNL     1      -3.115  -2.870   0.215  0.00  0.00    -0.341 N 
ATOM      8  H   UNL     1      -3.587  -3.174   1.007  0.00  0.00    +0.146 HD
BRANCH   7  12
ATOM      9  C   UNL     1      -0.421   1.250   0.675  0.00  0.00    +0.007 C 
ATOM     10  C   UNL     1      -0.375  -0.275   0.563  0.00  0.00    -0.012 C 
ATOM     11  C   UNL     1      -1.799  -0.822   0.442  0.00  0.00    +0.025 C 
ATOM     12  C   UNL     1      -1.752  -2.347   0.331  0.00  0.00    +0.071 C 
ATOM     13  C   UNL     1      -1.086  -2.930   1.579  0.00  0.00    +0.028 C 
ATOM     14  C   UNL     1       0.338  -2.383   1.699  0.00  0.00    -0.033 C 
ATOM     15  C   UNL     1       0.291  -0.858   1.811  0.00  0.00    +0.009 C 
ATOM     16  C   UNL     1       1.143  -2.779   0.460  0.00  0.00    +0.011 C 
ATOM     17  C   UNL     1       1.004  -2.966   2.947  0.00  0.00    +0.011 C 
ENDBRANCH   7  12
ENDBRANCH   1   7
BRANCH   4  18
ATOM     18  N   UNL     1      -5.593  -3.113  -4.767  0.00  0.00    -0.221 N 
ATOM     19  H   UNL     1      -6.277  -2.466  -5.000  0.00  0.00    +0.173 HD
BRANCH  18  20
ATOM     20  S   UNL     1      -5.160  -4.288  -5.851  0.00  0.00    +0.040 S 
ATOM     21  O   UNL     1      -5.974  -4.047  -6.991  0.00  0.00    -0.155 OA
ATOM     22  O   UNL     1      -3.745  -4.197  -5.939  0.00  0.00    -0.155 OA
ATOM     23  C   UNL     1      -5.638  -5.849  -5.061  0.00  0.00    +0.218 C 
ENDBRANCH  18  20
ENDBRANCH   4  18
TORSDOF 4
