REMARK  Name = ZINC39524204
REMARK  4 active torsions:
REMARK  status: ('A' for Active; 'I' for Inactive)
REMARK    1  A    between atoms: C_4  and  S_7
REMARK    2  A    between atoms: S_7  and  C_10
REMARK    3  A    between atoms: C_20  and  C_24
REMARK    4  A    between atoms: C_29  and  O_30
REMARK                            x       y       z     vdW  Elec       q    Type
REMARK                         _______ _______ _______ _____ _____    ______ ____
ROOT
ATOM      1  C   UNL     1       4.359  -1.068   1.707  0.00  0.00    +0.138 C 
ATOM      2  C   UNL     1       4.360   0.286   2.419  0.00  0.00    +0.027 C 
ATOM      3  C   UNL     1       4.718   0.086   3.893  0.00  0.00    +0.004 C 
ATOM      4  C   UNL     1       6.107  -0.547   4.000  0.00  0.00    +0.024 C 
ATOM      5  C   UNL     1       6.107  -1.901   3.287  0.00  0.00    +0.039 C 
ATOM      6  C   UNL     1       5.748  -1.701   1.813  0.00  0.00    +0.050 C 
ATOM      7  C   UNL     1       7.498  -2.530   3.390  0.00  0.00    +0.024 C 
ATOM      8  C   UNL     1       7.846  -2.749   4.865  0.00  0.00    +0.004 C 
ATOM      9  C   UNL     1       6.776  -3.636   5.508  0.00  0.00    +0.025 C 
ATOM     10  C   UNL     1       5.406  -2.974   5.344  0.00  0.00    +0.107 C 
ATOM     11  N   UNL     1       5.119  -2.786   3.916  0.00  0.00    -0.206 NA
ATOM     12 CL   UNL     1       3.531  -2.197   3.682  0.00  0.00    -0.020 Cl
ENDROOT
BRANCH  10  13
ATOM     13  C   UNL     1       4.347  -3.852   5.958  0.00  0.00    +0.012 A 
ATOM     14  C   UNL     1       3.647  -4.746   5.169  0.00  0.00    +0.009 A 
ATOM     15  C   UNL     1       2.675  -5.551   5.732  0.00  0.00    +0.001 A 
ATOM     16  C   UNL     1       2.400  -5.466   7.084  0.00  0.00    +0.004 A 
ATOM     17  C   UNL     1       3.096  -4.574   7.877  0.00  0.00    +0.046 A 
ATOM     18  C   UNL     1       4.077  -3.768   7.316  0.00  0.00    +0.122 A 
BRANCH  18  19
ATOM     19  O   UNL     1       4.767  -2.894   8.094  0.00  0.00    -0.506 OA
ATOM     20  H   UNL     1       4.360  -2.020   8.161  0.00  0.00    +0.292 HD
ENDBRANCH  18  19
ENDBRANCH  10  13
BRANCH   1  21
ATOM     21  S   UNL     1       3.934  -0.832  -0.041  0.00  0.00    -0.000 S 
ATOM     22  O   UNL     1       3.641  -2.083  -0.647  0.00  0.00    -0.169 OA
ATOM     23  O   UNL     1       4.846   0.072  -0.648  0.00  0.00    -0.169 OA
BRANCH  21  27
ATOM     24  C   UNL     1      -0.017   1.378   0.010  0.00  0.00    +0.000 A 
ATOM     25  C   UNL     1       1.171   2.086   0.002  0.00  0.00    +0.002 A 
ATOM     26  C   UNL     1       2.377   1.411  -0.013  0.00  0.00    +0.027 A 
ATOM     27  C   UNL     1       2.396   0.029  -0.020  0.00  0.00    +0.088 A 
ATOM     28  C   UNL     1       1.208  -0.679  -0.012  0.00  0.00    +0.027 A 
ATOM     29  C   UNL     1       0.002  -0.004   0.002  0.00  0.00    +0.002 A 
ENDBRANCH  21  27
ENDBRANCH   1  21
TORSDOF 4
