REMARK  Name = ZINC23105964
REMARK  7 active torsions:
REMARK  status: ('A' for Active; 'I' for Inactive)
REMARK    1  A    between atoms: C_3  and  C_13
REMARK    2  A    between atoms: C_6  and  C_7
REMARK    3  A    between atoms: C_13  and  C_15
REMARK    4  A    between atoms: C_15  and  S_16
REMARK    5  A    between atoms: S_16  and  C_17
REMARK    6  A    between atoms: C_20  and  C_24
REMARK    7  A    between atoms: C_21  and  N_23
REMARK                            x       y       z     vdW  Elec       q    Type
REMARK                         _______ _______ _______ _____ _____    ______ ____
ROOT
ATOM      1  C   UNL     1       2.475   1.081  -0.016  0.00  0.00    +0.173 C 
ATOM      2  O   UNL     1       2.497  -0.132  -0.024  0.00  0.00    -0.291 OA
ENDROOT
BRANCH   1   5
ATOM      3  C   UNL     1      -1.215   1.751   0.017  0.00  0.00    +0.004 A 
ATOM      4  C   UNL     1      -0.013   1.076   0.008  0.00  0.00    +0.011 A 
ATOM      5  C   UNL     1       1.188   1.793   0.000  0.00  0.00    +0.018 A 
ATOM      6  C   UNL     1       1.158   3.192   0.008  0.00  0.00    +0.011 A 
ATOM      7  C   UNL     1      -0.052   3.852   0.023  0.00  0.00    +0.004 A 
ATOM      8  C   UNL     1      -1.236   3.135   0.031  0.00  0.00    -0.044 A 
BRANCH   8   9
ATOM      9  C   UNL     1      -2.554   3.864   0.047  0.00  0.00    +0.019 C 
ATOM     10  C   UNL     1      -3.338   3.474   1.302  0.00  0.00    +0.008 C 
ATOM     11  C   UNL     1      -4.676   4.214   1.319  0.00  0.00    +0.001 C 
ATOM     12  C   UNL     1      -5.484   3.837   0.075  0.00  0.00    +0.000 C 
ATOM     13  C   UNL     1      -4.700   4.228  -1.179  0.00  0.00    +0.001 C 
ATOM     14  C   UNL     1      -3.361   3.487  -1.196  0.00  0.00    +0.008 C 
ENDBRANCH   8   9
ENDBRANCH   1   5
BRANCH   1  15
ATOM     15  C   UNL     1       3.767   1.858  -0.025  0.00  0.00    +0.157 C 
BRANCH  15  16
ATOM     16  S   UNL     1       5.163   0.707  -0.045  0.00  0.00    -0.078 S 
BRANCH  16  17
ATOM     17  C   UNL     1       6.503   1.851  -0.051  0.00  0.00    +0.190 A 
ATOM     18  N   UNL     1       6.238   3.152  -0.041  0.00  0.00    -0.229 NA
ATOM     19  C   UNL     1       7.209   4.047  -0.045  0.00  0.00    +0.136 A 
ATOM     20  C   UNL     1       8.537   3.608  -0.061  0.00  0.00    +0.109 A 
ATOM     21  C   UNL     1       8.780   2.217  -0.071  0.00  0.00    +0.138 A 
ATOM     22  N   UNL     1       7.744   1.387  -0.061  0.00  0.00    -0.206 NA
BRANCH  21  23
ATOM     23  N   UNL     1      10.071   1.730  -0.087  0.00  0.00    -0.342 N 
ATOM     24  H   UNL     1      10.249   0.644  -0.095  0.00  0.00    +0.144 HD
ATOM     25  H   UNL     1      10.922   2.426  -0.092  0.00  0.00    +0.144 HD
ENDBRANCH  21  23
BRANCH  20  26
ATOM     26  C   UNL     1       9.621   4.544  -0.066  0.00  0.00    +0.104 C 
ATOM     27  N   UNL     1      10.481   5.287  -0.070  0.00  0.00    -0.191 NA
ENDBRANCH  20  26
ENDBRANCH  16  17
ENDBRANCH  15  16
ENDBRANCH   1  15
TORSDOF 7
