REMARK  Name = ZINC43304605
REMARK  6 active torsions:
REMARK  status: ('A' for Active; 'I' for Inactive)
REMARK    1  A    between atoms: C_1  and  C_2
REMARK    2  A    between atoms: C_2  and  C_3
REMARK    3  A    between atoms: C_10  and  C_12
REMARK    4  A    between atoms: C_12  and  C_14
REMARK    5  A    between atoms: C_12  and  N_15
REMARK    6  A    between atoms: C_19  and  C_22
REMARK                            x       y       z     vdW  Elec       q    Type
REMARK                         _______ _______ _______ _____ _____    ______ ____
ROOT
ATOM      1  C   UNL     1       0.690  -0.381  -1.411  0.00  0.00    +0.076 C 
ATOM      2  C   UNL     1       0.522  -1.830  -1.879  0.00  0.00    +0.022 C 
ATOM      3  C   UNL     1       1.275  -2.027  -3.196  0.00  0.00    +0.003 C 
ATOM      4  C   UNL     1       2.766  -1.760  -2.978  0.00  0.00    +0.019 C 
ATOM      5  C   UNL     1       2.960  -0.310  -2.523  0.00  0.00    +0.108 C 
ATOM      6  N   UNL     1       2.123  -0.068  -1.339  0.00  0.00    -0.300 N 
ATOM      7  C   UNL     1       2.661   0.429  -0.207  0.00  0.00    +0.202 C 
ATOM      8  O   UNL     1       1.986   0.520   0.796  0.00  0.00    -0.277 OA
ENDROOT
BRANCH   1  10
ATOM      9  C   UNL     1      -1.435  -0.538  -0.107  0.00  0.00    +0.006 C 
ATOM     10  C   UNL     1       0.057  -0.212  -0.028  0.00  0.00    +0.019 C 
ENDBRANCH   1  10
BRANCH   7  11
ATOM     11  C   UNL     1       4.102   0.870  -0.189  0.00  0.00    +0.016 C 
ATOM     12  C   UNL     1       5.000  -0.332   0.110  0.00  0.00    -0.004 C 
BRANCH  11  13
ATOM     13  N   UNL     1       4.288   1.890   0.852  0.00  0.00    +0.387 N 
ATOM     14  C   UNL     1       3.352   2.997   0.623  0.00  0.00    -0.078 C 
ATOM     15  C   UNL     1       3.485   4.024   1.750  0.00  0.00    -0.018 C 
ATOM     16  C   UNL     1       4.918   4.563   1.774  0.00  0.00    -0.001 C 
ATOM     17  C   UNL     1       5.891   3.392   1.939  0.00  0.00    -0.031 C 
ATOM     18  C   UNL     1       5.668   2.388   0.806  0.00  0.00    -0.075 C 
ATOM     19  C   UNL     1       7.329   3.911   1.888  0.00  0.00    +0.005 C 
ATOM     20  H   UNL     1       4.109   1.482   1.757  0.00  0.00    -0.081 HD
ENDBRANCH  11  13
ENDBRANCH   7  11
TORSDOF 3
