REMARK  Name = ZINC18581146
REMARK  15 active torsions:
REMARK  status: ('A' for Active; 'I' for Inactive)
REMARK    1  A    between atoms: C_1  and  C_2
REMARK    2  A    between atoms: C_5  and  O_32
REMARK    3  A    between atoms: C_6  and  N_8
REMARK    4  A    between atoms: C_9  and  C_11
REMARK    5  A    between atoms: C_11  and  C_13
REMARK    6  A    between atoms: C_11  and  S_14
REMARK    7  A    between atoms: S_14  and  C_15
REMARK    8  A    between atoms: C_18  and  C_21
REMARK    9  A    between atoms: N_19  and  N_20
REMARK   10  A    between atoms: C_21  and  O_22
REMARK   11  A    between atoms: O_22  and  C_23
REMARK   12  A    between atoms: C_26  and  C_29
REMARK   13  A    between atoms: C_29  and  C_30
REMARK   14  A    between atoms: C_29  and  C_31
REMARK   15  A    between atoms: O_32  and  C_33
REMARK                            x       y       z     vdW  Elec       q    Type
REMARK                         _______ _______ _______ _____ _____    ______ ____
ROOT
ATOM      1  C   UNL     1       7.457   1.325  -1.131  0.00  0.00    +0.209 A 
ATOM      2  N   UNL     1       7.455   0.051  -0.813  0.00  0.00    -0.121 NA
ATOM      3  N   UNL     1       8.602  -0.466  -1.075  0.00  0.00    -0.128 NA
ATOM      4  C   UNL     1       9.397   0.438  -1.572  0.00  0.00    +0.189 A 
ATOM      5  N   UNL     1       8.695   1.610  -1.631  0.00  0.00    -0.225 N 
ENDROOT
BRANCH   5   6
ATOM      6  N   UNL     1       9.140   2.816  -2.092  0.00  0.00    -0.295 N 
ATOM      7  H   UNL     1       9.557   3.356  -1.349  0.00  0.00    +0.163 HD
ATOM      8  H   UNL     1       9.786   2.695  -2.858  0.00  0.00    +0.163 HD
ENDBRANCH   5   6
BRANCH   1   9
ATOM      9  S   UNL     1       6.113   2.451  -0.954  0.00  0.00    -0.072 S 
BRANCH   9  10
ATOM     10  C   UNL     1       4.866   1.344  -0.251  0.00  0.00    +0.137 C 
ATOM     11  C   UNL     1       5.324   0.872   1.131  0.00  0.00    +0.029 C 
BRANCH  10  13
ATOM     12  N   UNL     1       2.404   1.390  -0.013  0.00  0.00    -0.282 N 
ATOM     13  C   UNL     1       3.557   2.079  -0.121  0.00  0.00    +0.230 C 
ATOM     14  O   UNL     1       3.541   3.292  -0.116  0.00  0.00    -0.274 OA
ATOM     15  H   UNL     1       2.422   0.422   0.048  0.00  0.00    +0.155 HD
BRANCH  12  21
ATOM     16  C   UNL     1      -0.219   5.332   1.313  0.00  0.00    +0.044 C 
ATOM     17  C   UNL     1      -0.121   3.983   0.649  0.00  0.00    -0.048 A 
ATOM     18  C   UNL     1      -1.240   3.418   0.066  0.00  0.00    +0.007 A 
ATOM     19  C   UNL     1      -1.155   2.183  -0.549  0.00  0.00    +0.048 A 
ATOM     20  C   UNL     1       0.052   1.502  -0.574  0.00  0.00    +0.141 A 
ATOM     21  C   UNL     1       1.180   2.071   0.013  0.00  0.00    +0.076 A 
ATOM     22  C   UNL     1       1.088   3.313   0.624  0.00  0.00    +0.030 A 
BRANCH  20  23
ATOM     23  O   UNL     1       0.136   0.285  -1.175  0.00  0.00    -0.493 OA
ATOM     24  C   UNL     1      -1.061  -0.235  -1.756  0.00  0.00    +0.277 C 
ENDBRANCH  20  23
ENDBRANCH  12  21
ENDBRANCH  10  13
ENDBRANCH   9  10
ENDBRANCH   1   9
BRANCH   4  25
ATOM     25  C   UNL     1      10.825   0.230  -2.008  0.00  0.00    +0.306 C 
BRANCH  25  26
ATOM     26  O   UNL     1      10.852  -0.147  -3.386  0.00  0.00    -0.484 OA
BRANCH  26  27
ATOM     27  C   UNL     1      12.073  -0.374  -3.939  0.00  0.00    +0.121 A 
ATOM     28  C   UNL     1      13.220  -0.232  -3.173  0.00  0.00    +0.046 A 
ATOM     29  C   UNL     1      14.459  -0.470  -3.736  0.00  0.00    +0.007 A 
ATOM     30  C   UNL     1      14.557  -0.837  -5.066  0.00  0.00    -0.045 A 
ATOM     31  C   UNL     1      13.415  -0.973  -5.833  0.00  0.00    +0.007 A 
ATOM     32  C   UNL     1      12.173  -0.743  -5.273  0.00  0.00    +0.046 A 
BRANCH  30  33
ATOM     33  C   UNL     1      15.910  -1.089  -5.679  0.00  0.00    +0.013 C 
ATOM     34  C   UNL     1      16.758   0.181  -5.582  0.00  0.00    +0.012 C 
ATOM     35  C   UNL     1      16.606  -2.226  -4.929  0.00  0.00    +0.012 C 
ENDBRANCH  30  33
ENDBRANCH  26  27
ENDBRANCH  25  26
ENDBRANCH   4  25
TORSDOF 10
