REMARK  Name = ZINC05354738
REMARK  11 active torsions:
REMARK  status: ('A' for Active; 'I' for Inactive)
REMARK    1  A    between atoms: C_1  and  C_2
REMARK    2  A    between atoms: C_2  and  C_4
REMARK    3  A    between atoms: C_2  and  N_59
REMARK    4  A    between atoms: C_15  and  C_16
REMARK    5  A    between atoms: C_15  and  N_59
REMARK    6  A    between atoms: C_16  and  C_17
REMARK    7  A    between atoms: C_17  and  C_18
REMARK    8  A    between atoms: C_18  and  N_62
REMARK    9  A    between atoms: C_19  and  C_21
REMARK   10  A    between atoms: C_19  and  C_22
REMARK   11  A    between atoms: C_19  and  N_62
REMARK                            x       y       z     vdW  Elec       q    Type
REMARK                         _______ _______ _______ _____ _____    ______ ____
ROOT
ATOM      1  C   UNL     1      -0.898   5.106   2.590  0.00  0.00    -0.021 C 
ENDROOT
BRANCH   1   2
ATOM      2  C   UNL     1      -0.884   3.576   2.628  0.00  0.00    -0.082 C 
BRANCH   2   3
ATOM      3  N   UNL     1      -0.757   3.060   1.252  0.00  0.00    +0.383 N 
ATOM      4  H   UNL     1      -1.553   3.388   0.692  0.00  0.00    -0.085 HD
ATOM      5  H   UNL     1       0.117   3.407   0.840  0.00  0.00    -0.085 HD
BRANCH   3   7
ATOM      6  C   UNL     1      -2.177   1.058   1.256  0.00  0.00    -0.010 C 
ATOM      7  C   UNL     1      -0.741   1.585   1.258  0.00  0.00    -0.030 C 
BRANCH   7   8
ATOM      8  C   UNL     1      -0.013   1.086   0.008  0.00  0.00    +0.197 C 
ATOM      9  C   UNL     1       1.425   1.623  -0.003  0.00  0.00    +0.272 C 
ATOM     10  O   UNL     1       2.072   1.148  -1.189  0.00  0.00    -0.485 OA
ATOM     11  C   UNL     1       1.373   1.258  -2.352  0.00  0.00    +0.162 A 
ATOM     12  C   UNL     1       2.046   1.163  -3.561  0.00  0.00    +0.049 A 
ATOM     13  C   UNL     1       1.351   1.271  -4.751  0.00  0.00    +0.004 A 
ATOM     14  C   UNL     1      -0.017   1.471  -4.739  0.00  0.00    +0.004 A 
ATOM     15  C   UNL     1      -0.693   1.567  -3.537  0.00  0.00    +0.049 A 
ATOM     16  C   UNL     1      -0.001   1.463  -2.340  0.00  0.00    +0.162 A 
ATOM     17  O   UNL     1      -0.679   1.566  -1.164  0.00  0.00    -0.483 OA
ENDBRANCH   7   8
ENDBRANCH   3   7
ENDBRANCH   2   3
ENDBRANCH   1   2
BRANCH   1  18
ATOM     18  C   UNL     1      -1.030   5.650   4.014  0.00  0.00    -0.021 C 
BRANCH  18  19
ATOM     19  C   UNL     1      -1.044   7.179   3.976  0.00  0.00    -0.082 C 
BRANCH  19  20
ATOM     20  N   UNL     1      -1.171   7.696   5.352  0.00  0.00    +0.383 N 
ATOM     21  H   UNL     1      -0.375   7.368   5.912  0.00  0.00    -0.085 HD
ATOM     22  H   UNL     1      -2.045   7.349   5.765  0.00  0.00    -0.085 HD
BRANCH  20  23
ATOM     23  C   UNL     1      -1.187   9.171   5.346  0.00  0.00    -0.030 C 
ATOM     24  C   UNL     1      -2.614   9.665   5.096  0.00  0.00    -0.010 C 
BRANCH  23  25
ATOM     25  C   UNL     1      -0.701   9.683   6.703  0.00  0.00    +0.197 C 
ATOM     26  C   UNL     1       0.724   9.179   6.967  0.00  0.00    +0.272 C 
ATOM     27  O   UNL     1       1.142   9.665   8.247  0.00  0.00    -0.485 OA
ATOM     28  C   UNL     1       0.254   9.536   9.270  0.00  0.00    +0.162 A 
ATOM     29  C   UNL     1       0.702   9.643  10.578  0.00  0.00    +0.049 A 
ATOM     30  C   UNL     1      -0.189   9.517  11.627  0.00  0.00    +0.004 A 
ATOM     31  C   UNL     1      -1.529   9.284  11.376  0.00  0.00    +0.004 A 
ATOM     32  C   UNL     1      -1.982   9.177  10.075  0.00  0.00    +0.049 A 
ATOM     33  C   UNL     1      -1.093   9.301   9.017  0.00  0.00    +0.162 A 
ATOM     34  O   UNL     1      -1.552   9.186   7.741  0.00  0.00    -0.483 OA
ENDBRANCH  23  25
ENDBRANCH  20  23
ENDBRANCH  19  20
ENDBRANCH  18  19
ENDBRANCH   1  18
TORSDOF 9
