REMARK  Name = ZINC05293245
REMARK  4 active torsions:
REMARK  status: ('A' for Active; 'I' for Inactive)
REMARK    1  A    between atoms: C_4  and  C_7
REMARK    2  A    between atoms: C_10  and  C_13
REMARK    3  A    between atoms: C_13  and  C_15
REMARK    4  A    between atoms: C_15  and  N_16
REMARK                            x       y       z     vdW  Elec       q    Type
REMARK                         _______ _______ _______ _____ _____    ______ ____
ROOT
ATOM      1  C   UNL     1       6.187  -0.985  -0.058  0.00  0.00    +0.181 C 
ATOM      2  O   UNL     1       7.226  -0.361  -0.064  0.00  0.00    -0.290 OA
ENDROOT
BRANCH   1   6
ATOM      3  C   UNL     1       2.481   1.071  -0.015  0.00  0.00    -0.018 A 
ATOM      4  C   UNL     1       2.503  -0.324  -0.016  0.00  0.00    +0.009 A 
ATOM      5  C   UNL     1       3.700  -0.991  -0.036  0.00  0.00    +0.012 A 
ATOM      6  C   UNL     1       4.901  -0.272  -0.043  0.00  0.00    +0.019 A 
ATOM      7  C   UNL     1       4.876   1.128  -0.036  0.00  0.00    +0.012 A 
ATOM      8  C   UNL     1       3.676   1.791  -0.022  0.00  0.00    +0.009 A 
BRANCH   3  12
ATOM      9  C   UNL     1      -1.236   3.134   0.029  0.00  0.00    +0.000 A 
ATOM     10  C   UNL     1      -1.216   1.751   0.017  0.00  0.00    +0.001 A 
ATOM     11  C   UNL     1      -0.013   1.076   0.008  0.00  0.00    +0.008 A 
ATOM     12  C   UNL     1       1.185   1.791   0.000  0.00  0.00    -0.018 A 
ATOM     13  C   UNL     1       1.158   3.185   0.008  0.00  0.00    +0.008 A 
ATOM     14  C   UNL     1      -0.052   3.849   0.022  0.00  0.00    +0.001 A 
ENDBRANCH   3  12
ENDBRANCH   1   6
BRANCH   1  15
ATOM     15  C   UNL     1       6.212  -2.492  -0.065  0.00  0.00    +0.197 C 
BRANCH  15  16
ATOM     16  N   UNL     1       7.601  -2.957  -0.080  0.00  0.00    -0.217 N 
ATOM     17  C   UNL     1       8.331  -3.203   1.030  0.00  0.00    +0.247 C 
ATOM     18  O   UNL     1       7.978  -3.087   2.184  0.00  0.00    -0.273 OA
ATOM     19  C   UNL     1       9.679  -3.653   0.527  0.00  0.00    +0.113 C 
ATOM     20  C   UNL     1      10.004  -5.071   1.015  0.00  0.00    +0.035 C 
ATOM     21  C   UNL     1      11.537  -5.045   1.248  0.00  0.00    +0.003 C 
ATOM     22  C   UNL     1      11.776  -3.623   1.814  0.00  0.00    +0.003 C 
ATOM     23  C   UNL     1      10.794  -2.730   1.024  0.00  0.00    +0.035 C 
ATOM     24  N   UNL     1       9.560  -3.610  -0.931  0.00  0.00    -0.285 N 
ATOM     25  C   UNL     1       8.304  -3.196  -1.194  0.00  0.00    +0.310 C 
ATOM     26  O   UNL     1       7.861  -3.052  -2.317  0.00  0.00    -0.252 OA
ATOM     27  H   UNL     1      10.245  -3.839  -1.579  0.00  0.00    +0.151 HD
ENDBRANCH  15  16
ENDBRANCH   1  15
TORSDOF 4
