REMARK  Name = ZINC36116473
REMARK  10 active torsions:
REMARK  status: ('A' for Active; 'I' for Inactive)
REMARK    1  A    between atoms: C_1  and  C_2
REMARK    2  A    between atoms: C_2  and  C_3
REMARK    3  A    between atoms: C_2  and  N_4
REMARK    4  A    between atoms: N_7  and  C_8
REMARK    5  A    between atoms: N_7  and  C_15
REMARK    6  A    between atoms: C_8  and  C_9
REMARK    7  A    between atoms: C_15  and  C_16
REMARK    8  A    between atoms: C_26  and  C_28
REMARK    9  A    between atoms: C_28  and  O_29
REMARK   10  A    between atoms: O_29  and  C_30
REMARK                            x       y       z     vdW  Elec       q    Type
REMARK                         _______ _______ _______ _____ _____    ______ ____
ROOT
ATOM      1  C   UNL     1      -0.588  -2.627   4.799  0.00  0.00    +0.234 C 
ATOM      2  O   UNL     1      -0.415  -3.411   3.890  0.00  0.00    -0.274 OA
ATOM      3  N   UNL     1      -1.293  -3.001   5.886  0.00  0.00    -0.289 N 
ATOM      4  C   UNL     1      -1.514  -2.057   6.992  0.00  0.00    +0.114 C 
ATOM      5  C   UNL     1      -3.019  -1.765   7.083  0.00  0.00    +0.061 C 
ATOM      6  C   UNL     1      -3.767  -3.049   6.926  0.00  0.00    -0.004 A 
ATOM      7  C   UNL     1      -3.305  -4.231   6.437  0.00  0.00    -0.014 A 
ATOM      8  C   UNL     1      -4.215  -5.286   6.386  0.00  0.00    +0.013 A 
ATOM      9  C   UNL     1      -5.484  -5.105   6.816  0.00  0.00    +0.046 A 
ATOM     10  S   UNL     1      -5.460  -3.394   7.328  0.00  0.00    -0.101 S 
ATOM     11  C   UNL     1      -1.857  -4.354   5.978  0.00  0.00    +0.144 C 
ENDROOT
BRANCH   1  12
ATOM     12  C   UNL     1      -0.014  -1.237   4.715  0.00  0.00    +0.205 C 
BRANCH  12  16
ATOM     13  N   UNL     1       0.711  -0.489   1.189  0.00  0.00    -0.297 N 
ATOM     14  C   UNL     1       0.051  -0.633   2.355  0.00  0.00    +0.303 C 
ATOM     15  O   UNL     1      -1.132  -0.361   2.423  0.00  0.00    -0.253 OA
ATOM     16  N   UNL     1       0.703  -1.080   3.447  0.00  0.00    -0.274 N 
ATOM     17  H   UNL     1       1.654  -0.707   1.135  0.00  0.00    +0.150 HD
BRANCH  13  19
ATOM     18  C   UNL     1      -0.019   1.526   0.010  0.00  0.00    +0.027 C 
ATOM     19  C   UNL     1       0.002  -0.004   0.002  0.00  0.00    +0.068 C 
ATOM     20  C   UNL     1       0.718  -0.497  -1.257  0.00  0.00    +0.027 C 
ENDBRANCH  13  19
BRANCH  16  21
ATOM     21  C   UNL     1       2.128  -1.409   3.366  0.00  0.00    +0.141 C 
BRANCH  21  22
ATOM     22  C   UNL     1       2.958  -0.166   3.694  0.00  0.00    +0.136 C 
ATOM     23  C   UNL     1       4.470  -0.483   3.580  0.00  0.00    +0.035 C 
ATOM     24  C   UNL     1       5.048   0.932   3.300  0.00  0.00    +0.031 C 
ATOM     25  C   UNL     1       3.928   1.582   2.459  0.00  0.00    +0.160 C 
ATOM     26  O   UNL     1       2.715   0.866   2.725  0.00  0.00    -0.375 OA
ENDBRANCH  21  22
ENDBRANCH  16  21
ENDBRANCH  12  16
ENDBRANCH   1  12
BRANCH  11  27
ATOM     27  C   UNL     1      -1.065  -5.178   6.995  0.00  0.00    +0.256 C 
BRANCH  27  28
ATOM     28  O   UNL     1      -1.230  -4.613   8.298  0.00  0.00    -0.490 OA
BRANCH  28  29
ATOM     29  C   UNL     1      -0.586  -5.230   9.324  0.00  0.00    +0.121 A 
ATOM     30  C   UNL     1       0.193  -6.351   9.081  0.00  0.00    +0.047 A 
ATOM     31  C   UNL     1       0.846  -6.977  10.125  0.00  0.00    +0.023 A 
ATOM     32  C   UNL     1       0.724  -6.485  11.413  0.00  0.00    +0.041 A 
ATOM     33  C   UNL     1      -0.053  -5.367  11.657  0.00  0.00    +0.023 A 
ATOM     34  C   UNL     1      -0.703  -4.735  10.614  0.00  0.00    +0.047 A 
ATOM     35 CL   UNL     1       1.545  -7.273  12.723  0.00  0.00    -0.084 Cl
ENDBRANCH  28  29
ENDBRANCH  27  28
ENDBRANCH  11  27
TORSDOF 8
