REMARK  Name = ZINC61674343
REMARK  7 active torsions:
REMARK  status: ('A' for Active; 'I' for Inactive)
REMARK    1  A    between atoms: C_1  and  C_2
REMARK    2  A    between atoms: C_2  and  C_3
REMARK    3  A    between atoms: C_2  and  N_4
REMARK    4  A    between atoms: N_4  and  C_5
REMARK    5  A    between atoms: C_5  and  C_6
REMARK    6  A    between atoms: C_6  and  C_12
REMARK    7  A    between atoms: C_12  and  C_13
REMARK                            x       y       z     vdW  Elec       q    Type
REMARK                         _______ _______ _______ _____ _____    ______ ____
ROOT
ATOM      1  C   UNL     1       3.109  -0.730  -2.467  0.00  0.00    -0.036 C 
ATOM      2  C   UNL     1       2.808  -0.183  -3.865  0.00  0.00    +0.033 C 
ATOM      3  C   UNL     1       3.610  -0.978  -4.899  0.00  0.00    +0.160 C 
ATOM      4  O   UNL     1       5.002  -0.893  -4.589  0.00  0.00    -0.380 OA
ATOM      5  C   UNL     1       5.349  -1.434  -3.313  0.00  0.00    +0.160 C 
ATOM      6  C   UNL     1       4.618  -0.656  -2.215  0.00  0.00    +0.033 C 
ENDROOT
BRANCH   1   7
ATOM      7  C   UNL     1       2.374   0.109  -1.420  0.00  0.00    -0.075 C 
BRANCH   7   8
ATOM      8  N   UNL     1       0.942   0.152  -1.745  0.00  0.00    +0.381 N 
ATOM      9  H   UNL     1       0.569  -0.785  -1.745  0.00  0.00    -0.086 HD
ATOM     10  H   UNL     1       0.817   0.565  -2.657  0.00  0.00    -0.086 HD
BRANCH   8  12
ATOM     11  C   UNL     1       0.715   2.411  -0.825  0.00  0.00    -0.014 C 
ATOM     12  C   UNL     1       0.236   0.960  -0.741  0.00  0.00    -0.078 C 
ATOM     13  C   UNL     1      -1.269   0.903  -1.007  0.00  0.00    -0.014 C 
ENDBRANCH   8  12
ENDBRANCH   7   8
ENDBRANCH   1   7
BRANCH   1  14
ATOM     14  C   UNL     1       2.646  -2.186  -2.374  0.00  0.00    +0.048 C 
BRANCH  14  15
ATOM     15  C   UNL     1       3.072  -2.765  -1.050  0.00  0.00    +0.004 A 
ATOM     16  C   UNL     1       2.359  -2.892   0.096  0.00  0.00    +0.028 A 
ATOM     17  C   UNL     1       2.963  -3.462   1.202  0.00  0.00    +0.023 A 
ATOM     18  C   UNL     1       4.250  -3.878   1.106  0.00  0.00    +0.046 A 
ATOM     19  S   UNL     1       4.645  -3.471  -0.587  0.00  0.00    -0.100 S 
ATOM     20 BR   UNL     1       0.567  -2.296   0.182  0.00  0.00    -0.049 Br
ENDBRANCH  14  15
ENDBRANCH   1  14
TORSDOF 5
