REMARK  Name = ZINC12036436
REMARK  12 active torsions:
REMARK  status: ('A' for Active; 'I' for Inactive)
REMARK    1  A    between atoms: C_1  and  C_2
REMARK    2  A    between atoms: C_2  and  C_3
REMARK    3  A    between atoms: C_3  and  C_18
REMARK    4  A    between atoms: N_6  and  C_10
REMARK    5  A    between atoms: C_10  and  C_11
REMARK    6  A    between atoms: C_11  and  C_12
REMARK    7  A    between atoms: C_13  and  C_17
REMARK    8  A    between atoms: C_23  and  C_24
REMARK    9  A    between atoms: C_23  and  N_68
REMARK   10  A    between atoms: C_25  and  C_26
REMARK   11  A    between atoms: C_31  and  O_32
REMARK   12  A    between atoms: O_32  and  C_33
REMARK                            x       y       z     vdW  Elec       q    Type
REMARK                         _______ _______ _______ _____ _____    ______ ____
ROOT
ATOM      1  C   UNL     1      -2.956   1.630  -2.413  0.00  0.00    +0.115 C 
ATOM      2  C   UNL     1      -2.858   3.142  -2.458  0.00  0.00    +0.247 C 
ATOM      3  O   UNL     1      -3.257   3.927  -1.625  0.00  0.00    -0.273 OA
ATOM      4  N   UNL     1      -2.235   3.432  -3.617  0.00  0.00    -0.224 N 
ATOM      5  C   UNL     1      -1.929   2.325  -4.303  0.00  0.00    +0.309 C 
ATOM      6  O   UNL     1      -1.363   2.332  -5.379  0.00  0.00    -0.252 OA
ATOM      7  N   UNL     1      -2.317   1.204  -3.670  0.00  0.00    -0.285 N 
ATOM      8  H   UNL     1      -2.199   0.292  -3.979  0.00  0.00    +0.151 HD
ENDROOT
BRANCH   1   9
ATOM      9  C   UNL     1      -2.194   1.077  -1.207  0.00  0.00    +0.018 C 
ATOM     10  C   UNL     1      -0.752   1.593  -1.232  0.00  0.00    -0.013 C 
ATOM     11  C   UNL     1      -0.013   1.086   0.008  0.00  0.00    -0.078 C 
ATOM     12  C   UNL     1      -2.071   1.038   1.287  0.00  0.00    -0.078 C 
ATOM     13  C   UNL     1      -2.872   1.544   0.085  0.00  0.00    -0.013 C 
ATOM     14  N   UNL     1      -0.701   1.589   1.216  0.00  0.00    +0.382 N 
ATOM     15  H   UNL     1      -0.755   2.613   1.165  0.00  0.00    -0.081 HD
BRANCH  14  16
ATOM     16  C   UNL     1       0.059   1.209   2.425  0.00  0.00    -0.051 C 
BRANCH  16  17
ATOM     17  C   UNL     1      -0.538   1.914   3.615  0.00  0.00    -0.045 C 
ATOM     18  C   UNL     1      -0.920   1.216   4.676  0.00  0.00    +0.005 C 
BRANCH  18  19
ATOM     19  C   UNL     1      -1.505   1.908   5.843  0.00  0.00    +0.016 A 
ATOM     20  C   UNL     1      -1.653   3.295   5.835  0.00  0.00    +0.011 A 
ATOM     21  C   UNL     1      -2.205   3.935   6.925  0.00  0.00    +0.001 A 
ATOM     22  C   UNL     1      -2.604   3.207   8.033  0.00  0.00    +0.004 A 
ATOM     23  C   UNL     1      -2.458   1.833   8.055  0.00  0.00    +0.046 A 
ATOM     24  C   UNL     1      -1.910   1.175   6.965  0.00  0.00    +0.127 A 
BRANCH  24  25
ATOM     25  O   UNL     1      -1.766  -0.175   6.986  0.00  0.00    -0.495 OA
ATOM     26  C   UNL     1      -2.201  -0.856   8.165  0.00  0.00    +0.277 C 
ENDBRANCH  24  25
ENDBRANCH  18  19
ENDBRANCH  16  17
ENDBRANCH  14  16
ENDBRANCH   1   9
BRANCH   1  28
ATOM     27  C   UNL     1      -5.128   1.647  -3.648  0.00  0.00    +0.006 C 
ATOM     28  C   UNL     1      -4.420   1.187  -2.372  0.00  0.00    +0.032 C 
ENDBRANCH   1  28
BRANCH   4  29
ATOM     29  C   UNL     1      -1.931   4.792  -4.070  0.00  0.00    +0.123 C 
BRANCH  29  30
ATOM     30  C   UNL     1      -0.549   5.203  -3.558  0.00  0.00    +0.064 C 
BRANCH  30  31
ATOM     31  C   UNL     1      -0.236   6.602  -4.024  0.00  0.00    +0.014 A 
ATOM     32  C   UNL     1      -0.498   7.793  -3.428  0.00  0.00    +0.049 A 
ATOM     33  N   UNL     1      -0.117   8.895  -4.040  0.00  0.00    -0.252 NA
ATOM     34  C   UNL     1       0.491   8.858  -5.203  0.00  0.00    +0.156 A 
ATOM     35  S   UNL     1       0.575   7.153  -5.518  0.00  0.00    -0.080 S 
ATOM     36  C   UNL     1      -1.202   7.853  -2.098  0.00  0.00    +0.066 C 
ENDBRANCH  30  31
ENDBRANCH  29  30
ENDBRANCH   4  29
TORSDOF 9
