REMARK  Name = ZINC16734180
REMARK  4 active torsions:
REMARK  status: ('A' for Active; 'I' for Inactive)
REMARK    1  A    between atoms: C_4  and  N_7
REMARK    2  A    between atoms: C_9  and  C_17
REMARK    3  A    between atoms: C_10  and  C_12
REMARK    4  A    between atoms: C_25  and  C_27
REMARK                            x       y       z     vdW  Elec       q    Type
REMARK                         _______ _______ _______ _____ _____    ______ ____
ROOT
ATOM      1  C   UNL     1      -0.018   1.461   0.010  0.00  0.00    +0.032 C 
ATOM      2  C   UNL     1      -1.206   2.125   0.019  0.00  0.00    +0.082 A 
ATOM      3  C   UNL     1      -1.458   3.525   0.028  0.00  0.00    +0.288 A 
ATOM      4  O   UNL     1      -0.534   4.319   0.028  0.00  0.00    -0.265 OA
ATOM      5  N   UNL     1      -2.724   3.957   0.036  0.00  0.00    -0.169 N 
ATOM      6  C   UNL     1      -3.729   3.030   0.036  0.00  0.00    +0.200 A 
ATOM      7  S   UNL     1      -2.870   1.474   0.016  0.00  0.00    -0.044 S 
ATOM      8  N   UNL     1      -4.882   3.637   0.046  0.00  0.00    -0.201 NA
ATOM      9  C   UNL     1      -4.686   4.957   0.052  0.00  0.00    +0.196 A 
ATOM     10  N   UNL     1      -3.407   5.204   0.047  0.00  0.00    -0.142 NA
ENDROOT
BRANCH   9  11
ATOM     11  C   UNL     1      -5.774   5.999   0.064  0.00  0.00    +0.280 C 
ATOM     12  C   UNL     1      -6.796   5.693  -1.039  0.00  0.00    +0.281 C 
ATOM     13  O   UNL     1      -7.820   6.692  -0.991  0.00  0.00    -0.484 OA
ATOM     14  C   UNL     1      -8.324   6.993   0.237  0.00  0.00    +0.162 A 
ATOM     15  C   UNL     1      -9.534   7.664   0.331  0.00  0.00    +0.049 A 
ATOM     16  C   UNL     1     -10.056   7.980   1.571  0.00  0.00    +0.004 A 
ATOM     17  C   UNL     1      -9.374   7.628   2.721  0.00  0.00    +0.004 A 
ATOM     18  C   UNL     1      -8.168   6.959   2.635  0.00  0.00    +0.049 A 
ATOM     19  C   UNL     1      -7.639   6.638   1.393  0.00  0.00    +0.163 A 
ATOM     20  O   UNL     1      -6.454   5.973   1.324  0.00  0.00    -0.474 OA
ENDBRANCH   9  11
BRANCH   1  23
ATOM     21  N   UNL     1      -0.638  -2.115  -0.003  0.00  0.00    -0.239 N 
ATOM     22  C   UNL     1      -1.094  -0.849   0.014  0.00  0.00    +0.123 A 
ATOM     23  C   UNL     1       0.002  -0.004   0.002  0.00  0.00    +0.022 A 
ATOM     24  C   UNL     1       1.190  -0.869  -0.014  0.00  0.00    +0.107 A 
ATOM     25  N   UNL     1       0.759  -2.113  -0.017  0.00  0.00    -0.165 NA
BRANCH  21  29
ATOM     26  C   UNL     1      -3.032  -5.526  -0.000  0.00  0.00    +0.000 A 
ATOM     27  C   UNL     1      -1.655  -5.649  -0.013  0.00  0.00    +0.002 A 
ATOM     28  C   UNL     1      -0.859  -4.521  -0.015  0.00  0.00    +0.028 A 
ATOM     29  C   UNL     1      -1.443  -3.261  -0.002  0.00  0.00    +0.065 A 
ATOM     30  C   UNL     1      -2.826  -3.140   0.017  0.00  0.00    +0.028 A 
ATOM     31  C   UNL     1      -3.617  -4.272   0.012  0.00  0.00    +0.002 A 
ENDBRANCH  21  29
BRANCH  24  32
ATOM     32  C   UNL     1       2.598  -0.427  -0.025  0.00  0.00    +0.040 A 
ATOM     33  C   UNL     1       3.688  -1.001   0.576  0.00  0.00    +0.018 A 
ATOM     34  C   UNL     1       4.919  -0.403   0.421  0.00  0.00    +0.008 A 
ATOM     35  C   UNL     1       5.015   0.736  -0.311  0.00  0.00    +0.046 A 
ATOM     36  S   UNL     1       3.324   0.997  -0.820  0.00  0.00    -0.095 S 
ENDBRANCH  24  32
ENDBRANCH   1  23
TORSDOF 4
