REMARK  Name = ZINC37245104
REMARK  5 active torsions:
REMARK  status: ('A' for Active; 'I' for Inactive)
REMARK    1  A    between atoms: C_1  and  C_2
REMARK    2  A    between atoms: C_5  and  N_9
REMARK    3  A    between atoms: N_9  and  C_10
REMARK    4  A    between atoms: C_10  and  C_11
REMARK    5  A    between atoms: C_15  and  N_17
REMARK                            x       y       z     vdW  Elec       q    Type
REMARK                         _______ _______ _______ _____ _____    ______ ____
ROOT
ATOM      1  C   UNL     1       0.061  -4.894  -1.296  0.00  0.00    +0.137 C 
ENDROOT
BRANCH   1   2
ATOM      2  C   UNL     1       0.083  -6.377  -1.030  0.00  0.00    -0.028 A 
ATOM      3  C   UNL     1       1.290  -7.040  -0.908  0.00  0.00    +0.006 A 
ATOM      4  C   UNL     1       1.309  -8.400  -0.663  0.00  0.00    +0.018 A 
ATOM      5  C   UNL     1       0.121  -9.098  -0.540  0.00  0.00    +0.048 A 
ATOM      6  C   UNL     1      -1.086  -8.434  -0.662  0.00  0.00    +0.140 A 
ATOM      7  C   UNL     1      -1.105  -7.073  -0.901  0.00  0.00    +0.039 A 
ATOM      8 BR   UNL     1       0.148 -10.959  -0.206  0.00  0.00    -0.048 Br
BRANCH   6   9
ATOM      9  N   UNL     1      -2.357  -9.180  -0.530  0.00  0.00    +0.058 N 
ATOM     10  O   UNL     1      -3.413  -8.600  -0.637  0.00  0.00    -0.126 OA
ATOM     11  O   UNL     1      -2.341 -10.370  -0.317  0.00  0.00    -0.126 OA
ENDBRANCH   6   9
ENDBRANCH   1   2
BRANCH   1  12
ATOM     12  N   UNL     1       0.059  -4.169  -0.023  0.00  0.00    -0.339 N 
ATOM     13  H   UNL     1       0.069  -4.659   0.814  0.00  0.00    +0.146 HD
BRANCH  12  18
ATOM     14  C   UNL     1      -0.018   1.503   0.010  0.00  0.00    +0.044 C 
ATOM     15  C   UNL     1       0.002  -0.004   0.002  0.00  0.00    -0.049 A 
ATOM     16  C   UNL     1       0.006  -0.687  -1.200  0.00  0.00    +0.005 A 
ATOM     17  C   UNL     1       0.025  -2.068  -1.212  0.00  0.00    +0.024 A 
ATOM     18  C   UNL     1       0.040  -2.772  -0.015  0.00  0.00    +0.046 A 
ATOM     19  C   UNL     1       0.037  -2.082   1.192  0.00  0.00    +0.062 A 
ATOM     20  C   UNL     1       0.023  -0.700   1.197  0.00  0.00    +0.025 A 
ATOM     21 CL   UNL     1       0.056  -2.956   2.692  0.00  0.00    -0.082 Cl
ENDBRANCH  12  18
ENDBRANCH   1  12
TORSDOF 4
