REMARK  Name = ZINC59264562
REMARK  7 active torsions:
REMARK  status: ('A' for Active; 'I' for Inactive)
REMARK    1  A    between atoms: C_3  and  C_6
REMARK    2  A    between atoms: C_6  and  C_8
REMARK    3  A    between atoms: C_6  and  N_24
REMARK    4  A    between atoms: C_8  and  N_9
REMARK    5  A    between atoms: N_12  and  C_13
REMARK    6  A    between atoms: C_13  and  C_14
REMARK    7  A    between atoms: C_14  and  N_15
REMARK                            x       y       z     vdW  Elec       q    Type
REMARK                         _______ _______ _______ _____ _____    ______ ____
ROOT
ATOM      1  N   UNL     1       5.695   2.287  -1.454  0.00  0.00    -0.301 N 
ATOM      2  C   UNL     1       6.356   2.427  -2.620  0.00  0.00    +0.300 C 
ATOM      3  O   UNL     1       5.808   2.141  -3.667  0.00  0.00    -0.253 OA
ATOM      4  N   UNL     1       7.624   2.883  -2.625  0.00  0.00    -0.298 N 
ATOM      5  H   UNL     1       6.132   2.515  -0.618  0.00  0.00    +0.150 HD
ATOM      6  H   UNL     1       8.061   3.111  -1.790  0.00  0.00    +0.150 HD
ENDROOT
BRANCH   1   7
ATOM      7  C   UNL     1       4.316   1.791  -1.448  0.00  0.00    +0.095 C 
BRANCH   7   8
ATOM      8  C   UNL     1       3.759   1.851  -0.024  0.00  0.00    -0.013 C 
BRANCH   8   9
ATOM      9  N   UNL     1       2.427   1.232   0.006  0.00  0.00    +0.386 N 
ATOM     10  C   UNL     1       1.843   1.375   1.357  0.00  0.00    -0.078 C 
ATOM     11  C   UNL     1       1.054   0.062   1.588  0.00  0.00    -0.020 C 
ATOM     12  C   UNL     1       1.974  -0.981   0.901  0.00  0.00    -0.020 C 
ATOM     13  C   UNL     1       2.539  -0.204  -0.306  0.00  0.00    -0.078 C 
ATOM     14  H   UNL     1       1.828   1.681  -0.670  0.00  0.00    -0.081 HD
ENDBRANCH   8   9
BRANCH   8  17
ATOM     15  C   UNL     1       4.196   5.324   1.478  0.00  0.00    +0.008 A 
ATOM     16  C   UNL     1       4.495   4.002   1.205  0.00  0.00    +0.009 A 
ATOM     17  C   UNL     1       3.655   3.288   0.415  0.00  0.00    -0.022 A 
ATOM     18  S   UNL     1       2.396   4.494   0.030  0.00  0.00    -0.103 S 
ATOM     19  C   UNL     1       3.073   5.867   0.948  0.00  0.00    +0.045 A 
ENDBRANCH   8  17
ENDBRANCH   7   8
ENDBRANCH   1   7
BRANCH   4  20
ATOM     20  C   UNL     1       8.342   3.035  -3.893  0.00  0.00    +0.124 C 
BRANCH  20  21
ATOM     21  C   UNL     1       9.751   3.566  -3.620  0.00  0.00    +0.121 C 
BRANCH  21  22
ATOM     22  N   UNL     1      10.470   3.717  -4.888  0.00  0.00    -0.326 N 
ATOM     23  C   UNL     1      11.779   4.189  -4.893  0.00  0.00    +0.137 A 
ATOM     24  C   UNL     1      12.454   4.335  -6.102  0.00  0.00    +0.082 A 
ATOM     25  C   UNL     1      13.756   4.805  -6.093  0.00  0.00    +0.045 A 
ATOM     26  C   UNL     1      14.341   5.113  -4.870  0.00  0.00    +0.061 A 
ATOM     27  C   UNL     1      13.611   4.943  -3.710  0.00  0.00    +0.133 A 
ATOM     28  N   UNL     1      12.369   4.498  -3.750  0.00  0.00    -0.238 NA
ATOM     29 CL   UNL     1      15.971   5.706  -4.803  0.00  0.00    -0.082 Cl
ATOM     30 CL   UNL     1      11.674   3.934  -7.600  0.00  0.00    -0.080 Cl
ATOM     31  H   UNL     1      10.033   3.489  -5.723  0.00  0.00    +0.148 HD
ENDBRANCH  21  22
ENDBRANCH  20  21
ENDBRANCH   4  20
TORSDOF 7
