REMARK  Name = ZINC39449440
REMARK  4 active torsions:
REMARK  status: ('A' for Active; 'I' for Inactive)
REMARK    1  A    between atoms: C_4  and  S_7
REMARK    2  A    between atoms: S_7  and  C_10
REMARK    3  A    between atoms: C_23  and  C_26
REMARK    4  A    between atoms: C_31  and  O_32
REMARK                            x       y       z     vdW  Elec       q    Type
REMARK                         _______ _______ _______ _____ _____    ______ ____
ROOT
ATOM      1  C   UNL     1       4.958  -0.492   1.834  0.00  0.00    +0.112 A 
ATOM      2  C   UNL     1       5.695   0.353   2.645  0.00  0.00    +0.044 A 
ATOM      3  C   UNL     1       5.926  -0.043   3.964  0.00  0.00    +0.070 A 
ATOM      4  C   UNL     1       5.405  -1.275   4.415  0.00  0.00    +0.099 A 
ATOM      5  C   UNL     1       5.661  -1.668   5.808  0.00  0.00    +0.083 A 
ATOM      6  C   UNL     1       6.398  -0.838   6.631  0.00  0.00    +0.127 A 
ATOM      7  N   UNL     1       6.897   0.371   6.163  0.00  0.00    -0.213 N 
ATOM      8  C   UNL     1       6.696   0.788   4.899  0.00  0.00    +0.276 A 
ATOM      9  O   UNL     1       7.154   1.855   4.531  0.00  0.00    -0.266 OA
ATOM     10 CL   UNL     1       7.796   1.361   7.227  0.00  0.00    +0.022 Cl
ATOM     11  C   UNL     1       6.654  -1.221   7.968  0.00  0.00    +0.185 C 
ATOM     12  O   UNL     1       7.260  -0.468   8.704  0.00  0.00    -0.290 OA
ATOM     13  C   UNL     1       6.183  -2.554   8.488  0.00  0.00    +0.108 C 
ATOM     14  C   UNL     1       4.910  -2.969   7.742  0.00  0.00    +0.112 C 
ATOM     15  N   UNL     1       5.166  -2.861   6.298  0.00  0.00    -0.333 N 
ATOM     16  N   UNL     1       4.705  -2.045   3.592  0.00  0.00    -0.251 NA
ATOM     17  C   UNL     1       4.473  -1.687   2.348  0.00  0.00    +0.138 A 
ATOM     18  H   UNL     1       4.992  -3.609   5.705  0.00  0.00    +0.147 HD
ENDROOT
BRANCH  14  19
ATOM     19  C   UNL     1       3.775  -2.055   8.127  0.00  0.00    +0.014 A 
ATOM     20  C   UNL     1       3.375  -1.049   7.269  0.00  0.00    +0.009 A 
ATOM     21  C   UNL     1       2.335  -0.210   7.622  0.00  0.00    +0.001 A 
ATOM     22  C   UNL     1       1.691  -0.375   8.834  0.00  0.00    +0.004 A 
ATOM     23  C   UNL     1       2.086  -1.379   9.696  0.00  0.00    +0.046 A 
ATOM     24  C   UNL     1       3.127  -2.226   9.342  0.00  0.00    +0.122 A 
BRANCH  24  25
ATOM     25  O   UNL     1       3.514  -3.219  10.186  0.00  0.00    -0.506 OA
ATOM     26  H   UNL     1       4.200  -2.955  10.814  0.00  0.00    +0.292 HD
ENDBRANCH  24  25
ENDBRANCH  14  19
BRANCH   1  27
ATOM     27  S   UNL     1       4.631  -0.050   0.160  0.00  0.00    +0.027 S 
ATOM     28  O   UNL     1       4.380  -1.262  -0.539  0.00  0.00    -0.164 OA
ATOM     29  O   UNL     1       5.656   0.855  -0.229  0.00  0.00    -0.164 OA
BRANCH  27  33
ATOM     30  C   UNL     1       0.757   2.291   0.123  0.00  0.00    +0.000 A 
ATOM     31  C   UNL     1       1.961   2.950   0.279  0.00  0.00    +0.002 A 
ATOM     32  C   UNL     1       3.145   2.236   0.290  0.00  0.00    +0.027 A 
ATOM     33  C   UNL     1       3.123   0.861   0.146  0.00  0.00    +0.094 A 
ATOM     34  C   UNL     1       1.918   0.201  -0.008  0.00  0.00    +0.027 A 
ATOM     35  C   UNL     1       0.735   0.916  -0.021  0.00  0.00    +0.002 A 
ENDBRANCH  27  33
ENDBRANCH   1  27
TORSDOF 4
