REMARK  Name = ZINC59048509
REMARK  5 active torsions:
REMARK  status: ('A' for Active; 'I' for Inactive)
REMARK    1  A    between atoms: C_3  and  N_9
REMARK    2  A    between atoms: C_10  and  C_12
REMARK    3  A    between atoms: C_12  and  S_13
REMARK    4  A    between atoms: S_13  and  C_14
REMARK    5  A    between atoms: N_19  and  N_20
REMARK                            x       y       z     vdW  Elec       q    Type
REMARK                         _______ _______ _______ _____ _____    ______ ____
ROOT
ATOM      1  N   UNL     1       3.584   2.129  -0.021  0.00  0.00    -0.283 N 
ATOM      2  C   UNL     1       3.567   3.474  -0.116  0.00  0.00    +0.228 C 
ATOM      3  O   UNL     1       2.511   4.069  -0.103  0.00  0.00    -0.275 OA
ATOM      4  H   UNL     1       4.430   1.659   0.049  0.00  0.00    +0.155 HD
ENDROOT
BRANCH   1   7
ATOM      5  C   UNL     1       0.065   1.244  -0.620  0.00  0.00    +0.022 A 
ATOM      6  C   UNL     1       1.250   1.953  -0.618  0.00  0.00    +0.027 A 
ATOM      7  C   UNL     1       2.381   1.412  -0.024  0.00  0.00    +0.069 A 
ATOM      8  C   UNL     1       2.318   0.154   0.567  0.00  0.00    +0.146 A 
ATOM      9  C   UNL     1       1.129  -0.551   0.562  0.00  0.00    +0.060 A 
ATOM     10  C   UNL     1       0.004  -0.007  -0.032  0.00  0.00    +0.044 A 
ATOM     11 CL   UNL     1      -1.488  -0.895  -0.036  0.00  0.00    -0.083 Cl
ATOM     12  F   UNL     1       3.418  -0.377   1.146  0.00  0.00    -0.203 F 
ENDBRANCH   1   7
BRANCH   2  13
ATOM     13  C   UNL     1       4.861   4.237  -0.238  0.00  0.00    +0.172 C 
BRANCH  13  14
ATOM     14  S   UNL     1       4.508   6.013  -0.346  0.00  0.00    -0.088 S 
BRANCH  14  15
ATOM     15  C   UNL     1       6.099   6.757  -0.483  0.00  0.00    +0.160 A 
ATOM     16  N   UNL     1       7.289   6.187  -0.510  0.00  0.00    -0.133 NA
ATOM     17  N   UNL     1       8.418   6.965  -0.624  0.00  0.00    -0.124 NA
ATOM     18  C   UNL     1       8.306   8.276  -0.705  0.00  0.00    +0.196 A 
ATOM     19  S   UNL     1       6.533   8.483  -0.628  0.00  0.00    -0.023 S 
ATOM     20  N   UNL     1       9.300   9.240  -0.824  0.00  0.00    -0.260 N 
ATOM     21  H   UNL     1       9.063  10.179  -0.873  0.00  0.00    +0.168 HD
BRANCH  20  22
ATOM     22  N   UNL     1      10.613   8.864  -0.872  0.00  0.00    -0.255 NA
ATOM     23  H   UNL     1      10.774   8.208  -1.622  0.00  0.00    +0.140 HD
ATOM     24  H   UNL     1      11.216   9.668  -0.958  0.00  0.00    +0.140 HD
ENDBRANCH  20  22
ENDBRANCH  14  15
ENDBRANCH  13  14
ENDBRANCH   2  13
TORSDOF 5
