REMARK  Name = ZINC12575654
REMARK  6 active torsions:
REMARK  status: ('A' for Active; 'I' for Inactive)
REMARK    1  A    between atoms: C_10  and  C_11
REMARK    2  A    between atoms: C_11  and  C_12
REMARK    3  A    between atoms: N_20  and  C_21
REMARK    4  A    between atoms: C_21  and  C_22
REMARK    5  A    between atoms: N_24  and  C_25
REMARK    6  A    between atoms: C_28  and  C_31
REMARK                            x       y       z     vdW  Elec       q    Type
REMARK                         _______ _______ _______ _____ _____    ______ ____
ROOT
ATOM      1  C   UNL     1      -3.130   0.877   1.888  0.00  0.00    +0.116 A 
ATOM      2  N   UNL     1      -2.880  -0.161   2.632  0.00  0.00    -0.232 NA
ATOM      3  C   UNL     1      -3.382   0.039   3.878  0.00  0.00    +0.089 A 
ATOM      4  C   UNL     1      -3.396  -0.729   5.045  0.00  0.00    +0.030 A 
ATOM      5  C   UNL     1      -4.001  -0.245   6.171  0.00  0.00    +0.002 A 
ATOM      6  C   UNL     1      -4.605   1.004   6.168  0.00  0.00    +0.002 A 
ATOM      7  C   UNL     1      -4.603   1.779   5.028  0.00  0.00    +0.028 A 
ATOM      8  C   UNL     1      -3.992   1.304   3.875  0.00  0.00    +0.069 A 
ATOM      9  N   UNL     1      -3.817   1.809   2.602  0.00  0.00    -0.318 N 
ENDROOT
BRANCH   1  10
ATOM     10  C   UNL     1      -2.724   1.022   0.444  0.00  0.00    +0.110 C 
BRANCH  10  20
ATOM     11  C   UNL     1       2.113  -0.637   0.662  0.00  0.00    +0.001 A 
ATOM     12  C   UNL     1       0.863  -1.248   0.742  0.00  0.00    +0.001 A 
ATOM     13  C   UNL     1      -0.281  -0.516   0.650  0.00  0.00    +0.009 A 
ATOM     14  C   UNL     1      -0.204   0.876   0.472  0.00  0.00    -0.014 A 
ATOM     15  C   UNL     1       1.067   1.497   0.391  0.00  0.00    -0.018 A 
ATOM     16  C   UNL     1       2.227   0.708   0.490  0.00  0.00    +0.008 A 
ATOM     17  C   UNL     1       1.145   2.888   0.213  0.00  0.00    +0.008 A 
ATOM     18  C   UNL     1       0.001   3.620   0.120  0.00  0.00    +0.001 A 
ATOM     19  C   UNL     1      -1.249   3.010   0.199  0.00  0.00    +0.004 A 
ATOM     20  C   UNL     1      -1.363   1.663   0.367  0.00  0.00    -0.032 A 
ENDBRANCH  10  20
ENDBRANCH   1  10
BRANCH   9  21
ATOM     21  C   UNL     1      -4.282   3.109   2.112  0.00  0.00    +0.219 C 
BRANCH  21  22
ATOM     22  C   UNL     1      -5.668   2.962   1.538  0.00  0.00    +0.237 C 
ATOM     23  O   UNL     1      -6.213   1.879   1.539  0.00  0.00    -0.274 OA
ATOM     24  N   UNL     1      -6.302   4.035   1.025  0.00  0.00    -0.284 N 
ATOM     25  H   UNL     1      -5.899   4.915   1.093  0.00  0.00    +0.155 HD
BRANCH  24  26
ATOM     26  C   UNL     1      -7.537   3.880   0.395  0.00  0.00    +0.033 A 
ATOM     27  C   UNL     1      -7.809   2.720  -0.322  0.00  0.00    +0.024 A 
ATOM     28  C   UNL     1      -9.029   2.562  -0.941  0.00  0.00    +0.015 A 
ATOM     29  C   UNL     1      -9.990   3.573  -0.856  0.00  0.00    +0.037 A 
ATOM     30  C   UNL     1      -9.711   4.739  -0.138  0.00  0.00    +0.015 A 
ATOM     31  C   UNL     1      -8.491   4.889   0.482  0.00  0.00    +0.024 A 
BRANCH  29  32
ATOM     32  C   UNL     1     -11.297   3.409  -1.522  0.00  0.00    +0.242 C 
ATOM     33  O   UNL     1     -12.132   4.290  -1.447  0.00  0.00    -0.270 OA
ATOM     34  N   UNL     1     -11.565   2.284  -2.213  0.00  0.00    -0.325 N 
ATOM     35  H   UNL     1     -10.898   1.581  -2.273  0.00  0.00    +0.145 HD
ATOM     36  H   UNL     1     -12.423   2.176  -2.651  0.00  0.00    +0.145 HD
ENDBRANCH  29  32
ENDBRANCH  24  26
ENDBRANCH  21  22
ENDBRANCH   9  21
TORSDOF 6
