REMARK  Name = ZINC45841225
REMARK  9 active torsions:
REMARK  status: ('A' for Active; 'I' for Inactive)
REMARK    1  A    between atoms: C_1  and  C_2
REMARK    2  A    between atoms: C_2  and  C_4
REMARK    3  A    between atoms: C_2  and  N_14
REMARK    4  A    between atoms: C_15  and  C_17
REMARK    5  A    between atoms: C_17  and  C_19
REMARK    6  A    between atoms: C_17  and  S_20
REMARK    7  A    between atoms: S_20  and  C_21
REMARK    8  A    between atoms: C_24  and  C_27
REMARK    9  A    between atoms: N_25  and  C_26
REMARK                            x       y       z     vdW  Elec       q    Type
REMARK                         _______ _______ _______ _____ _____    ______ ____
ROOT
ATOM      1  N   UNL     1      -1.314  -0.642   0.092  0.00  0.00    -0.308 N 
ATOM      2  C   UNL     1      -1.955  -0.699   1.276  0.00  0.00    +0.227 C 
ATOM      3  O   UNL     1      -1.442  -0.224   2.267  0.00  0.00    -0.275 OA
ATOM      4  H   UNL     1      -1.724  -1.022  -0.700  0.00  0.00    +0.149 HD
ENDROOT
BRANCH   1   6
ATOM      5  C   UNL     1      -0.174   1.498  -0.231  0.00  0.00    +0.033 C 
ATOM      6  C   UNL     1       0.002  -0.004   0.002  0.00  0.00    +0.101 C 
BRANCH   6   7
ATOM      7  C   UNL     1       0.773  -0.604  -1.146  0.00  0.00    -0.020 A 
ATOM      8  C   UNL     1       0.112  -1.146  -2.205  0.00  0.00    +0.006 A 
ATOM      9  C   UNL     1       0.808  -1.705  -3.275  0.00  0.00    +0.001 A 
ATOM     10  C   UNL     1       2.169  -1.725  -3.292  0.00  0.00    +0.008 A 
ATOM     11  C   UNL     1       2.886  -1.174  -2.216  0.00  0.00    -0.018 A 
ATOM     12  C   UNL     1       2.178  -0.600  -1.131  0.00  0.00    -0.013 A 
ATOM     13  C   UNL     1       2.896  -0.044  -0.058  0.00  0.00    +0.009 A 
ATOM     14  C   UNL     1       4.256  -0.059  -0.078  0.00  0.00    +0.001 A 
ATOM     15  C   UNL     1       4.952  -0.618  -1.149  0.00  0.00    +0.001 A 
ATOM     16  C   UNL     1       4.291  -1.177  -2.199  0.00  0.00    +0.008 A 
ENDBRANCH   6   7
ENDBRANCH   1   6
BRANCH   2  17
ATOM     17  C   UNL     1      -3.309  -1.355   1.369  0.00  0.00    +0.137 C 
ATOM     18  C   UNL     1      -4.382  -0.381   0.879  0.00  0.00    +0.029 C 
BRANCH  17  19
ATOM     19  S   UNL     1      -3.644  -1.807   3.094  0.00  0.00    -0.074 S 
BRANCH  19  20
ATOM     20  C   UNL     1      -5.172  -2.683   3.015  0.00  0.00    +0.192 A 
ATOM     21  N   UNL     1      -5.872  -2.935   1.933  0.00  0.00    -0.122 NA
ATOM     22  N   UNL     1      -6.931  -3.594   2.243  0.00  0.00    -0.133 NA
ATOM     23  C   UNL     1      -6.970  -3.800   3.529  0.00  0.00    +0.139 A 
ATOM     24  N   UNL     1      -5.848  -3.232   4.066  0.00  0.00    -0.309 N 
ATOM     25  C   UNL     1      -5.454  -3.214   5.477  0.00  0.00    +0.152 C 
BRANCH  23  26
ATOM     26  C   UNL     1      -8.048  -4.534   4.284  0.00  0.00    +0.079 C 
ATOM     27  C   UNL     1      -8.172  -5.969   3.748  0.00  0.00    +0.035 C 
ATOM     28  C   UNL     1      -9.470  -6.622   4.282  0.00  0.00    +0.166 C 
ATOM     29  S   UNL     1     -10.576  -5.174   4.533  0.00  0.00    -0.030 S 
ATOM     30  O   UNL     1     -10.891  -5.067   5.915  0.00  0.00    -0.174 OA
ATOM     31  O   UNL     1     -11.627  -5.224   3.579  0.00  0.00    -0.174 OA
ATOM     32  C   UNL     1      -9.414  -3.819   4.076  0.00  0.00    +0.177 C 
ENDBRANCH  23  26
ENDBRANCH  19  20
ENDBRANCH  17  19
ENDBRANCH   2  17
TORSDOF 6
