REMARK  Name = ZINC33596975
REMARK  7 active torsions:
REMARK  status: ('A' for Active; 'I' for Inactive)
REMARK    1  A    between atoms: C_1  and  C_2
REMARK    2  A    between atoms: C_7  and  N_8
REMARK    3  A    between atoms: C_13  and  C_32
REMARK    4  A    between atoms: C_16  and  C_21
REMARK    5  A    between atoms: C_16  and  C_29
REMARK    6  A    between atoms: C_21  and  C_22
REMARK    7  A    between atoms: C_25  and  O_28
REMARK                            x       y       z     vdW  Elec       q    Type
REMARK                         _______ _______ _______ _____ _____    ______ ____
ROOT
ATOM      1  N   UNL     1      -6.141  -0.320   0.152  0.00  0.00    -0.210 N 
ATOM      2  C   UNL     1      -6.427   0.882   0.775  0.00  0.00    +0.229 C 
ATOM      3  O   UNL     1      -7.516   1.383   0.951  0.00  0.00    -0.275 OA
ATOM      4  C   UNL     1      -5.143   1.407   1.173  0.00  0.00    +0.078 C 
ATOM      5  C   UNL     1      -4.557   2.401   2.082  0.00  0.00    -0.020 C 
ATOM      6  N   UNL     1      -3.120   1.994   2.212  0.00  0.00    +0.396 N 
ATOM      7  C   UNL     1      -2.944   0.707   1.462  0.00  0.00    +0.052 C 
ATOM      8  C   UNL     1      -4.338   0.088   1.501  0.00  0.00    +0.087 C 
ATOM      9  C   UNL     1      -4.853  -0.728   0.358  0.00  0.00    +0.229 C 
ATOM     10  O   UNL     1      -4.250  -1.579  -0.261  0.00  0.00    -0.275 OA
ATOM     11  H   UNL     1      -2.476   2.777   1.785  0.00  0.00    -0.083 HD
ATOM     12  H   UNL     1      -2.873   1.855   3.275  0.00  0.00    -0.083 HD
ENDROOT
BRANCH   1  19
ATOM     13  C   UNL     1      -6.320   0.240  -2.633  0.00  0.00    +0.045 C 
ATOM     14  C   UNL     1      -7.190  -0.798  -1.973  0.00  0.00    -0.029 A 
ATOM     15  C   UNL     1      -8.104  -1.512  -2.723  0.00  0.00    +0.005 A 
ATOM     16  C   UNL     1      -8.907  -2.461  -2.117  0.00  0.00    +0.000 A 
ATOM     17  C   UNL     1      -8.794  -2.701  -0.760  0.00  0.00    +0.002 A 
ATOM     18  C   UNL     1      -7.878  -1.993  -0.005  0.00  0.00    +0.024 A 
ATOM     19  C   UNL     1      -7.071  -1.040  -0.611  0.00  0.00    +0.047 A 
ENDBRANCH   1  19
BRANCH   5  20
ATOM     20  C   UNL     1      -5.241   2.353   3.424  0.00  0.00    -0.023 A 
ATOM     21  C   UNL     1      -6.160   3.203   3.944  0.00  0.00    +0.009 A 
ATOM     22  C   UNL     1      -6.658   2.958   5.210  0.00  0.00    +0.008 A 
ATOM     23  C   UNL     1      -6.206   1.881   5.897  0.00  0.00    +0.045 A 
ATOM     24  S   UNL     1      -5.045   1.168   4.744  0.00  0.00    -0.103 S 
ENDBRANCH   5  20
BRANCH   7  25
ATOM     25  C   UNL     1      -1.946  -0.183   2.156  0.00  0.00    +0.347 C 
ATOM     26  O   UNL     1      -2.132  -1.375   2.206  0.00  0.00    -0.248 OA
ATOM     27  O   UNL     1      -0.850   0.350   2.720  0.00  0.00    -0.248 OA
ENDBRANCH   7  25
BRANCH   7  28
ATOM     28  C   UNL     1      -2.513   0.977   0.019  0.00  0.00    +0.035 C 
BRANCH  28  29
ATOM     29  C   UNL     1      -1.223   1.756   0.017  0.00  0.00    -0.048 A 
ATOM     30  C   UNL     1      -0.013   1.088   0.010  0.00  0.00    +0.007 A 
ATOM     31  C   UNL     1       1.171   1.800   0.003  0.00  0.00    +0.045 A 
ATOM     32  C   UNL     1       1.144   3.187   0.008  0.00  0.00    +0.117 A 
ATOM     33  C   UNL     1      -0.071   3.856   0.021  0.00  0.00    +0.045 A 
ATOM     34  C   UNL     1      -1.252   3.139   0.029  0.00  0.00    +0.007 A 
BRANCH  32  35
ATOM     35  O   UNL     1       2.308   3.890   0.000  0.00  0.00    -0.507 OA
ATOM     36  H   UNL     1       2.286   4.990   0.005  0.00  0.00    +0.292 HD
ENDBRANCH  32  35
ENDBRANCH  28  29
ENDBRANCH   7  28
TORSDOF 6
