REMARK  Name = ZINC57802143
REMARK  7 active torsions:
REMARK  status: ('A' for Active; 'I' for Inactive)
REMARK    1  A    between atoms: C_1  and  C_2
REMARK    2  A    between atoms: C_7  and  C_8
REMARK    3  A    between atoms: N_9  and  C_16
REMARK    4  A    between atoms: C_10  and  C_12
REMARK    5  A    between atoms: C_16  and  C_18
REMARK    6  A    between atoms: C_16  and  C_19
REMARK    7  A    between atoms: C_19  and  N_20
REMARK                            x       y       z     vdW  Elec       q    Type
REMARK                         _______ _______ _______ _____ _____    ______ ____
ROOT
ATOM      1  C   UNL     1       1.231   1.274  -0.673  0.00  0.00    +0.044 C 
ATOM      2  C   UNL     1       0.807  -0.166  -0.543  0.00  0.00    -0.045 A 
ATOM      3  C   UNL     1       0.825  -0.978  -1.643  0.00  0.00    +0.033 A 
ATOM      4  C   UNL     1       0.433  -2.314  -1.528  0.00  0.00    +0.090 A 
ATOM      5  C   UNL     1       0.023  -2.809  -0.278  0.00  0.00    +0.069 A 
ATOM      6  C   UNL     1       0.011  -1.970   0.827  0.00  0.00    +0.031 A 
ATOM      7  C   UNL     1       0.407  -0.656   0.691  0.00  0.00    -0.045 A 
ATOM      8  C   UNL     1       0.400   0.256   1.891  0.00  0.00    +0.044 C 
ATOM      9  N   UNL     1      -0.297  -4.137  -0.481  0.00  0.00    -0.323 N 
ATOM     10  C   UNL     1      -0.083  -4.408  -1.797  0.00  0.00    +0.162 A 
ATOM     11  N   UNL     1       0.344  -3.342  -2.410  0.00  0.00    -0.228 NA
ENDROOT
BRANCH  10  12
ATOM     12  C   UNL     1      -0.308  -5.747  -2.450  0.00  0.00    +0.248 C 
ATOM     13 CL   UNL     1       0.105  -5.639  -4.202  0.00  0.00    -0.075 Cl
ATOM     14 CL   UNL     1       0.741  -6.984  -1.661  0.00  0.00    -0.075 Cl
ATOM     15 CL   UNL     1      -2.038  -6.222  -2.268  0.00  0.00    -0.075 Cl
ENDBRANCH  10  12
BRANCH   9  16
ATOM     16  C   UNL     1      -0.778  -5.079   0.532  0.00  0.00    +0.069 C 
ATOM     17  C   UNL     1      -2.080  -4.554   1.140  0.00  0.00    +0.029 C 
BRANCH  16  18
ATOM     18  C   UNL     1       0.276  -5.226   1.633  0.00  0.00    -0.061 C 
BRANCH  18  19
ATOM     19  N   UNL     1      -0.150  -6.261   2.583  0.00  0.00    +0.379 N 
ATOM     20  H   UNL     1      -1.032  -5.997   2.995  0.00  0.00    -0.090 HD
ATOM     21  H   UNL     1      -0.255  -7.140   2.099  0.00  0.00    -0.090 HD
ATOM     22  H   UNL     1       0.544  -6.358   3.308  0.00  0.00    -0.090 HD
ENDBRANCH  18  19
ENDBRANCH  16  18
ENDBRANCH   9  16
TORSDOF 4
