REMARK  Name = ZINC46878654
REMARK  7 active torsions:
REMARK  status: ('A' for Active; 'I' for Inactive)
REMARK    1  A    between atoms: C_4  and  C_7
REMARK    2  A    between atoms: C_7  and  C_8
REMARK    3  A    between atoms: C_8  and  C_9
REMARK    4  A    between atoms: C_9  and  C_10
REMARK    5  A    between atoms: N_12  and  N_13
REMARK    6  A    between atoms: C_14  and  C_16
REMARK    7  A    between atoms: C_16  and  C_17
REMARK                            x       y       z     vdW  Elec       q    Type
REMARK                         _______ _______ _______ _____ _____    ______ ____
ROOT
ATOM      1  N   UNL     1       7.540  -2.845   4.342  0.00  0.00    -0.234 N 
ATOM      2  C   UNL     1       8.699  -3.493   4.573  0.00  0.00    +0.230 C 
ATOM      3  O   UNL     1       9.377  -3.873   3.642  0.00  0.00    -0.274 OA
ATOM      4  H   UNL     1       6.998  -2.541   5.087  0.00  0.00    +0.173 HD
ENDROOT
BRANCH   1   7
ATOM      5  C   UNL     1       5.960  -1.962   2.796  0.00  0.00    +0.229 C 
ATOM      6  O   UNL     1       5.282  -1.582   3.727  0.00  0.00    -0.274 OA
ATOM      7  N   UNL     1       7.119  -2.611   3.027  0.00  0.00    -0.234 N 
ATOM      8  H   UNL     1       7.661  -2.915   2.283  0.00  0.00    +0.173 HD
BRANCH   5   9
ATOM      9  C   UNL     1       5.507  -1.710   1.381  0.00  0.00    +0.097 C 
BRANCH   9  10
ATOM     10  C   UNL     1       4.171  -0.963   1.399  0.00  0.00    +0.014 C 
BRANCH  10  11
ATOM     11  C   UNL     1       3.711  -0.707  -0.038  0.00  0.00    +0.035 C 
BRANCH  11  15
ATOM     12  C   UNL     1      -0.017   1.378   0.010  0.00  0.00    +0.000 A 
ATOM     13  C   UNL     1       1.171   2.086   0.002  0.00  0.00    +0.000 A 
ATOM     14  C   UNL     1       2.377   1.411  -0.013  0.00  0.00    +0.003 A 
ATOM     15  C   UNL     1       2.396   0.029  -0.020  0.00  0.00    -0.047 A 
ATOM     16  C   UNL     1       1.208  -0.679  -0.012  0.00  0.00    +0.003 A 
ATOM     17  C   UNL     1       0.002  -0.004   0.002  0.00  0.00    +0.000 A 
ENDBRANCH  11  15
ENDBRANCH  10  11
ENDBRANCH   9  10
ENDBRANCH   5   9
ENDBRANCH   1   7
BRANCH   2  18
ATOM     18  C   UNL     1       9.152  -3.745   5.988  0.00  0.00    +0.104 C 
BRANCH  18  19
ATOM     19  C   UNL     1      10.488  -4.492   5.971  0.00  0.00    -0.020 C 
ATOM     20  C   UNL     1      10.315  -5.828   5.244  0.00  0.00    +0.011 C 
ATOM     21  C   UNL     1      11.650  -6.575   5.227  0.00  0.00    -0.010 C 
ATOM     22  C   UNL     1      12.111  -6.831   6.663  0.00  0.00    +0.007 C 
ATOM     23  C   UNL     1      12.283  -5.495   7.389  0.00  0.00    -0.010 C 
ATOM     24  C   UNL     1      10.948  -4.748   7.407  0.00  0.00    +0.011 C 
ATOM     25  C   UNL     1      13.330  -4.651   6.661  0.00  0.00    +0.007 C 
ATOM     26  C   UNL     1      12.870  -4.394   5.225  0.00  0.00    -0.010 C 
ATOM     27  C   UNL     1      12.698  -5.730   4.498  0.00  0.00    +0.007 C 
ATOM     28  C   UNL     1      11.535  -3.647   5.242  0.00  0.00    +0.011 C 
ENDBRANCH  18  19
ENDBRANCH   2  18
TORSDOF 7
