REMARK  Name = ZINC20034118
REMARK  4 active torsions:
REMARK  status: ('A' for Active; 'I' for Inactive)
REMARK    1  A    between atoms: C_1  and  C_2
REMARK    2  A    between atoms: C_9  and  C_13
REMARK    3  A    between atoms: C_9  and  O_17
REMARK    4  A    between atoms: C_18  and  C_20
REMARK                            x       y       z     vdW  Elec       q    Type
REMARK                         _______ _______ _______ _____ _____    ______ ____
ROOT
ATOM      1  C   UNL     1       0.476  -0.161  -0.690  0.00  0.00    +0.007 C 
ATOM      2  C   UNL     1       0.383   1.354  -0.503  0.00  0.00    -0.013 C 
ATOM      3  C   UNL     1      -0.176   1.655   0.886  0.00  0.00    +0.009 C 
ATOM      4  C   UNL     1      -0.182   3.171   1.137  0.00  0.00    +0.053 C 
ATOM      5  C   UNL     1      -0.885   3.804  -0.047  0.00  0.00    +0.045 C 
ATOM      6  N   UNL     1      -1.879   4.581  -0.051  0.00  0.00    -0.183 NA
ATOM      7  N   UNL     1      -2.384   4.865  -1.321  0.00  0.00    -0.148 N 
ATOM      8  C   UNL     1      -1.599   4.116  -2.319  0.00  0.00    +0.259 C 
ATOM      9  C   UNL     1      -0.491   3.467  -1.478  0.00  0.00    +0.096 C 
ATOM     10  C   UNL     1      -0.515   1.942  -1.597  0.00  0.00    +0.017 C 
ATOM     11  C   UNL     1      -3.417   5.688  -1.590  0.00  0.00    +0.269 C 
ATOM     12  O   UNL     1      -3.836   5.785  -2.727  0.00  0.00    -0.268 OA
ENDROOT
BRANCH  11  13
ATOM     13  C   UNL     1      -4.040   6.471  -0.503  0.00  0.00    +0.039 A 
ATOM     14  C   UNL     1      -3.478   6.466   0.775  0.00  0.00    +0.014 A 
ATOM     15  C   UNL     1      -4.061   7.204   1.784  0.00  0.00    +0.021 A 
ATOM     16  C   UNL     1      -5.207   7.941   1.534  0.00  0.00    +0.041 A 
ATOM     17  C   UNL     1      -5.772   7.945   0.269  0.00  0.00    +0.021 A 
ATOM     18  C   UNL     1      -5.195   7.215  -0.749  0.00  0.00    +0.014 A 
ATOM     19 CL   UNL     1      -5.939   8.861   2.811  0.00  0.00    -0.084 Cl
ENDBRANCH  11  13
BRANCH   8  20
ATOM     20  C   UNL     1      -2.459   3.047  -2.996  0.00  0.00    +0.438 C 
ATOM     21  F   UNL     1      -3.147   2.317  -2.022  0.00  0.00    -0.166 F 
ATOM     22  F   UNL     1      -3.377   3.662  -3.854  0.00  0.00    -0.166 F 
ATOM     23  F   UNL     1      -1.638   2.185  -3.732  0.00  0.00    -0.166 F 
ENDBRANCH   8  20
BRANCH   8  24
ATOM     24  O   UNL     1      -1.040   5.003  -3.291  0.00  0.00    -0.363 OA
ATOM     25  H   UNL     1      -0.424   4.603  -4.110  0.00  0.00    +0.212 HD
ENDBRANCH   8  24
TORSDOF 3
