REMARK  Name = ZINC36207570
REMARK  13 active torsions:
REMARK  status: ('A' for Active; 'I' for Inactive)
REMARK    1  A    between atoms: C_1  and  C_2
REMARK    2  A    between atoms: C_5  and  C_9
REMARK    3  A    between atoms: C_7  and  C_8
REMARK    4  A    between atoms: C_18  and  C_20
REMARK    5  A    between atoms: C_20  and  N_21
REMARK    6  A    between atoms: N_21  and  C_22
REMARK    7  A    between atoms: N_21  and  C_27
REMARK    8  A    between atoms: C_22  and  C_23
REMARK    9  A    between atoms: C_23  and  C_25
REMARK   10  A    between atoms: C_23  and  O_26
REMARK   11  A    between atoms: C_27  and  C_28
REMARK   12  A    between atoms: C_28  and  C_29
REMARK   13  A    between atoms: C_28  and  C_30
REMARK                            x       y       z     vdW  Elec       q    Type
REMARK                         _______ _______ _______ _____ _____    ______ ____
ROOT
ATOM      1  C   UNL     1      -0.181  -4.339   0.142  0.00  0.00    +0.004 A 
ATOM      2  C   UNL     1       0.468  -4.995   1.134  0.00  0.00    +0.056 A 
ATOM      3  S   UNL     1       0.082  -6.706   0.817  0.00  0.00    -0.076 S 
ATOM      4  C   UNL     1      -0.930  -6.503  -0.625  0.00  0.00    +0.116 A 
ATOM      5  C   UNL     1      -0.951  -5.113  -0.824  0.00  0.00    +0.080 A 
ATOM      6  C   UNL     1      -1.718  -4.658  -1.945  0.00  0.00    +0.260 A 
ATOM      7  O   UNL     1      -1.792  -3.469  -2.202  0.00  0.00    -0.267 OA
ATOM      8  N   UNL     1      -2.355  -5.564  -2.710  0.00  0.00    -0.312 N 
ATOM      9  H   UNL     1      -2.876  -5.261  -3.470  0.00  0.00    +0.170 HD
ATOM     10  C   UNL     1      -2.282  -6.892  -2.438  0.00  0.00    +0.094 A 
ATOM     11  N   UNL     1      -1.583  -7.338  -1.430  0.00  0.00    -0.229 NA
ENDROOT
BRANCH   1  16
ATOM     12  C   UNL     1       0.080   1.401  -0.239  0.00  0.00    +0.044 C 
ATOM     13  C   UNL     1       0.012  -0.101  -0.139  0.00  0.00    -0.048 A 
ATOM     14  C   UNL     1       0.271  -0.878  -1.254  0.00  0.00    +0.004 A 
ATOM     15  C   UNL     1       0.210  -2.254  -1.169  0.00  0.00    +0.009 A 
ATOM     16  C   UNL     1      -0.113  -2.861   0.044  0.00  0.00    -0.016 A 
ATOM     17  C   UNL     1      -0.373  -2.073   1.164  0.00  0.00    +0.012 A 
ATOM     18  C   UNL     1      -0.304  -0.698   1.068  0.00  0.00    -0.047 A 
ATOM     19  C   UNL     1      -0.579   0.155   2.280  0.00  0.00    +0.044 C 
ENDBRANCH   1  16
BRANCH  10  20
ATOM     20  C   UNL     1      -3.012  -7.870  -3.324  0.00  0.00    -0.003 C 
BRANCH  20  21
ATOM     21  N   UNL     1      -2.786  -9.236  -2.834  0.00  0.00    +0.386 N 
ATOM     22  H   UNL     1      -1.794  -9.412  -2.773  0.00  0.00    -0.081 HD
BRANCH  21  23
ATOM     23  C   UNL     1      -3.393  -9.387  -1.505  0.00  0.00    -0.047 C 
BRANCH  23  24
ATOM     24  C   UNL     1      -3.030 -10.759  -0.932  0.00  0.00    +0.095 C 
ATOM     25  C   UNL     1      -3.688 -10.928   0.439  0.00  0.00    +0.035 C 
BRANCH  24  26
ATOM     26  O   UNL     1      -1.611 -10.858  -0.795  0.00  0.00    -0.394 OA
ATOM     27  H   UNL     1      -1.309 -11.703  -0.437  0.00  0.00    +0.210 HD
ENDBRANCH  24  26
ENDBRANCH  23  24
ENDBRANCH  21  23
BRANCH  21  28
ATOM     28  C   UNL     1      -3.397 -10.196  -3.764  0.00  0.00    -0.075 C 
BRANCH  28  29
ATOM     29  C   UNL     1      -2.660 -10.148  -5.104  0.00  0.00    -0.034 C 
ATOM     30  C   UNL     1      -1.220 -10.627  -4.912  0.00  0.00    +0.005 C 
ATOM     31  C   UNL     1      -3.370 -11.056  -6.109  0.00  0.00    +0.005 C 
ENDBRANCH  28  29
ENDBRANCH  21  28
ENDBRANCH  20  21
ENDBRANCH  10  20
TORSDOF 8
