REMARK  Name = ZINC39673250
REMARK  10 active torsions:
REMARK  status: ('A' for Active; 'I' for Inactive)
REMARK    1  A    between atoms: C_1  and  C_2
REMARK    2  A    between atoms: C_2  and  C_3
REMARK    3  A    between atoms: C_3  and  C_4
REMARK    4  A    between atoms: C_4  and  C_6
REMARK    5  A    between atoms: C_4  and  C_7
REMARK    6  A    between atoms: C_11  and  C_20
REMARK    7  A    between atoms: N_22  and  C_23
REMARK    8  A    between atoms: C_23  and  C_24
REMARK    9  A    between atoms: C_27  and  O_30
REMARK   10  A    between atoms: O_30  and  C_31
REMARK                            x       y       z     vdW  Elec       q    Type
REMARK                         _______ _______ _______ _____ _____    ______ ____
ROOT
ATOM      1  C   UNL     1       1.321  -2.780   2.746  0.00  0.00    +0.218 C 
ATOM      2  O   UNL     1       1.604  -2.080   3.695  0.00  0.00    -0.275 OA
ATOM      3  N   UNL     1       1.583  -4.102   2.781  0.00  0.00    -0.300 N 
ATOM      4  C   UNL     1       1.413  -5.091   1.690  0.00  0.00    +0.121 C 
ATOM      5  C   UNL     1       2.642  -6.020   1.811  0.00  0.00    +0.100 C 
ATOM      6  C   UNL     1       3.091  -5.888   3.277  0.00  0.00    -0.004 C 
ATOM      7  C   UNL     1       2.112  -4.894   3.918  0.00  0.00    +0.115 C 
ATOM      8  C   UNL     1       3.007  -7.240   3.978  0.00  0.00    -0.010 C 
ATOM      9  C   UNL     1       3.513  -7.096   5.416  0.00  0.00    -0.082 C 
ATOM     10  N   UNL     1       4.899  -6.614   5.404  0.00  0.00    +0.379 N 
ATOM     11  C   UNL     1       4.957  -5.273   4.810  0.00  0.00    -0.082 C 
ATOM     12  C   UNL     1       4.513  -5.340   3.346  0.00  0.00    -0.010 C 
ATOM     13  H   UNL     1       5.250  -6.578   6.349  0.00  0.00    -0.086 HD
ATOM     14  H   UNL     1       5.468  -7.246   4.860  0.00  0.00    -0.086 HD
ENDROOT
BRANCH   5  15
ATOM     15  C   UNL     1       2.255  -7.444   1.504  0.00  0.00    +0.218 C 
ATOM     16  O   UNL     1       1.127  -7.827   1.729  0.00  0.00    -0.275 OA
ATOM     17  N   UNL     1       3.163  -8.290   0.980  0.00  0.00    -0.311 N 
ATOM     18  H   UNL     1       4.066  -7.983   0.801  0.00  0.00    +0.149 HD
BRANCH  17  19
ATOM     19  C   UNL     1       2.788  -9.675   0.682  0.00  0.00    +0.139 C 
BRANCH  19  20
ATOM     20  C   UNL     1       3.975 -10.405   0.109  0.00  0.00    -0.030 A 
ATOM     21  C   UNL     1       4.191 -10.407  -1.257  0.00  0.00    +0.009 A 
ATOM     22  C   UNL     1       5.278 -11.076  -1.785  0.00  0.00    +0.046 A 
ATOM     23  C   UNL     1       6.154 -11.746  -0.943  0.00  0.00    +0.127 A 
ATOM     24  C   UNL     1       5.935 -11.742   0.427  0.00  0.00    +0.046 A 
ATOM     25  C   UNL     1       4.849 -11.067   0.950  0.00  0.00    +0.009 A 
BRANCH  23  26
ATOM     26  O   UNL     1       7.224 -12.406  -1.460  0.00  0.00    -0.434 OA
BRANCH  26  27
ATOM     27  C   UNL     1       8.083 -13.074  -0.534  0.00  0.00    +0.541 C 
ATOM     28  F   UNL     1       8.614 -12.142   0.365  0.00  0.00    -0.166 F 
ATOM     29  F   UNL     1       7.352 -14.037   0.170  0.00  0.00    -0.166 F 
ENDBRANCH  26  27
ENDBRANCH  23  26
ENDBRANCH  19  20
ENDBRANCH  17  19
ENDBRANCH   5  15
BRANCH   1  30
ATOM     30  C   UNL     1       0.676  -2.172   1.528  0.00  0.00    +0.072 C 
ATOM     31  C   UNL     1       1.761  -1.704   0.556  0.00  0.00    +0.017 C 
BRANCH  30  32
ATOM     32  C   UNL     1      -0.182  -0.977   1.948  0.00  0.00    +0.012 C 
BRANCH  32  34
ATOM     33  C   UNL     1      -1.792   0.759   1.150  0.00  0.00    +0.004 C 
ATOM     34  C   UNL     1      -0.935  -0.436   0.730  0.00  0.00    -0.003 C 
ENDBRANCH  32  34
ENDBRANCH  30  32
ENDBRANCH   1  30
TORSDOF 8
