REMARK  Name = ZINC45697376
REMARK  10 active torsions:
REMARK  status: ('A' for Active; 'I' for Inactive)
REMARK    1  A    between atoms: C_1  and  C_2
REMARK    2  A    between atoms: C_2  and  N_3
REMARK    3  A    between atoms: C_4  and  C_27
REMARK    4  A    between atoms: C_7  and  S_8
REMARK    5  A    between atoms: S_8  and  C_9
REMARK    6  A    between atoms: C_9  and  C_10
REMARK    7  A    between atoms: C_10  and  C_11
REMARK    8  A    between atoms: N_13  and  C_14
REMARK    9  A    between atoms: C_15  and  C_25
REMARK   10  A    between atoms: C_20  and  C_24
REMARK                            x       y       z     vdW  Elec       q    Type
REMARK                         _______ _______ _______ _____ _____    ______ ____
ROOT
ATOM      1  C   UNL     1       7.238  -1.355  -0.657  0.00  0.00    +0.218 C 
ATOM      2  O   UNL     1       7.211  -1.701  -1.819  0.00  0.00    -0.275 OA
ATOM      3  N   UNL     1       8.407  -1.339   0.014  0.00  0.00    -0.279 N 
ATOM      4  H   UNL     1       8.428  -1.062   0.944  0.00  0.00    +0.155 HD
ENDROOT
BRANCH   3   5
ATOM      5  C   UNL     1       9.579  -1.718  -0.625  0.00  0.00    +0.090 A 
ATOM      6  C   UNL     1      10.859  -1.768  -0.096  0.00  0.00    +0.084 A 
ATOM      7  C   UNL     1      11.926  -2.204  -0.980  0.00  0.00    -0.018 A 
ATOM      8  C   UNL     1      11.517  -2.509  -2.231  0.00  0.00    -0.004 A 
ATOM      9  S   UNL     1       9.771  -2.228  -2.213  0.00  0.00    -0.077 S 
ATOM     10  C   UNL     1      12.372  -2.982  -3.366  0.00  0.00    +0.046 C 
ATOM     11  C   UNL     1      13.841  -2.712  -3.009  0.00  0.00    -0.009 C 
ATOM     12  C   UNL     1      14.107  -3.216  -1.587  0.00  0.00    +0.008 C 
ATOM     13  C   UNL     1      13.388  -2.322  -0.575  0.00  0.00    +0.037 C 
ATOM     14  C   UNL     1      14.752  -3.446  -3.994  0.00  0.00    +0.008 C 
BRANCH   6  15
ATOM     15  C   UNL     1      11.118  -1.406   1.264  0.00  0.00    +0.102 C 
ATOM     16  N   UNL     1      11.324  -1.118   2.344  0.00  0.00    -0.191 NA
ENDBRANCH   6  15
ENDBRANCH   3   5
BRANCH   1  17
ATOM     17  C   UNL     1       5.965  -0.943   0.036  0.00  0.00    +0.107 C 
BRANCH  17  18
ATOM     18  C   UNL     1       4.793  -1.051  -0.942  0.00  0.00    +0.086 C 
BRANCH  18  19
ATOM     19  S   UNL     1       3.261  -0.556  -0.107  0.00  0.00    -0.086 S 
BRANCH  19  24
ATOM     20  N   UNL     1       0.688  -0.476  -1.203  0.00  0.00    -0.302 N 
ATOM     21  C   UNL     1       0.123  -0.750  -2.429  0.00  0.00    +0.171 A 
ATOM     22  N   UNL     1       1.095  -1.146  -3.221  0.00  0.00    -0.128 NA
ATOM     23  N   UNL     1       2.211  -1.139  -2.583  0.00  0.00    -0.122 NA
ATOM     24  C   UNL     1       2.023  -0.733  -1.348  0.00  0.00    +0.192 A 
BRANCH  21  25
ATOM     25  C   UNL     1      -1.299  -0.623  -2.786  0.00  0.00    +0.056 A 
ATOM     26  C   UNL     1      -1.882  -0.613  -4.028  0.00  0.00    +0.019 A 
ATOM     27  C   UNL     1      -3.249  -0.481  -4.115  0.00  0.00    +0.008 A 
ATOM     28  C   UNL     1      -3.978  -0.366  -2.975  0.00  0.00    +0.046 A 
ATOM     29  S   UNL     1      -2.717  -0.450  -1.714  0.00  0.00    -0.094 S 
ENDBRANCH  21  25
BRANCH  20  31
ATOM     30  C   UNL     1      -0.019   1.526   0.010  0.00  0.00    +0.027 C 
ATOM     31  C   UNL     1       0.002  -0.004   0.002  0.00  0.00    +0.122 C 
ENDBRANCH  20  31
ENDBRANCH  19  24
ENDBRANCH  18  19
ENDBRANCH  17  18
ENDBRANCH   1  17
TORSDOF 8
