REMARK  Name = ZINC17059620
REMARK  8 active torsions:
REMARK  status: ('A' for Active; 'I' for Inactive)
REMARK    1  A    between atoms: C_1  and  C_2
REMARK    2  A    between atoms: C_5  and  C_8
REMARK    3  A    between atoms: C_11  and  S_20
REMARK    4  A    between atoms: N_12  and  C_13
REMARK    5  A    between atoms: C_16  and  C_19
REMARK    6  A    between atoms: S_20  and  C_21
REMARK    7  A    between atoms: C_21  and  C_23
REMARK    8  A    between atoms: C_21  and  C_24
REMARK                            x       y       z     vdW  Elec       q    Type
REMARK                         _______ _______ _______ _____ _____    ______ ____
ROOT
ATOM      1  C   UNL     1       3.749   2.480   2.759  0.00  0.00    +0.169 A 
ATOM      2  N   UNL     1       3.201   3.071   1.723  0.00  0.00    -0.128 NA
ATOM      3  N   UNL     1       1.959   2.751   1.640  0.00  0.00    -0.122 NA
ATOM      4  C   UNL     1       1.634   1.942   2.623  0.00  0.00    +0.197 A 
ATOM      5  N   UNL     1       2.763   1.737   3.369  0.00  0.00    -0.270 N 
ENDROOT
BRANCH   1  10
ATOM      6  C   UNL     1       9.237   2.914   4.435  0.00  0.00    +0.044 C 
ATOM      7  C   UNL     1       7.800   2.800   3.996  0.00  0.00    -0.050 A 
ATOM      8  C   UNL     1       7.018   1.758   4.461  0.00  0.00    +0.004 A 
ATOM      9  C   UNL     1       5.702   1.648   4.063  0.00  0.00    +0.012 A 
ATOM     10  C   UNL     1       5.159   2.591   3.189  0.00  0.00    +0.020 A 
ATOM     11  C   UNL     1       5.955   3.638   2.719  0.00  0.00    +0.012 A 
ATOM     12  C   UNL     1       7.268   3.739   3.130  0.00  0.00    +0.004 A 
ENDBRANCH   1  10
BRANCH   5  13
ATOM     13  C   UNL     1       2.889   0.938   4.514  0.00  0.00    +0.051 A 
ATOM     14  C   UNL     1       3.126   1.526   5.749  0.00  0.00    +0.026 A 
ATOM     15  C   UNL     1       3.245   0.736   6.876  0.00  0.00    +0.005 A 
ATOM     16  C   UNL     1       3.139  -0.639   6.774  0.00  0.00    -0.050 A 
ATOM     17  C   UNL     1       2.908  -1.227   5.544  0.00  0.00    +0.005 A 
ATOM     18  C   UNL     1       2.783  -0.443   4.414  0.00  0.00    +0.026 A 
ATOM     19  C   UNL     1       3.275  -1.498   8.004  0.00  0.00    +0.044 C 
ENDBRANCH   5  13
BRANCH   4  20
ATOM     20  S   UNL     1       0.044   1.244   2.921  0.00  0.00    -0.073 S 
BRANCH  20  21
ATOM     21  C   UNL     1      -0.881   1.971   1.546  0.00  0.00    +0.137 C 
ATOM     22  C   UNL     1      -0.329   1.438   0.222  0.00  0.00    +0.029 C 
BRANCH  21  23
ATOM     23  C   UNL     1      -2.337   1.601   1.668  0.00  0.00    +0.233 C 
ATOM     24  O   UNL     1      -2.666   0.650   2.345  0.00  0.00    -0.274 OA
ATOM     25  N   UNL     1      -3.273   2.326   1.024  0.00  0.00    -0.260 N 
ATOM     26  C   UNL     1      -2.900   3.483   0.196  0.00  0.00    +0.209 C 
ATOM     27  C   UNL     1      -3.877   4.602   0.447  0.00  0.00    +0.235 C 
ATOM     28  O   UNL     1      -3.515   5.753   0.322  0.00  0.00    -0.274 OA
ATOM     29  N   UNL     1      -5.148   4.341   0.808  0.00  0.00    -0.283 N 
ATOM     30  C   UNL     1      -5.578   3.024   1.008  0.00  0.00    +0.055 A 
ATOM     31  C   UNL     1      -4.634   1.998   1.117  0.00  0.00    +0.058 A 
ATOM     32  C   UNL     1      -5.042   0.692   1.315  0.00  0.00    +0.025 A 
ATOM     33  C   UNL     1      -6.392   0.399   1.399  0.00  0.00    +0.002 A 
ATOM     34  C   UNL     1      -7.330   1.408   1.283  0.00  0.00    +0.002 A 
ATOM     35  C   UNL     1      -6.928   2.725   1.095  0.00  0.00    +0.025 A 
ATOM     36  H   UNL     1      -5.772   5.073   0.931  0.00  0.00    +0.155 HD
ENDBRANCH  21  23
ENDBRANCH  20  21
ENDBRANCH   4  20
TORSDOF 5
