REMARK  Name = ZINC35000878
REMARK  14 active torsions:
REMARK  status: ('A' for Active; 'I' for Inactive)
REMARK    1  A    between atoms: C_1  and  C_2
REMARK    2  A    between atoms: C_2  and  C_3
REMARK    3  A    between atoms: C_6  and  N_9
REMARK    4  A    between atoms: N_15  and  C_18
REMARK    5  A    between atoms: C_18  and  C_19
REMARK    6  A    between atoms: C_19  and  N_20
REMARK    7  A    between atoms: N_20  and  C_21
REMARK    8  A    between atoms: C_21  and  C_22
REMARK    9  A    between atoms: C_30  and  C_31
REMARK   10  A    between atoms: C_30  and  C_32
REMARK   11  A    between atoms: N_35  and  C_36
REMARK   12  A    between atoms: C_36  and  C_37
REMARK   13  A    between atoms: C_36  and  C_38
REMARK   14  A    between atoms: C_36  and  C_39
REMARK                            x       y       z     vdW  Elec       q    Type
REMARK                         _______ _______ _______ _____ _____    ______ ____
ROOT
ATOM      1  C   UNL     1       6.075  -5.110  -8.549  0.00  0.00    -0.059 C 
ENDROOT
BRANCH   1   8
ATOM      2  N   UNL     1       2.655  -1.869  -4.657  0.00  0.00    -0.269 N 
ATOM      3  C   UNL     1       4.000  -1.950  -4.675  0.00  0.00    +0.306 C 
ATOM      4  O   UNL     1       4.637  -1.718  -3.666  0.00  0.00    -0.252 OA
ATOM      5  N   UNL     1       4.639  -2.288  -5.813  0.00  0.00    -0.289 N 
ATOM      6  C   UNL     1       3.906  -2.422  -7.081  0.00  0.00    +0.091 C 
ATOM      7  C   UNL     1       4.271  -3.769  -7.713  0.00  0.00    -0.059 C 
ATOM      8  N   UNL     1       5.731  -3.868  -7.844  0.00  0.00    +0.383 N 
ATOM      9  C   UNL     1       6.352  -3.874  -6.513  0.00  0.00    -0.059 C 
ATOM     10  C   UNL     1       6.091  -2.526  -5.823  0.00  0.00    +0.091 C 
ATOM     11  H   UNL     1       2.139  -2.185  -5.415  0.00  0.00    +0.156 HD
ATOM     12  H   UNL     1       6.074  -3.079  -8.370  0.00  0.00    -0.082 HD
BRANCH   2  16
ATOM     13  C   UNL     1       0.711  -0.264  -1.340  0.00  0.00    -0.048 A 
ATOM     14  C   UNL     1       0.112  -0.206  -2.585  0.00  0.00    +0.005 A 
ATOM     15  C   UNL     1       0.754  -0.738  -3.687  0.00  0.00    +0.023 A 
ATOM     16  C   UNL     1       2.002  -1.329  -3.543  0.00  0.00    +0.035 A 
ATOM     17  C   UNL     1       2.600  -1.385  -2.291  0.00  0.00    +0.023 A 
ATOM     18  C   UNL     1       1.956  -0.847  -1.194  0.00  0.00    +0.005 A 
BRANCH  13  20
ATOM     19  C   UNL     1       0.396   1.788   0.016  0.00  0.00    +0.009 C 
ATOM     20  C   UNL     1       0.007   0.317  -0.140  0.00  0.00    +0.032 C 
ENDBRANCH  13  20
ENDBRANCH   2  16
ENDBRANCH   1   8
BRANCH   1  21
ATOM     21  C   UNL     1       7.584  -5.154  -8.796  0.00  0.00    +0.091 C 
BRANCH  21  22
ATOM     22  N   UNL     1       7.927  -6.393  -9.499  0.00  0.00    -0.283 N 
ATOM     23  C   UNL     1       8.237  -7.502  -8.798  0.00  0.00    +0.303 C 
ATOM     24  O   UNL     1       8.521  -8.530  -9.382  0.00  0.00    -0.253 OA
ATOM     25  N   UNL     1       8.231  -7.471  -7.451  0.00  0.00    -0.294 N 
ATOM     26  H   UNL     1       8.003  -6.651  -6.985  0.00  0.00    +0.151 HD
BRANCH  25  27
ATOM     27  C   UNL     1       8.567  -8.677  -6.689  0.00  0.00    +0.028 C 
ATOM     28  C   UNL     1       9.987  -9.123  -7.043  0.00  0.00    +0.031 C 
ATOM     29  C   UNL     1       8.485  -8.373  -5.192  0.00  0.00    +0.031 C 
ATOM     30  C   UNL     1       7.580  -9.793  -7.038  0.00  0.00    +0.031 C 
ENDBRANCH  25  27
BRANCH  22  31
ATOM     31  C   UNL     1       7.934  -6.426 -10.963  0.00  0.00    +0.140 C 
BRANCH  31  32
ATOM     32  C   UNL     1       9.305  -6.057 -11.468  0.00  0.00    -0.053 C 
ATOM     33  C   UNL     1      10.192  -6.977 -11.768  0.00  0.00    -0.025 C 
ATOM     34  C   UNL     1      11.558  -6.565 -12.262  0.00  0.00    +0.031 C 
ATOM     35  C   UNL     1      11.619  -5.037 -12.396  0.00  0.00    -0.000 C 
ATOM     36  C   UNL     1      10.371  -4.447 -13.074  0.00  0.00    +0.012 C 
ATOM     37  C   UNL     1       9.712  -4.606 -11.655  0.00  0.00    +0.022 C 
ATOM     38  C   UNL     1      11.132  -4.353 -11.103  0.00  0.00    -0.025 C 
ATOM     39  C   UNL     1      11.504  -2.872 -11.008  0.00  0.00    +0.012 C 
ATOM     40  C   UNL     1      11.453  -5.137  -9.829  0.00  0.00    +0.012 C 
ENDBRANCH  31  32
ENDBRANCH  22  31
ENDBRANCH  21  22
ENDBRANCH   1  21
TORSDOF 8
