REMARK  Name = ZINC05447516
REMARK  7 active torsions:
REMARK  status: ('A' for Active; 'I' for Inactive)
REMARK    1  A    between atoms: C_1  and  O_2
REMARK    2  A    between atoms: O_2  and  C_3
REMARK    3  A    between atoms: C_3  and  C_4
REMARK    4  A    between atoms: C_4  and  C_5
REMARK    5  A    between atoms: C_8  and  C_10
REMARK    6  A    between atoms: C_8  and  O_14
REMARK    7  A    between atoms: C_18  and  C_21
REMARK                            x       y       z     vdW  Elec       q    Type
REMARK                         _______ _______ _______ _____ _____    ______ ____
ROOT
ATOM      1  C   UNL     1       1.825   5.512   0.014  0.00  0.00    +0.044 C 
ATOM      2  N   UNL     1       2.129   4.279   0.010  0.00  0.00    -0.184 NA
ATOM      3  N   UNL     1       1.037   3.414   0.010  0.00  0.00    -0.165 N 
ATOM      4  C   UNL     1      -0.199   4.215   0.026  0.00  0.00    +0.255 C 
ATOM      5  C   UNL     1       0.321   5.667   0.029  0.00  0.00    +0.119 C 
ATOM      6  C   UNL     1       1.102   2.025   0.002  0.00  0.00    +0.162 A 
ATOM      7  C   UNL     1       2.343   1.393  -0.013  0.00  0.00    +0.083 A 
ATOM      8  C   UNL     1       2.392   0.010  -0.020  0.00  0.00    +0.037 A 
ATOM      9  C   UNL     1       1.196  -0.696  -0.013  0.00  0.00    +0.074 A 
ATOM     10  C   UNL     1       0.002  -0.004   0.002  0.00  0.00    +0.125 A 
ATOM     11  N   UNL     1      -0.016   1.315   0.009  0.00  0.00    -0.237 NA
ATOM     12 CL   UNL     1       3.806   2.326  -0.021  0.00  0.00    -0.080 Cl
ENDROOT
BRANCH   4  13
ATOM     13  C   UNL     1      -1.011   3.930   1.290  0.00  0.00    +0.438 C 
ATOM     14  F   UNL     1      -0.236   4.222   2.418  0.00  0.00    -0.166 F 
ATOM     15  F   UNL     1      -2.161   4.727   1.296  0.00  0.00    -0.166 F 
ATOM     16  F   UNL     1      -1.379   2.580   1.314  0.00  0.00    -0.166 F 
ENDBRANCH   4  13
BRANCH   9  17
ATOM     17  C   UNL     1       1.202  -2.203  -0.021  0.00  0.00    +0.419 C 
ATOM     18  F   UNL     1      -0.115  -2.675  -0.011  0.00  0.00    -0.166 F 
ATOM     19  F   UNL     1       1.853  -2.661  -1.172  0.00  0.00    -0.166 F 
ATOM     20  F   UNL     1       1.874  -2.673   1.113  0.00  0.00    -0.166 F 
ENDBRANCH   9  17
BRANCH   4  21
ATOM     21  O   UNL     1      -0.979   3.961  -1.144  0.00  0.00    -0.363 OA
ATOM     22  H   UNL     1      -1.270   3.043  -1.232  0.00  0.00    +0.212 HD
ENDBRANCH   4  21
BRANCH   1  23
ATOM     23  C   UNL     1       2.814   6.649   0.011  0.00  0.00    +0.080 C 
BRANCH  23  24
ATOM     24  C   UNL     1       4.237   6.087  -0.005  0.00  0.00    +0.165 C 
BRANCH  24  26
ATOM     25  C   UNL     1       6.541   6.747  -0.022  0.00  0.00    +0.194 C 
ATOM     26  O   UNL     1       5.175   7.165  -0.008  0.00  0.00    -0.383 OA
ENDBRANCH  24  26
ENDBRANCH  23  24
ENDBRANCH   1  23
TORSDOF 6
