REMARK  Name = ZINC38793476
REMARK  8 active torsions:
REMARK  status: ('A' for Active; 'I' for Inactive)
REMARK    1  A    between atoms: C_1  and  C_2
REMARK    2  A    between atoms: C_2  and  C_4
REMARK    3  A    between atoms: C_2  and  S_15
REMARK    4  A    between atoms: N_6  and  C_7
REMARK    5  A    between atoms: C_10  and  C_13
REMARK    6  A    between atoms: S_15  and  C_16
REMARK    7  A    between atoms: C_20  and  C_29
REMARK    8  A    between atoms: N_21  and  C_22
REMARK                            x       y       z     vdW  Elec       q    Type
REMARK                         _______ _______ _______ _____ _____    ______ ____
ROOT
ATOM      1  C   UNL     1      -0.298  -0.278   2.311  0.00  0.00    +0.242 C 
ATOM      2  N   UNL     1      -0.255   1.189   2.431  0.00  0.00    -0.237 N 
ATOM      3  N   UNL     1      -1.540   1.595   2.810  0.00  0.00    -0.169 NA
ATOM      4  C   UNL     1      -2.344   0.572   2.934  0.00  0.00    +0.151 C 
ATOM      5  N   UNL     1      -1.686  -0.632   2.652  0.00  0.00    -0.254 N 
ATOM      6  H   UNL     1       0.512   1.762   2.277  0.00  0.00    +0.171 HD
ENDROOT
BRANCH   4   7
ATOM      7  C   UNL     1      -3.695   0.667   3.303  0.00  0.00    +0.022 C 
ATOM      8  C   UNL     1      -4.429   1.833   3.524  0.00  0.00    +0.006 A 
ATOM      9  C   UNL     1      -4.088   3.201   3.456  0.00  0.00    +0.010 A 
ATOM     10  C   UNL     1      -5.028   4.143   3.728  0.00  0.00    +0.001 A 
ATOM     11  C   UNL     1      -6.334   3.793   4.077  0.00  0.00    +0.002 A 
ATOM     12  C   UNL     1      -6.730   2.499   4.162  0.00  0.00    +0.026 A 
ATOM     13  C   UNL     1      -5.804   1.459   3.891  0.00  0.00    +0.043 A 
ATOM     14  N   UNL     1      -5.938   0.147   3.903  0.00  0.00    -0.380 N 
ATOM     15  C   UNL     1      -4.661  -0.473   3.538  0.00  0.00    +0.152 C 
ATOM     16  H   UNL     1      -6.754  -0.332   4.116  0.00  0.00    +0.160 HD
ENDBRANCH   4   7
BRANCH   5  17
ATOM     17  C   UNL     1      -2.236  -1.916   2.687  0.00  0.00    +0.038 A 
ATOM     18  C   UNL     1      -3.038  -2.358   1.642  0.00  0.00    +0.025 A 
ATOM     19  C   UNL     1      -3.580  -3.627   1.679  0.00  0.00    +0.022 A 
ATOM     20  C   UNL     1      -3.326  -4.459   2.755  0.00  0.00    +0.041 A 
ATOM     21  C   UNL     1      -2.528  -4.021   3.797  0.00  0.00    +0.022 A 
ATOM     22  C   UNL     1      -1.978  -2.755   3.763  0.00  0.00    +0.025 A 
ATOM     23 CL   UNL     1      -4.010  -6.054   2.798  0.00  0.00    -0.084 Cl
ENDBRANCH   5  17
BRANCH   1  24
ATOM     24  S   UNL     1       0.088  -0.788   0.614  0.00  0.00    -0.105 S 
BRANCH  24  26
ATOM     25  C   UNL     1      -0.908   1.592  -0.296  0.00  0.00    +0.029 C 
ATOM     26  C   UNL     1      -1.141   0.083  -0.396  0.00  0.00    +0.133 C 
BRANCH  26  27
ATOM     27  C   UNL     1      -1.009  -0.351  -1.833  0.00  0.00    +0.230 C 
ATOM     28  O   UNL     1       0.019  -0.865  -2.220  0.00  0.00    -0.274 OA
ATOM     29  N   UNL     1      -2.034  -0.170  -2.689  0.00  0.00    -0.285 N 
ATOM     30  H   UNL     1      -2.880   0.178  -2.366  0.00  0.00    +0.155 HD
BRANCH  29  31
ATOM     31  C   UNL     1      -1.879  -0.482  -4.040  0.00  0.00    +0.033 A 
ATOM     32  C   UNL     1      -1.102  -1.573  -4.415  0.00  0.00    +0.024 A 
ATOM     33  C   UNL     1      -0.946  -1.884  -5.748  0.00  0.00    +0.020 A 
ATOM     34  C   UNL     1      -1.570  -1.102  -6.724  0.00  0.00    +0.052 A 
ATOM     35  C   UNL     1      -2.350  -0.006  -6.343  0.00  0.00    +0.020 A 
ATOM     36  C   UNL     1      -2.506   0.295  -5.009  0.00  0.00    +0.024 A 
BRANCH  34  37
ATOM     37  C   UNL     1      -1.410  -1.422  -8.110  0.00  0.00    +0.099 C 
ATOM     38  N   UNL     1      -1.282  -1.676  -9.210  0.00  0.00    -0.191 NA
ENDBRANCH  34  37
ENDBRANCH  29  31
ENDBRANCH  26  27
ENDBRANCH  24  26
ENDBRANCH   1  24
TORSDOF 7
