REMARK  Name = ZINC36597145
REMARK  17 active torsions:
REMARK  status: ('A' for Active; 'I' for Inactive)
REMARK    1  A    between atoms: C_1  and  C_2
REMARK    2  A    between atoms: C_5  and  C_7
REMARK    3  A    between atoms: C_7  and  N_8
REMARK    4  A    between atoms: N_8  and  C_9
REMARK    5  A    between atoms: C_9  and  C_11
REMARK    6  A    between atoms: C_9  and  C_18
REMARK    7  A    between atoms: C_14  and  O_17
REMARK    8  A    between atoms: N_20  and  C_21
REMARK    9  A    between atoms: C_21  and  C_22
REMARK   10  A    between atoms: C_21  and  C_23
REMARK   11  A    between atoms: C_21  and  C_24
REMARK   12  A    between atoms: C_24  and  C_25
REMARK   13  A    between atoms: C_25  and  C_26
REMARK   14  A    between atoms: C_25  and  C_27
REMARK   15  A    between atoms: C_25  and  C_28
REMARK   16  A    between atoms: C_29  and  C_31
REMARK   17  A    between atoms: C_34  and  O_37
REMARK                            x       y       z     vdW  Elec       q    Type
REMARK                         _______ _______ _______ _____ _____    ______ ____
ROOT
ATOM      1  C   UNL     1       2.345  -3.209  -2.382  0.00  0.00    +0.193 C 
ENDROOT
BRANCH   1   2
ATOM      2  C   UNL     1       3.551  -3.995  -1.936  0.00  0.00    -0.018 A 
ATOM      3  C   UNL     1       3.896  -4.028  -0.597  0.00  0.00    +0.009 A 
ATOM      4  C   UNL     1       5.002  -4.747  -0.185  0.00  0.00    +0.046 A 
ATOM      5  C   UNL     1       5.765  -5.436  -1.116  0.00  0.00    +0.117 A 
ATOM      6  C   UNL     1       5.416  -5.402  -2.458  0.00  0.00    +0.046 A 
ATOM      7  C   UNL     1       4.307  -4.686  -2.864  0.00  0.00    +0.009 A 
BRANCH   5   8
ATOM      8  O   UNL     1       6.853  -6.144  -0.714  0.00  0.00    -0.507 OA
ATOM      9  H   UNL     1       6.662  -7.064  -0.483  0.00  0.00    +0.292 HD
ENDBRANCH   5   8
ENDBRANCH   1   2
BRANCH   1  10
ATOM     10  C   UNL     1       2.783  -1.858  -2.884  0.00  0.00    +0.239 C 
ATOM     11  O   UNL     1       2.393  -0.851  -2.332  0.00  0.00    -0.273 OA
ATOM     12  N   UNL     1       3.609  -1.768  -3.945  0.00  0.00    -0.308 N 
ATOM     13  H   UNL     1       3.921  -2.574  -4.386  0.00  0.00    +0.149 HD
BRANCH  12  14
ATOM     14  C   UNL     1       4.035  -0.454  -4.433  0.00  0.00    +0.030 C 
ATOM     15  C   UNL     1       2.856   0.244  -5.114  0.00  0.00    +0.031 C 
ATOM     16  C   UNL     1       4.518   0.395  -3.255  0.00  0.00    +0.031 C 
BRANCH  14  17
ATOM     17  C   UNL     1       5.175  -0.628  -5.438  0.00  0.00    +0.031 C 
BRANCH  17  18
ATOM     18  C   UNL     1       6.145  -1.696  -4.928  0.00  0.00    -0.036 C 
ATOM     19  C   UNL     1       5.454  -3.061  -4.944  0.00  0.00    +0.010 C 
ATOM     20  C   UNL     1       7.378  -1.738  -5.833  0.00  0.00    +0.010 C 
ATOM     21  C   UNL     1       6.572  -1.357  -3.499  0.00  0.00    +0.010 C 
ENDBRANCH  17  18
ENDBRANCH  14  17
ENDBRANCH  12  14
ENDBRANCH   1  10
BRANCH   1  22
ATOM     22  N   UNL     1       1.428  -3.037  -1.252  0.00  0.00    -0.275 N 
ATOM     23  C   UNL     1       0.797  -4.107  -0.727  0.00  0.00    +0.248 C 
ATOM     24  O   UNL     1       0.083  -3.973   0.247  0.00  0.00    -0.270 OA
BRANCH  23  25
ATOM     25  C   UNL     1       0.974  -5.440  -1.336  0.00  0.00    +0.037 A 
ATOM     26  C   UNL     1       1.857  -5.610  -2.405  0.00  0.00    +0.016 A 
ATOM     27  C   UNL     1       2.019  -6.856  -2.970  0.00  0.00    +0.046 A 
ATOM     28  C   UNL     1       1.305  -7.942  -2.478  0.00  0.00    +0.117 A 
ATOM     29  C   UNL     1       0.426  -7.777  -1.414  0.00  0.00    +0.046 A 
ATOM     30  C   UNL     1       0.263  -6.536  -0.840  0.00  0.00    +0.016 A 
BRANCH  28  31
ATOM     31  O   UNL     1       1.467  -9.168  -3.038  0.00  0.00    -0.507 OA
ATOM     32  H   UNL     1       2.169  -9.696  -2.632  0.00  0.00    +0.292 HD
ENDBRANCH  28  31
ENDBRANCH  23  25
BRANCH  22  33
ATOM     33  C   UNL     1       1.198  -1.703  -0.693  0.00  0.00    +0.183 C 
BRANCH  33  38
ATOM     34  C   UNL     1      -1.238   1.198  -4.023  0.00  0.00    +0.086 C 
ATOM     35  C   UNL     1      -0.978   0.233  -2.895  0.00  0.00    +0.102 A 
ATOM     36  C   UNL     1      -1.917  -0.371  -2.145  0.00  0.00    +0.045 A 
ATOM     37  C   UNL     1      -1.234  -1.185  -1.211  0.00  0.00    +0.046 A 
ATOM     38  C   UNL     1       0.081  -1.028  -1.447  0.00  0.00    +0.122 A 
ATOM     39  O   UNL     1       0.230  -0.173  -2.471  0.00  0.00    -0.463 OA
ENDBRANCH  33  38
ENDBRANCH  22  33
ENDBRANCH   1  22
TORSDOF 11
