REMARK  Name = ZINC36559316
REMARK  6 active torsions:
REMARK  status: ('A' for Active; 'I' for Inactive)
REMARK    1  A    between atoms: C_1  and  N_2
REMARK    2  A    between atoms: N_2  and  C_3
REMARK    3  A    between atoms: N_2  and  S_10
REMARK    4  A    between atoms: C_3  and  C_4
REMARK    5  A    between atoms: S_10  and  C_13
REMARK    6  A    between atoms: C_26  and  C_29
REMARK                            x       y       z     vdW  Elec       q    Type
REMARK                         _______ _______ _______ _____ _____    ______ ____
ROOT
ATOM      1  C   UNL     1       1.554  -1.549  -1.763  0.00  0.00    +0.106 A 
ATOM      2  C   UNL     1       2.091  -0.510  -2.502  0.00  0.00    +0.030 A 
ATOM      3  C   UNL     1       3.410  -0.554  -2.902  0.00  0.00    +0.025 A 
ATOM      4  C   UNL     1       4.211  -1.638  -2.565  0.00  0.00    +0.031 A 
ATOM      5  C   UNL     1       3.665  -2.680  -1.807  0.00  0.00    -0.018 A 
ATOM      6  C   UNL     1       2.345  -2.629  -1.414  0.00  0.00    +0.034 A 
ATOM      7  C   UNL     1       4.561  -3.797  -1.436  0.00  0.00    +0.049 C 
ATOM      8  C   UNL     1       4.044  -5.165  -1.179  0.00  0.00    -0.023 C 
ATOM      9  C   UNL     1       4.975  -6.043  -1.532  0.00  0.00    -0.030 C 
ATOM     10  C   UNL     1       6.196  -5.313  -2.096  0.00  0.00    +0.033 C 
ATOM     11  C   UNL     1       5.550  -4.027  -2.617  0.00  0.00    +0.029 C 
ATOM     12  C   UNL     1       6.436  -2.794  -2.650  0.00  0.00    +0.105 C 
ATOM     13  N   UNL     1       5.541  -1.670  -3.001  0.00  0.00    -0.336 N 
ATOM     14  H   UNL     1       5.882  -0.941  -3.543  0.00  0.00    +0.147 HD
ENDROOT
BRANCH  12  15
ATOM     15  C   UNL     1       7.059  -2.565  -1.297  0.00  0.00    -0.027 A 
ATOM     16  C   UNL     1       8.271  -3.151  -0.987  0.00  0.00    +0.005 A 
ATOM     17  C   UNL     1       8.843  -2.941   0.254  0.00  0.00    +0.000 A 
ATOM     18  C   UNL     1       8.203  -2.143   1.184  0.00  0.00    +0.000 A 
ATOM     19  C   UNL     1       6.990  -1.556   0.873  0.00  0.00    +0.000 A 
ATOM     20  C   UNL     1       6.421  -1.763  -0.369  0.00  0.00    +0.005 A 
ENDBRANCH  12  15
BRANCH   1  21
ATOM     21  S   UNL     1      -0.134  -1.494  -1.261  0.00  0.00    +0.061 S 
ATOM     22  O   UNL     1      -0.536  -2.839  -1.042  0.00  0.00    -0.153 OA
ATOM     23  O   UNL     1      -0.802  -0.639  -2.178  0.00  0.00    -0.153 OA
BRANCH  21  25
ATOM     24  C   UNL     1      -0.339   0.715   0.285  0.00  0.00    +0.132 C 
ATOM     25  N   UNL     1      -0.182  -0.740   0.212  0.00  0.00    -0.175 NA
BRANCH  25  26
ATOM     26  C   UNL     1      -0.068  -1.526   1.442  0.00  0.00    +0.144 C 
BRANCH  26  27
ATOM     27  C   UNL     1      -1.446  -1.846   1.963  0.00  0.00    -0.032 A 
ATOM     28  C   UNL     1      -2.070  -0.981   2.842  0.00  0.00    +0.005 A 
ATOM     29  C   UNL     1      -3.333  -1.274   3.321  0.00  0.00    +0.000 A 
ATOM     30  C   UNL     1      -3.973  -2.432   2.919  0.00  0.00    +0.000 A 
ATOM     31  C   UNL     1      -3.349  -3.297   2.040  0.00  0.00    +0.000 A 
ATOM     32  C   UNL     1      -2.087  -3.002   1.558  0.00  0.00    +0.005 A 
ENDBRANCH  26  27
ENDBRANCH  25  26
ENDBRANCH  21  25
ENDBRANCH   1  21
TORSDOF 5
