REMARK  Name = ZINC03098484
REMARK  6 active torsions:
REMARK  status: ('A' for Active; 'I' for Inactive)
REMARK    1  A    between atoms: C_1  and  C_2
REMARK    2  A    between atoms: C_3  and  C_24
REMARK    3  A    between atoms: C_4  and  C_14
REMARK    4  A    between atoms: C_24  and  O_26
REMARK    5  A    between atoms: O_26  and  C_27
REMARK    6  A    between atoms: C_27  and  C_28
REMARK                            x       y       z     vdW  Elec       q    Type
REMARK                         _______ _______ _______ _____ _____    ______ ____
ROOT
ATOM      1  C   UNL     1      -0.018   1.503   0.010  0.00  0.00    +0.061 C 
ATOM      2  C   UNL     1       0.002  -0.004   0.002  0.00  0.00    +0.016 C 
ATOM      3  C   UNL     1      -1.155  -0.687   0.004  0.00  0.00    +0.065 C 
ATOM      4  C   UNL     1      -1.174  -2.188  -0.012  0.00  0.00    +0.094 C 
ATOM      5  C   UNL     1       0.164  -2.749   0.399  0.00  0.00    +0.024 C 
ATOM      6  C   UNL     1       1.272  -1.979   0.376  0.00  0.00    +0.015 C 
ATOM      7  N   UNL     1       1.198  -0.667  -0.013  0.00  0.00    -0.321 N 
ATOM      8  C   UNL     1       2.616  -2.539   0.768  0.00  0.00    +0.051 C 
ATOM      9  C   UNL     1       2.429  -3.633   1.822  0.00  0.00    +0.014 C 
ATOM     10  C   UNL     1       1.521  -4.720   1.240  0.00  0.00    +0.080 C 
ATOM     11  C   UNL     1       0.224  -4.094   0.806  0.00  0.00    +0.162 C 
ATOM     12  O   UNL     1      -0.791  -4.762   0.808  0.00  0.00    -0.292 OA
ATOM     13  H   UNL     1       2.000  -0.203  -0.298  0.00  0.00    +0.152 HD
ENDROOT
BRANCH   4  14
ATOM     14  C   UNL     1      -1.503  -2.664  -1.404  0.00  0.00    -0.013 A 
ATOM     15  C   UNL     1      -0.677  -2.328  -2.461  0.00  0.00    +0.055 A 
ATOM     16  C   UNL     1      -0.977  -2.765  -3.741  0.00  0.00    +0.167 A 
ATOM     17  C   UNL     1      -2.112  -3.542  -3.960  0.00  0.00    +0.168 A 
ATOM     18  C   UNL     1      -2.935  -3.876  -2.897  0.00  0.00    +0.069 A 
ATOM     19  C   UNL     1      -2.627  -3.441  -1.620  0.00  0.00    +0.049 A 
ATOM     20 CL   UNL     1      -3.656  -3.865  -0.288  0.00  0.00    -0.083 Cl
ATOM     21  O   UNL     1      -2.186  -3.841  -5.290  0.00  0.00    -0.453 OA
ATOM     22  C   UNL     1      -1.314  -2.901  -5.944  0.00  0.00    +0.466 C 
ATOM     23  O   UNL     1      -0.341  -2.576  -4.934  0.00  0.00    -0.453 OA
ENDBRANCH   4  14
BRANCH   3  24
ATOM     24  C   UNL     1      -2.380   0.021   0.021  0.00  0.00    +0.338 C 
ATOM     25  O   UNL     1      -2.378   1.238   0.035  0.00  0.00    -0.245 OA
BRANCH  24  26
ATOM     26  O   UNL     1      -3.549  -0.652   0.024  0.00  0.00    -0.457 OA
BRANCH  26  27
ATOM     27  C   UNL     1      -4.746   0.128   0.042  0.00  0.00    +0.268 C 
BRANCH  27  28
ATOM     28  C   UNL     1      -5.943  -0.789   0.041  0.00  0.00    -0.010 A 
ATOM     29  C   UNL     1      -6.498  -1.200  -1.156  0.00  0.00    +0.007 A 
ATOM     30  C   UNL     1      -7.595  -2.041  -1.157  0.00  0.00    +0.000 A 
ATOM     31  C   UNL     1      -8.137  -2.470   0.040  0.00  0.00    +0.000 A 
ATOM     32  C   UNL     1      -7.582  -2.059   1.238  0.00  0.00    +0.000 A 
ATOM     33  C   UNL     1      -6.482  -1.222   1.238  0.00  0.00    +0.007 A 
ENDBRANCH  27  28
ENDBRANCH  26  27
ENDBRANCH  24  26
ENDBRANCH   3  24
TORSDOF 5
