REMARK  Name = ZINC04089447
REMARK  7 active torsions:
REMARK  status: ('A' for Active; 'I' for Inactive)
REMARK    1  A    between atoms: C_1  and  C_2
REMARK    2  A    between atoms: C_10  and  C_28
REMARK    3  A    between atoms: C_15  and  C_16
REMARK    4  A    between atoms: C_16  and  C_17
REMARK    5  A    between atoms: C_17  and  C_18
REMARK    6  A    between atoms: N_20  and  C_21
REMARK    7  A    between atoms: C_21  and  C_22
REMARK                            x       y       z     vdW  Elec       q    Type
REMARK                         _______ _______ _______ _____ _____    ______ ____
ROOT
ATOM      1  C   UNL     1      -2.950   7.288   6.911  0.00  0.00    +0.045 C 
ATOM      2  C   UNL     1      -2.674   6.230   7.948  0.00  0.00    -0.030 A 
ATOM      3  C   UNL     1      -2.138   6.582   9.268  0.00  0.00    +0.022 A 
ATOM      4  C   UNL     1      -1.873   7.912   9.593  0.00  0.00    +0.023 A 
ATOM      5  C   UNL     1      -1.365   8.219  10.848  0.00  0.00    +0.025 A 
ATOM      6  C   UNL     1      -0.977   9.457  11.523  0.00  0.00    +0.001 A 
ATOM      7  C   UNL     1      -0.551   9.113  12.748  0.00  0.00    +0.109 A 
ATOM      8  O   UNL     1      -0.636   7.780  12.902  0.00  0.00    -0.459 OA
ATOM      9  C   UNL     1      -1.121   7.193  11.787  0.00  0.00    +0.142 A 
ATOM     10  C   UNL     1      -1.389   5.875  11.455  0.00  0.00    +0.035 A 
ATOM     11  C   UNL     1      -1.895   5.557  10.204  0.00  0.00    +0.146 A 
ATOM     12  O   UNL     1      -2.152   4.270   9.889  0.00  0.00    -0.422 OA
ATOM     13  C   UNL     1      -2.646   3.955   8.688  0.00  0.00    +0.341 A 
ATOM     14  O   UNL     1      -2.872   2.784   8.441  0.00  0.00    -0.245 OA
ATOM     15  C   UNL     1      -2.912   4.917   7.693  0.00  0.00    +0.041 A 
ATOM     16  C   UNL     1      -1.128   4.780  12.458  0.00  0.00    +0.051 C 
ATOM     17  C   UNL     1      -0.056  10.111  13.770  0.00  0.00    +0.075 C 
ATOM     18  C   UNL     1       0.269  11.425  13.052  0.00  0.00    +0.008 C 
ATOM     19  C   UNL     1      -0.916  11.835  12.174  0.00  0.00    +0.005 C 
ATOM     20  C   UNL     1      -1.029  10.865  10.991  0.00  0.00    +0.039 C 
ENDROOT
BRANCH  15  21
ATOM     21  C   UNL     1      -3.462   4.493   6.356  0.00  0.00    +0.052 C 
BRANCH  21  22
ATOM     22  C   UNL     1      -2.305   4.204   5.397  0.00  0.00    +0.100 C 
BRANCH  22  23
ATOM     23  C   UNL     1      -2.856   3.780   4.060  0.00  0.00    +0.213 C 
ATOM     24  O   UNL     1      -4.055   3.714   3.891  0.00  0.00    -0.276 OA
ATOM     25  N   UNL     1      -2.015   3.472   3.052  0.00  0.00    -0.313 N 
ATOM     26  H   UNL     1      -1.056   3.525   3.188  0.00  0.00    +0.149 HD
BRANCH  25  27
ATOM     27  C   UNL     1      -2.550   3.059   1.752  0.00  0.00    +0.135 C 
BRANCH  27  28
ATOM     28  C   UNL     1      -1.394   2.771   0.793  0.00  0.00    +0.135 C 
ATOM     29  C   UNL     1      -1.928   2.453  -0.626  0.00  0.00    +0.035 C 
ATOM     30  C   UNL     1      -0.778   1.606  -1.224  0.00  0.00    +0.031 C 
ATOM     31  C   UNL     1      -0.013   1.086   0.008  0.00  0.00    +0.160 C 
ATOM     32  O   UNL     1      -0.705   1.559   1.176  0.00  0.00    -0.375 OA
ENDBRANCH  27  28
ENDBRANCH  25  27
ENDBRANCH  22  23
ENDBRANCH  21  22
ENDBRANCH  15  21
TORSDOF 5
