REMARK  Name = ZINC15598149
REMARK  5 active torsions:
REMARK  status: ('A' for Active; 'I' for Inactive)
REMARK    1  A    between atoms: C_6  and  N_7
REMARK    2  A    between atoms: C_8  and  C_10
REMARK    3  A    between atoms: C_10  and  S_11
REMARK    4  A    between atoms: S_11  and  C_12
REMARK    5  A    between atoms: C_12  and  C_13
REMARK                            x       y       z     vdW  Elec       q    Type
REMARK                         _______ _______ _______ _____ _____    ______ ____
ROOT
ATOM      1  C   UNL     1      -1.374   3.413  -9.211  0.00  0.00    +0.165 C 
ENDROOT
BRANCH   1   3
ATOM      2  N   UNL     1      -2.605   4.245 -11.189  0.00  0.00    -0.285 N 
ATOM      3  C   UNL     1      -2.606   3.982  -9.867  0.00  0.00    +0.227 C 
ATOM      4  O   UNL     1      -3.597   4.204  -9.206  0.00  0.00    -0.275 OA
ATOM      5  H   UNL     1      -1.792   4.130 -11.706  0.00  0.00    +0.155 HD
BRANCH   2  11
ATOM      6  C   UNL     1      -4.054   4.290 -13.122  0.00  0.00    +0.025 A 
ATOM      7  C   UNL     1      -5.212   4.713 -13.744  0.00  0.00    +0.029 A 
ATOM      8  C   UNL     1      -6.096   5.542 -13.070  0.00  0.00    +0.067 A 
ATOM      9  C   UNL     1      -5.819   5.942 -11.761  0.00  0.00    +0.069 A 
ATOM     10  C   UNL     1      -4.659   5.511 -11.138  0.00  0.00    +0.051 A 
ATOM     11  C   UNL     1      -3.778   4.682 -11.817  0.00  0.00    +0.035 A 
ATOM     12  N   UNL     1      -6.874   6.756 -11.357  0.00  0.00    -0.306 N 
ATOM     13  H   UNL     1      -6.961   7.185 -10.491  0.00  0.00    +0.170 HD
ATOM     14  C   UNL     1      -7.754   6.847 -12.372  0.00  0.00    +0.325 A 
ATOM     15  O   UNL     1      -8.790   7.485 -12.347  0.00  0.00    -0.247 OA
ATOM     16  N   UNL     1      -7.314   6.126 -13.420  0.00  0.00    -0.306 N 
ATOM     17  H   UNL     1      -7.766   6.029 -14.273  0.00  0.00    +0.170 HD
ENDBRANCH   2  11
ENDBRANCH   1   3
BRANCH   1  18
ATOM     18  S   UNL     1      -1.688   3.173  -7.441  0.00  0.00    -0.144 S 
BRANCH  18  19
ATOM     19  C   UNL     1      -0.130   2.492  -6.808  0.00  0.00    +0.143 C 
BRANCH  19  20
ATOM     20  C   UNL     1      -0.257   2.243  -5.327  0.00  0.00    +0.121 A 
ATOM     21  N   UNL     1       0.800   1.730  -4.645  0.00  0.00    -0.310 N 
ATOM     22  H   UNL     1       1.621   1.532  -5.121  0.00  0.00    +0.170 HD
ATOM     23  C   UNL     1       0.730   1.492  -3.321  0.00  0.00    +0.260 A 
ATOM     24  O   UNL     1       1.686   1.031  -2.722  0.00  0.00    -0.267 OA
ATOM     25  C   UNL     1      -0.490   1.789  -2.631  0.00  0.00    +0.075 A 
ATOM     26  C   UNL     1      -0.790   1.610  -1.202  0.00  0.00    -0.023 A 
ATOM     27  C   UNL     1      -2.018   1.967  -0.791  0.00  0.00    -0.004 A 
ATOM     28  S   UNL     1      -2.841   2.552  -2.254  0.00  0.00    -0.073 S 
ATOM     29  C   UNL     1      -1.524   2.314  -3.417  0.00  0.00    +0.116 A 
ATOM     30  N   UNL     1      -1.381   2.524  -4.723  0.00  0.00    -0.226 NA
ATOM     31  C   UNL     1      -2.210   1.745   0.686  0.00  0.00    +0.043 C 
ATOM     32  C   UNL     1      -0.776   1.597   1.245  0.00  0.00    +0.010 C 
ATOM     33  C   UNL     1      -0.010   1.088   0.008  0.00  0.00    +0.037 C 
ENDBRANCH  19  20
ENDBRANCH  18  19
ENDBRANCH   1  18
TORSDOF 5
