REMARK  Name = ZINC01076306
REMARK  8 active torsions:
REMARK  status: ('A' for Active; 'I' for Inactive)
REMARK    1  A    between atoms: C_1  and  C_2
REMARK    2  A    between atoms: C_4  and  C_27
REMARK    3  A    between atoms: C_4  and  C_31
REMARK    4  A    between atoms: C_5  and  C_25
REMARK    5  A    between atoms: C_6  and  N_24
REMARK    6  A    between atoms: N_7  and  C_8
REMARK    7  A    between atoms: C_11  and  S_14
REMARK    8  A    between atoms: S_14  and  N_17
REMARK                            x       y       z     vdW  Elec       q    Type
REMARK                         _______ _______ _______ _____ _____    ______ ____
ROOT
ATOM      1  C   UNL     1       5.071   5.883   2.291  0.00  0.00    +0.061 C 
ATOM      2  C   UNL     1       5.432   5.420   3.679  0.00  0.00    +0.011 C 
ATOM      3  C   UNL     1       5.433   6.284   4.671  0.00  0.00    +0.022 C 
ATOM      4  C   UNL     1       5.783   5.886   6.075  0.00  0.00    +0.217 C 
ATOM      5  C   UNL     1       6.474   4.553   6.102  0.00  0.00    +0.092 C 
ATOM      6  C   UNL     1       6.430   3.715   5.031  0.00  0.00    +0.107 C 
ATOM      7  N   UNL     1       5.752   4.085   3.892  0.00  0.00    -0.261 N 
ENDROOT
BRANCH   7   8
ATOM      8  C   UNL     1       5.392   3.119   2.946  0.00  0.00    +0.040 A 
ATOM      9  C   UNL     1       6.279   2.768   1.936  0.00  0.00    +0.026 A 
ATOM     10  C   UNL     1       5.920   1.814   1.005  0.00  0.00    +0.030 A 
ATOM     11  C   UNL     1       4.680   1.207   1.076  0.00  0.00    +0.109 A 
ATOM     12  C   UNL     1       3.792   1.558   2.077  0.00  0.00    +0.030 A 
ATOM     13  C   UNL     1       4.146   2.507   3.015  0.00  0.00    +0.026 A 
BRANCH  11  14
ATOM     14  S   UNL     1       4.226  -0.010  -0.114  0.00  0.00    +0.075 S 
ATOM     15  O   UNL     1       5.015   0.238  -1.270  0.00  0.00    -0.150 OA
ATOM     16  O   UNL     1       2.806  -0.032  -0.152  0.00  0.00    -0.150 OA
BRANCH  14  17
ATOM     17  N   UNL     1       4.706  -1.479   0.480  0.00  0.00    -0.184 N 
ATOM     18  C   UNL     1       4.125  -1.984   1.631  0.00  0.00    +0.235 A 
ATOM     19  N   UNL     1       4.289  -3.264   1.930  0.00  0.00    -0.222 NA
ATOM     20  C   UNL     1       3.747  -3.778   3.022  0.00  0.00    +0.116 A 
ATOM     21  C   UNL     1       3.002  -2.960   3.856  0.00  0.00    +0.039 A 
ATOM     22  C   UNL     1       2.851  -1.625   3.513  0.00  0.00    +0.116 A 
ATOM     23  N   UNL     1       3.419  -1.175   2.406  0.00  0.00    -0.222 NA
ATOM     24  H   UNL     1       5.395  -1.986   0.022  0.00  0.00    +0.177 HD
ENDBRANCH  14  17
ENDBRANCH  11  14
ENDBRANCH   7   8
BRANCH   4  25
ATOM     25  C   UNL     1       4.503   5.806   6.908  0.00  0.00    +0.412 C 
ATOM     26  F   UNL     1       4.825   5.469   8.228  0.00  0.00    -0.169 F 
ATOM     27  F   UNL     1       3.854   7.045   6.888  0.00  0.00    -0.169 F 
ATOM     28  F   UNL     1       3.658   4.828   6.371  0.00  0.00    -0.169 F 
ENDBRANCH   4  25
BRANCH   4  29
ATOM     29  C   UNL     1       6.710   6.944   6.679  0.00  0.00    +0.412 C 
ATOM     30  F   UNL     1       7.890   7.011   5.932  0.00  0.00    -0.169 F 
ATOM     31  F   UNL     1       6.072   8.189   6.658  0.00  0.00    -0.169 F 
ATOM     32  F   UNL     1       7.013   6.598   8.001  0.00  0.00    -0.169 F 
ENDBRANCH   4  29
BRANCH   6  33
ATOM     33  N   UNL     1       7.062   2.496   5.087  0.00  0.00    -0.345 N 
ATOM     34  H   UNL     1       7.119   1.942   4.293  0.00  0.00    +0.144 HD
ATOM     35  H   UNL     1       7.452   2.190   5.921  0.00  0.00    +0.144 HD
ENDBRANCH   6  33
BRANCH   5  36
ATOM     36  C   UNL     1       7.192   4.156   7.275  0.00  0.00    +0.099 C 
ATOM     37  N   UNL     1       7.763   3.841   8.206  0.00  0.00    -0.191 NA
ENDBRANCH   5  36
TORSDOF 7
