REMARK  Name = ZINC45591573
REMARK  11 active torsions:
REMARK  status: ('A' for Active; 'I' for Inactive)
REMARK    1  A    between atoms: C_1  and  C_2
REMARK    2  A    between atoms: C_3  and  C_13
REMARK    3  A    between atoms: C_4  and  C_12
REMARK    4  A    between atoms: C_9  and  C_10
REMARK    5  A    between atoms: C_13  and  C_14
REMARK    6  A    between atoms: C_14  and  C_15
REMARK    7  A    between atoms: N_17  and  N_18
REMARK    8  A    between atoms: C_19  and  C_21
REMARK    9  A    between atoms: C_21  and  C_23
REMARK   10  A    between atoms: C_21  and  O_24
REMARK   11  A    between atoms: O_24  and  C_25
REMARK                            x       y       z     vdW  Elec       q    Type
REMARK                         _______ _______ _______ _____ _____    ______ ____
ROOT
ATOM      1  C   UNL     1      -4.479   0.587   1.569  0.00  0.00    +0.229 C 
ATOM      2  O   UNL     1      -4.951   0.935   0.507  0.00  0.00    -0.274 OA
ATOM      3  N   UNL     1      -5.012   1.036   2.723  0.00  0.00    -0.234 N 
ATOM      4  H   UNL     1      -4.635   0.758   3.572  0.00  0.00    +0.173 HD
ENDROOT
BRANCH   3   5
ATOM      5  N   UNL     1      -6.111   1.905   2.696  0.00  0.00    -0.231 N 
ATOM      6  C   UNL     1      -6.644   2.354   3.849  0.00  0.00    +0.270 C 
ATOM      7  O   UNL     1      -6.172   2.006   4.911  0.00  0.00    -0.270 OA
ATOM      8  H   UNL     1      -6.488   2.183   1.846  0.00  0.00    +0.173 HD
BRANCH   6   9
ATOM      9  C   UNL     1      -7.826   3.288   3.820  0.00  0.00    +0.257 C 
ATOM     10  C   UNL     1      -9.035   2.563   3.225  0.00  0.00    +0.062 C 
BRANCH   9  11
ATOM     11  O   UNL     1      -8.132   3.711   5.150  0.00  0.00    -0.480 OA
BRANCH  11  12
ATOM     12  C   UNL     1      -8.781   4.897   5.286  0.00  0.00    +0.123 A 
ATOM     13  C   UNL     1      -9.005   5.426   6.549  0.00  0.00    +0.046 A 
ATOM     14  C   UNL     1      -9.665   6.631   6.686  0.00  0.00    +0.005 A 
ATOM     15  C   UNL     1     -10.103   7.312   5.564  0.00  0.00    +0.015 A 
ATOM     16  C   UNL     1      -9.881   6.788   4.304  0.00  0.00    +0.021 A 
ATOM     17  C   UNL     1      -9.215   5.585   4.162  0.00  0.00    +0.061 A 
ATOM     18 BR   UNL     1     -10.481   7.721   2.773  0.00  0.00    -0.050 Br
ENDBRANCH  11  12
ENDBRANCH   9  11
ENDBRANCH   6   9
ENDBRANCH   3   5
BRANCH   1  19
ATOM     19  C   UNL     1      -3.297  -0.348   1.599  0.00  0.00    +0.102 C 
BRANCH  19  20
ATOM     20  C   UNL     1      -2.892  -0.702   0.167  0.00  0.00    +0.046 C 
BRANCH  20  23
ATOM     21  C   UNL     1      -0.190   0.367   0.368  0.00  0.00    +0.045 C 
ATOM     22  C   UNL     1      -0.417  -1.121   0.293  0.00  0.00    -0.023 A 
ATOM     23  C   UNL     1      -1.710  -1.637   0.196  0.00  0.00    -0.024 A 
ATOM     24  C   UNL     1      -1.905  -2.978   0.129  0.00  0.00    +0.019 A 
ATOM     25  N   UNL     1      -0.861  -3.842   0.154  0.00  0.00    -0.325 N 
ATOM     26  H   UNL     1      -1.030  -4.796   0.105  0.00  0.00    +0.169 HD
ATOM     27  C   UNL     1       0.406  -3.397   0.246  0.00  0.00    +0.267 A 
ATOM     28  O   UNL     1       1.332  -4.190   0.266  0.00  0.00    -0.266 OA
ATOM     29  C   UNL     1       0.661  -2.002   0.313  0.00  0.00    +0.119 A 
ATOM     30  C   UNL     1      -3.309  -3.516   0.026  0.00  0.00    +0.063 C 
BRANCH  29  31
ATOM     31  C   UNL     1       2.003  -1.511   0.405  0.00  0.00    +0.105 C 
ATOM     32  N   UNL     1       3.067  -1.120   0.478  0.00  0.00    -0.191 NA
ENDBRANCH  29  31
ENDBRANCH  20  23
ENDBRANCH  19  20
ENDBRANCH   1  19
TORSDOF 8
