REMARK  Name = ZINC02740245
REMARK  4 active torsions:
REMARK  status: ('A' for Active; 'I' for Inactive)
REMARK    1  A    between atoms: C_6  and  C_7
REMARK    2  A    between atoms: C_8  and  C_9
REMARK    3  A    between atoms: N_11  and  C_12
REMARK    4  A    between atoms: C_16  and  N_18
REMARK                            x       y       z     vdW  Elec       q    Type
REMARK                         _______ _______ _______ _____ _____    ______ ____
ROOT
ATOM      1  C   UNL     1       3.556   1.793  -0.124  0.00  0.00    +0.241 C 
ATOM      2  O   UNL     1       3.542   3.010  -0.118  0.00  0.00    -0.270 OA
ATOM      3  N   UNL     1       2.402   1.105  -0.015  0.00  0.00    -0.282 N 
ATOM      4  H   UNL     1       2.418   0.138   0.046  0.00  0.00    +0.155 HD
ENDROOT
BRANCH   3   5
ATOM      5  C   UNL     1       1.181   1.788   0.009  0.00  0.00    +0.036 A 
ATOM      6  C   UNL     1       0.058   1.225  -0.586  0.00  0.00    +0.026 A 
ATOM      7  C   UNL     1      -1.146   1.900  -0.561  0.00  0.00    +0.042 A 
ATOM      8  C   UNL     1      -1.236   3.136   0.057  0.00  0.00    +0.154 A 
ATOM      9  C   UNL     1      -0.120   3.696   0.655  0.00  0.00    +0.163 A 
ATOM     10  C   UNL     1       1.089   3.027   0.627  0.00  0.00    +0.059 A 
ATOM     11  F   UNL     1      -2.416   3.795   0.080  0.00  0.00    -0.203 F 
BRANCH   9  12
ATOM     12  N   UNL     1      -0.220   5.015   1.319  0.00  0.00    +0.059 N 
ATOM     13  O   UNL     1       0.763   5.510   1.842  0.00  0.00    -0.126 OA
ATOM     14  O   UNL     1      -1.285   5.605   1.344  0.00  0.00    -0.126 OA
ENDBRANCH   9  12
ENDBRANCH   3   5
BRANCH   1  16
ATOM     15  C   UNL     1       5.980   1.765  -0.360  0.00  0.00    +0.013 C 
ATOM     16  C   UNL     1       4.826   1.077  -0.251  0.00  0.00    +0.068 C 
BRANCH  15  22
ATOM     17  C   UNL     1       7.278  -0.354  -0.490  0.00  0.00    +0.009 A 
ATOM     18  C   UNL     1       8.477  -1.022  -0.616  0.00  0.00    +0.016 A 
ATOM     19  C   UNL     1       9.661  -0.312  -0.728  0.00  0.00    +0.018 A 
ATOM     20  C   UNL     1       9.649   1.073  -0.720  0.00  0.00    +0.016 A 
ATOM     21  C   UNL     1       8.457   1.755  -0.601  0.00  0.00    +0.009 A 
ATOM     22  C   UNL     1       7.257   1.045  -0.488  0.00  0.00    -0.025 A 
ATOM     23 BR   UNL     1      11.302  -1.237  -0.892  0.00  0.00    -0.050 Br
ENDBRANCH  15  22
ENDBRANCH   1  16
TORSDOF 4
