REMARK  Name = ZINC40016419
REMARK  3 active torsions:
REMARK  status: ('A' for Active; 'I' for Inactive)
REMARK    1  A    between atoms: C_1  and  C_2
REMARK    2  A    between atoms: C_7  and  C_12
REMARK    3  A    between atoms: C_20  and  C_22
REMARK                            x       y       z     vdW  Elec       q    Type
REMARK                         _______ _______ _______ _____ _____    ______ ____
ROOT
ATOM      1  C   UNL     1       5.860  -1.171  -1.142  0.00  0.00    +0.028 C 
ATOM      2  C   UNL     1       6.990  -1.188  -0.387  0.00  0.00    +0.082 A 
ATOM      3  C   UNL     1       8.396  -1.247  -0.811  0.00  0.00    +0.288 A 
ATOM      4  O   UNL     1       8.697  -1.289  -1.989  0.00  0.00    -0.265 OA
ATOM      5  N   UNL     1       9.336  -1.251   0.145  0.00  0.00    -0.169 N 
ATOM      6  C   UNL     1       8.946  -1.202   1.454  0.00  0.00    +0.200 A 
ATOM      7  S   UNL     1       7.171  -1.136   1.390  0.00  0.00    -0.044 S 
ATOM      8  N   UNL     1       9.995  -1.216   2.227  0.00  0.00    -0.197 NA
ATOM      9  C   UNL     1      11.103  -1.274   1.469  0.00  0.00    +0.218 A 
ATOM     10  N   UNL     1      10.756  -1.298   0.203  0.00  0.00    -0.138 NA
ENDROOT
BRANCH   1  16
ATOM     11  C   UNL     1       1.129  -1.674   3.388  0.00  0.00    +0.052 C 
ATOM     12  C   UNL     1       1.358  -0.262   2.845  0.00  0.00    +0.175 C 
ATOM     13  C   UNL     1       2.867   0.079   2.827  0.00  0.00    +0.083 C 
ATOM     14  C   UNL     1       3.263  -0.329   1.421  0.00  0.00    -0.002 A 
ATOM     15  C   UNL     1       4.486  -0.548   0.838  0.00  0.00    +0.015 A 
ATOM     16  C   UNL     1       4.558  -0.933  -0.508  0.00  0.00    -0.023 A 
ATOM     17  C   UNL     1       3.376  -1.088  -1.243  0.00  0.00    +0.011 A 
ATOM     18  C   UNL     1       2.158  -0.861  -0.648  0.00  0.00    +0.046 A 
ATOM     19  C   UNL     1       2.086  -0.474   0.692  0.00  0.00    +0.124 A 
ATOM     20  O   UNL     1       0.993  -0.185   1.457  0.00  0.00    -0.488 OA
ENDBRANCH   1  16
BRANCH   9  21
ATOM     21  C   UNL     1      12.489  -1.306   1.978  0.00  0.00    +0.173 A 
ATOM     22  C   UNL     1      12.859  -1.287   3.287  0.00  0.00    +0.053 A 
ATOM     23  C   UNL     1      14.267  -1.331   3.311  0.00  0.00    +0.042 A 
ATOM     24  C   UNL     1      14.683  -1.373   2.030  0.00  0.00    +0.196 A 
ATOM     25  O   UNL     1      13.606  -1.364   1.228  0.00  0.00    -0.460 OA
ENDBRANCH   9  21
TORSDOF 2
