REMARK  Name = ZINC12416360
REMARK  9 active torsions:
REMARK  status: ('A' for Active; 'I' for Inactive)
REMARK    1  A    between atoms: C_1  and  C_2
REMARK    2  A    between atoms: C_3  and  C_30
REMARK    3  A    between atoms: C_4  and  C_20
REMARK    4  A    between atoms: C_10  and  C_15
REMARK    5  A    between atoms: C_24  and  O_28
REMARK    6  A    between atoms: C_25  and  O_26
REMARK    7  A    between atoms: O_26  and  C_27
REMARK    8  A    between atoms: O_28  and  C_29
REMARK    9  A    between atoms: N_32  and  C_33
REMARK                            x       y       z     vdW  Elec       q    Type
REMARK                         _______ _______ _______ _____ _____    ______ ____
ROOT
ATOM      1  C   UNL     1       4.563   2.806  -2.079  0.00  0.00    +0.061 C 
ATOM      2  C   UNL     1       4.471   1.672  -1.091  0.00  0.00    +0.029 C 
ATOM      3  C   UNL     1       4.024   0.471  -1.494  0.00  0.00    +0.131 C 
ATOM      4  C   UNL     1       3.913  -0.679  -0.539  0.00  0.00    +0.075 C 
ATOM      5  C   UNL     1       4.729  -0.433   0.705  0.00  0.00    +0.025 C 
ATOM      6  C   UNL     1       5.153   0.810   1.017  0.00  0.00    +0.049 C 
ATOM      7  N   UNL     1       4.844   1.872   0.210  0.00  0.00    -0.260 NA
ATOM      8  C   UNL     1       5.971   1.064   2.259  0.00  0.00    +0.065 C 
ATOM      9  C   UNL     1       5.595   0.052   3.341  0.00  0.00    +0.039 C 
ATOM     10  C   UNL     1       5.831  -1.359   2.793  0.00  0.00    +0.088 C 
ATOM     11  C   UNL     1       5.036  -1.532   1.527  0.00  0.00    +0.162 C 
ATOM     12  O   UNL     1       4.653  -2.640   1.210  0.00  0.00    -0.292 OA
ENDROOT
BRANCH   4  13
ATOM     13  C   UNL     1       2.467  -0.856  -0.155  0.00  0.00    +0.007 A 
ATOM     14  C   UNL     1       1.893  -2.114  -0.183  0.00  0.00    +0.008 A 
ATOM     15  C   UNL     1       0.567  -2.279   0.169  0.00  0.00    +0.004 A 
ATOM     16  C   UNL     1      -0.192  -1.188   0.551  0.00  0.00    +0.049 A 
ATOM     17  C   UNL     1       0.377   0.075   0.581  0.00  0.00    +0.162 A 
ATOM     18  C   UNL     1       1.713   0.242   0.226  0.00  0.00    +0.165 A 
BRANCH  18  19
ATOM     19  O   UNL     1       2.276   1.479   0.255  0.00  0.00    -0.491 OA
ATOM     20  C   UNL     1       2.557   2.035   1.541  0.00  0.00    +0.277 C 
ENDBRANCH  18  19
BRANCH  17  21
ATOM     21  O   UNL     1      -0.368   1.149   0.955  0.00  0.00    -0.491 OA
ATOM     22  C   UNL     1      -1.731   0.903   1.305  0.00  0.00    +0.277 C 
ENDBRANCH  17  21
ENDBRANCH   4  13
BRANCH   9  23
ATOM     23  C   UNL     1       6.452   0.272   4.561  0.00  0.00    -0.006 A 
ATOM     24  C   UNL     1       6.073   0.566   5.829  0.00  0.00    +0.011 A 
ATOM     25  C   UNL     1       7.045   0.725   6.799  0.00  0.00    +0.008 A 
ATOM     26  C   UNL     1       8.348   0.582   6.454  0.00  0.00    +0.045 A 
ATOM     27  S   UNL     1       8.229   0.205   4.713  0.00  0.00    -0.101 S 
ENDBRANCH   9  23
BRANCH   3  28
ATOM     28  C   UNL     1       3.654   0.286  -2.849  0.00  0.00    +0.227 C 
ATOM     29  O   UNL     1       3.639   1.236  -3.611  0.00  0.00    -0.275 OA
ATOM     30  N   UNL     1       3.317  -0.940  -3.294  0.00  0.00    -0.285 N 
ATOM     31  H   UNL     1       3.274  -1.686  -2.675  0.00  0.00    +0.155 HD
BRANCH  30  32
ATOM     32  C   UNL     1       3.031  -1.138  -4.648  0.00  0.00    +0.036 A 
ATOM     33  C   UNL     1       3.725  -0.425  -5.618  0.00  0.00    +0.023 A 
ATOM     34  C   UNL     1       3.444  -0.625  -6.955  0.00  0.00    +0.005 A 
ATOM     35  C   UNL     1       2.465  -1.527  -7.331  0.00  0.00    +0.038 A 
ATOM     36  C   UNL     1       1.767  -2.236  -6.367  0.00  0.00    +0.125 A 
ATOM     37  C   UNL     1       2.048  -2.043  -5.027  0.00  0.00    +0.061 A 
ATOM     38  F   UNL     1       0.811  -3.116  -6.737  0.00  0.00    -0.205 F 
ENDBRANCH  30  32
ENDBRANCH   3  28
TORSDOF 6
