REMARK  Name = ZINC39898955
REMARK  12 active torsions:
REMARK  status: ('A' for Active; 'I' for Inactive)
REMARK    1  A    between atoms: C_1  and  C_2
REMARK    2  A    between atoms: C_2  and  O_3
REMARK    3  A    between atoms: O_3  and  C_4
REMARK    4  A    between atoms: C_7  and  C_13
REMARK    5  A    between atoms: C_9  and  O_10
REMARK    6  A    between atoms: O_10  and  C_11
REMARK    7  A    between atoms: C_11  and  C_12
REMARK    8  A    between atoms: C_16  and  C_32
REMARK    9  A    between atoms: N_23  and  C_24
REMARK   10  A    between atoms: C_24  and  C_25
REMARK   11  A    between atoms: C_28  and  C_31
REMARK   12  A    between atoms: C_37  and  O_38
REMARK                            x       y       z     vdW  Elec       q    Type
REMARK                         _______ _______ _______ _____ _____    ______ ____
ROOT
ATOM      1  C   UNL     1       1.364  -5.731  -1.380  0.00  0.00    +0.142 C 
ATOM      2  C   UNL     1       0.301  -6.669  -1.882  0.00  0.00    +0.035 A 
ATOM      3  C   UNL     1      -0.560  -7.026  -2.926  0.00  0.00    +0.102 A 
ATOM      4  N   UNL     1      -1.244  -8.081  -2.529  0.00  0.00    -0.173 NA
ATOM      5  N   UNL     1      -0.900  -8.426  -1.340  0.00  0.00    -0.272 N 
ATOM      6  H   UNL     1      -1.272  -9.175  -0.847  0.00  0.00    +0.189 HD
ATOM      7  C   UNL     1       0.066  -7.582  -0.872  0.00  0.00    +0.126 A 
ATOM      8  C   UNL     1       0.944  -7.261   0.260  0.00  0.00    +0.266 C 
ATOM      9  O   UNL     1       0.980  -7.878   1.307  0.00  0.00    -0.268 OA
ATOM     10  N   UNL     1       1.704  -6.187  -0.026  0.00  0.00    -0.281 N 
ENDROOT
BRANCH   3  11
ATOM     11  C   UNL     1      -0.682  -6.341  -4.237  0.00  0.00    +0.045 A 
ATOM     12  C   UNL     1       0.189  -5.307  -4.569  0.00  0.00    +0.033 A 
ATOM     13  C   UNL     1       0.071  -4.673  -5.791  0.00  0.00    +0.042 A 
ATOM     14  C   UNL     1      -0.910  -5.063  -6.687  0.00  0.00    +0.023 A 
ATOM     15  C   UNL     1      -1.779  -6.089  -6.365  0.00  0.00    +0.047 A 
ATOM     16  C   UNL     1      -1.668  -6.737  -5.146  0.00  0.00    +0.126 A 
ATOM     17 CL   UNL     1       1.157  -3.383  -6.204  0.00  0.00    -0.084 Cl
BRANCH  16  18
ATOM     18  O   UNL     1      -2.518  -7.749  -4.832  0.00  0.00    -0.506 OA
ATOM     19  H   UNL     1      -3.325  -7.460  -4.385  0.00  0.00    +0.292 HD
ENDBRANCH  16  18
ENDBRANCH   3  11
BRANCH   1  23
ATOM     20  C   UNL     1      -0.136  -1.729  -1.259  0.00  0.00    +0.162 A 
ATOM     21  C   UNL     1       0.931  -2.047  -2.084  0.00  0.00    +0.050 A 
ATOM     22  C   UNL     1       1.414  -3.342  -2.120  0.00  0.00    +0.009 A 
ATOM     23  C   UNL     1       0.834  -4.322  -1.336  0.00  0.00    -0.019 A 
ATOM     24  C   UNL     1      -0.231  -4.011  -0.511  0.00  0.00    +0.055 A 
ATOM     25  C   UNL     1      -0.716  -2.714  -0.465  0.00  0.00    +0.162 A 
BRANCH  20  26
ATOM     26  O   UNL     1      -0.612  -0.455  -1.222  0.00  0.00    -0.489 OA
BRANCH  26  28
ATOM     27  C   UNL     1      -0.636   1.868  -1.886  0.00  0.00    +0.048 C 
ATOM     28  C   UNL     1       0.032   0.503  -2.063  0.00  0.00    +0.226 C 
ENDBRANCH  26  28
ENDBRANCH  20  26
BRANCH  25  29
ATOM     29  O   UNL     1      -1.760  -2.405   0.350  0.00  0.00    -0.489 OA
BRANCH  29  30
ATOM     30  C   UNL     1      -2.281  -3.458   1.163  0.00  0.00    +0.226 C 
ATOM     31  C   UNL     1      -3.430  -2.920   2.019  0.00  0.00    +0.048 C 
ENDBRANCH  29  30
ENDBRANCH  25  29
ENDBRANCH   1  23
BRANCH  10  32
ATOM     32  C   UNL     1       2.697  -5.577   0.861  0.00  0.00    +0.144 C 
BRANCH  32  33
ATOM     33  C   UNL     1       2.036  -4.516   1.702  0.00  0.00    -0.030 A 
ATOM     34  C   UNL     1       1.973  -3.212   1.247  0.00  0.00    +0.005 A 
ATOM     35  C   UNL     1       1.366  -2.239   2.019  0.00  0.00    +0.003 A 
ATOM     36  C   UNL     1       0.822  -2.569   3.246  0.00  0.00    -0.050 A 
ATOM     37  C   UNL     1       0.883  -3.873   3.700  0.00  0.00    +0.003 A 
ATOM     38  C   UNL     1       1.486  -4.847   2.927  0.00  0.00    +0.005 A 
ATOM     39  C   UNL     1       0.161  -1.508   4.087  0.00  0.00    +0.044 C 
ENDBRANCH  32  33
ENDBRANCH  10  32
TORSDOF 9
