REMARK  Name = ZINC24718251
REMARK  4 active torsions:
REMARK  status: ('A' for Active; 'I' for Inactive)
REMARK    1  A    between atoms: C_1  and  C_2
REMARK    2  A    between atoms: C_2  and  C_4
REMARK    3  A    between atoms: C_2  and  N_14
REMARK    4  A    between atoms: C_15  and  N_16
REMARK                            x       y       z     vdW  Elec       q    Type
REMARK                         _______ _______ _______ _____ _____    ______ ____
ROOT
ATOM      1  N   UNL     1       3.672   3.393  -0.008  0.00  0.00    -0.277 N 
ATOM      2  C   UNL     1       3.889   2.114   0.480  0.00  0.00    +0.110 A 
ATOM      3  C   UNL     1       2.752   1.168   0.474  0.00  0.00    +0.038 A 
ATOM      4  C   UNL     1       2.883  -0.133   0.946  0.00  0.00    +0.013 A 
ATOM      5  C   UNL     1       1.792  -0.979   0.920  0.00  0.00    +0.001 A 
ATOM      6  C   UNL     1       0.575  -0.537   0.427  0.00  0.00    +0.002 A 
ATOM      7  C   UNL     1       0.434   0.753  -0.044  0.00  0.00    +0.028 A 
ATOM      8  C   UNL     1       1.518   1.616  -0.025  0.00  0.00    +0.080 A 
ATOM      9  N   UNL     1       1.412   2.922  -0.489  0.00  0.00    -0.193 NA
ATOM     10  C   UNL     1       2.465   3.755  -0.470  0.00  0.00    +0.351 A 
ATOM     11  O   UNL     1       2.318   4.887  -0.889  0.00  0.00    -0.244 OA
ENDROOT
BRANCH   2  12
ATOM     12  N   UNL     1       5.058   1.755   0.931  0.00  0.00    -0.344 N 
ATOM     13  H   UNL     1       5.211   0.736   1.314  0.00  0.00    +0.144 HD
ATOM     14  H   UNL     1       5.892   2.472   0.928  0.00  0.00    +0.144 HD
ENDBRANCH   2  12
BRANCH   1  16
ATOM     15  C   UNL     1       4.771   5.119  -1.348  0.00  0.00    +0.031 C 
ATOM     16  C   UNL     1       4.773   4.360  -0.019  0.00  0.00    +0.097 C 
BRANCH  16  17
ATOM     17  C   UNL     1       4.594   5.350   1.133  0.00  0.00    -0.008 C 
ATOM     18  C   UNL     1       4.646   4.597   2.464  0.00  0.00    +0.012 C 
ATOM     19  C   UNL     1       4.467   5.587   3.617  0.00  0.00    -0.010 C 
ATOM     20  C   UNL     1       5.588   6.626   3.576  0.00  0.00    +0.007 C 
ATOM     21  C   UNL     1       5.537   7.379   2.245  0.00  0.00    -0.010 C 
ATOM     22  C   UNL     1       5.716   6.389   1.092  0.00  0.00    +0.012 C 
ATOM     23  C   UNL     1       4.184   8.082   2.108  0.00  0.00    +0.007 C 
ATOM     24  C   UNL     1       3.063   7.042   2.150  0.00  0.00    -0.010 C 
ATOM     25  C   UNL     1       3.114   6.290   3.481  0.00  0.00    +0.007 C 
ATOM     26  C   UNL     1       3.242   6.053   0.997  0.00  0.00    +0.012 C 
ENDBRANCH  16  17
ENDBRANCH   1  16
TORSDOF 3
