REMARK  Name = ZINC16262949
REMARK  5 active torsions:
REMARK  status: ('A' for Active; 'I' for Inactive)
REMARK    1  A    between atoms: C_1  and  N_2
REMARK    2  A    between atoms: C_6  and  C_7
REMARK    3  A    between atoms: C_7  and  C_9
REMARK    4  A    between atoms: C_7  and  N_16
REMARK    5  A    between atoms: C_17  and  C_19
REMARK                            x       y       z     vdW  Elec       q    Type
REMARK                         _______ _______ _______ _____ _____    ______ ____
ROOT
ATOM      1  C   UNL     1      -0.030  -0.328  -2.520  0.00  0.00    +0.170 C 
ENDROOT
BRANCH   1   2
ATOM      2  C   UNL     1       1.336  -0.500  -3.132  0.00  0.00    -0.020 A 
ATOM      3  C   UNL     1       1.740  -1.744  -3.581  0.00  0.00    +0.007 A 
ATOM      4  C   UNL     1       2.990  -1.902  -4.148  0.00  0.00    +0.020 A 
ATOM      5  C   UNL     1       3.842  -0.817  -4.256  0.00  0.00    +0.041 A 
ATOM      6  C   UNL     1       3.439   0.426  -3.802  0.00  0.00    +0.020 A 
ATOM      7  C   UNL     1       2.187   0.584  -3.240  0.00  0.00    +0.007 A 
ATOM      8 CL   UNL     1       5.416  -1.016  -4.961  0.00  0.00    -0.084 Cl
ENDBRANCH   1   2
BRANCH   1  14
ATOM      9  C   UNL     1      -0.018   1.461   0.010  0.00  0.00    +0.150 C 
ATOM     10  N   UNL     1       0.002  -0.004   0.002  0.00  0.00    -0.336 N 
ATOM     11  C   UNL     1       0.023  -0.822   1.099  0.00  0.00    +0.106 A 
ATOM     12  C   UNL     1       0.036  -2.088   0.641  0.00  0.00    +0.130 A 
ATOM     13  N   UNL     1       0.024  -2.045  -0.700  0.00  0.00    -0.238 NA
ATOM     14  C   UNL     1      -0.003  -0.799  -1.089  0.00  0.00    +0.134 A 
ENDBRANCH   1  14
BRANCH   1  15
ATOM     15  N   UNL     1      -1.008  -1.116  -3.276  0.00  0.00    -0.297 N 
ATOM     16  C   UNL     1      -2.308  -0.762  -3.269  0.00  0.00    +0.251 C 
ATOM     17  O   UNL     1      -2.671   0.212  -2.636  0.00  0.00    -0.270 OA
ATOM     18  H   UNL     1      -0.718  -1.892  -3.780  0.00  0.00    +0.150 HD
BRANCH  16  19
ATOM     19  C   UNL     1      -3.285  -1.550  -4.025  0.00  0.00    +0.074 A 
ATOM     20  C   UNL     1      -4.650  -1.362  -4.150  0.00  0.00    +0.024 A 
ATOM     21  C   UNL     1      -5.366  -2.257  -4.936  0.00  0.00    -0.036 A 
ATOM     22  C   UNL     1      -4.654  -3.239  -5.534  0.00  0.00    -0.006 A 
ATOM     23  S   UNL     1      -3.026  -3.002  -5.033  0.00  0.00    -0.088 S 
ATOM     24  C   UNL     1      -5.191  -4.297  -6.472  0.00  0.00    +0.043 C 
ATOM     25  C   UNL     1      -6.098  -5.222  -5.643  0.00  0.00    +0.005 C 
ATOM     26  C   UNL     1      -7.449  -4.581  -5.431  0.00  0.00    +0.001 C 
ATOM     27  C   UNL     1      -7.498  -3.415  -4.478  0.00  0.00    +0.005 C 
ATOM     28  C   UNL     1      -6.888  -2.151  -5.087  0.00  0.00    +0.036 C 
ENDBRANCH  16  19
ENDBRANCH   1  15
TORSDOF 4
