REMARK  Name = ZINC11094904
REMARK  16 active torsions:
REMARK  status: ('A' for Active; 'I' for Inactive)
REMARK    1  A    between atoms: C_1  and  C_2
REMARK    2  A    between atoms: C_3  and  N_15
REMARK    3  A    between atoms: N_6  and  C_9
REMARK    4  A    between atoms: N_7  and  C_8
REMARK    5  A    between atoms: C_16  and  C_18
REMARK    6  A    between atoms: C_18  and  C_20
REMARK    7  A    between atoms: C_18  and  N_71
REMARK    8  A    between atoms: C_21  and  C_23
REMARK    9  A    between atoms: C_21  and  C_33
REMARK   10  A    between atoms: C_21  and  N_71
REMARK   11  A    between atoms: C_26  and  C_29
REMARK   12  A    between atoms: C_29  and  C_30
REMARK   13  A    between atoms: C_30  and  C_31
REMARK   14  A    between atoms: C_30  and  C_32
REMARK   15  A    between atoms: C_33  and  C_34
REMARK   16  A    between atoms: C_33  and  C_35
REMARK                            x       y       z     vdW  Elec       q    Type
REMARK                         _______ _______ _______ _____ _____    ______ ____
ROOT
ATOM      1  C   UNL     1      -1.556  -0.224   0.871  0.00  0.00    +0.014 C 
ATOM      2  C   UNL     1      -2.490  -0.008  -0.322  0.00  0.00    -0.004 C 
ENDROOT
BRANCH   1   4
ATOM      3  N   UNL     1      -0.102   1.696   0.306  0.00  0.00    -0.281 N 
ATOM      4  C   UNL     1      -0.208   0.378   0.568  0.00  0.00    +0.203 C 
ATOM      5  O   UNL     1       0.781  -0.323   0.561  0.00  0.00    -0.277 OA
ATOM      6  H   UNL     1      -0.901   2.242   0.235  0.00  0.00    +0.155 HD
BRANCH   3   9
ATOM      7  C   UNL     1       0.779   3.233  -2.200  0.00  0.00    +0.067 C 
ATOM      8  C   UNL     1       1.592   2.962  -0.960  0.00  0.00    +0.059 A 
ATOM      9  C   UNL     1       1.168   2.279   0.128  0.00  0.00    +0.121 A 
ATOM     10  C   UNL     1       2.272   2.264   1.087  0.00  0.00    +0.293 A 
ATOM     11  O   UNL     1       2.268   1.746   2.190  0.00  0.00    -0.264 OA
ATOM     12  N   UNL     1       3.298   2.930   0.517  0.00  0.00    -0.216 N 
ATOM     13  N   UNL     1       2.883   3.367  -0.746  0.00  0.00    -0.282 N 
ATOM     14  C   UNL     1       3.699   4.135  -1.690  0.00  0.00    +0.171 C 
BRANCH  12  15
ATOM     15  C   UNL     1       4.554   3.150   1.090  0.00  0.00    +0.067 A 
ATOM     16  C   UNL     1       5.707   2.897   0.359  0.00  0.00    +0.028 A 
ATOM     17  C   UNL     1       6.946   3.120   0.926  0.00  0.00    +0.002 A 
ATOM     18  C   UNL     1       7.040   3.586   2.225  0.00  0.00    +0.000 A 
ATOM     19  C   UNL     1       5.894   3.834   2.958  0.00  0.00    +0.002 A 
ATOM     20  C   UNL     1       4.652   3.618   2.395  0.00  0.00    +0.028 A 
ENDBRANCH  12  15
ENDBRANCH   3   9
ENDBRANCH   1   4
BRANCH   1  21
ATOM     21  N   UNL     1      -1.397  -1.669   1.116  0.00  0.00    +0.391 N 
ATOM     22  H   UNL     1      -0.501  -1.836   1.590  0.00  0.00    -0.084 HD
ATOM     23  H   UNL     1      -1.407  -2.168   0.219  0.00  0.00    -0.084 HD
BRANCH  21  24
ATOM     24  C   UNL     1      -2.496  -2.169   1.964  0.00  0.00    -0.037 C 
BRANCH  24  25
ATOM     25  C   UNL     1      -2.684  -3.643   1.711  0.00  0.00    -0.061 A 
ATOM     26  C   UNL     1      -1.583  -4.460   1.535  0.00  0.00    +0.002 A 
ATOM     27  C   UNL     1      -1.755  -5.813   1.308  0.00  0.00    +0.004 A 
ATOM     28  C   UNL     1      -3.029  -6.347   1.248  0.00  0.00    -0.047 A 
ATOM     29  C   UNL     1      -4.130  -5.529   1.419  0.00  0.00    +0.004 A 
ATOM     30  C   UNL     1      -3.958  -4.177   1.651  0.00  0.00    +0.002 A 
BRANCH  28  31
ATOM     31  C   UNL     1      -3.217  -7.820   0.995  0.00  0.00    +0.038 C 
BRANCH  31  32
ATOM     32  C   UNL     1      -3.317  -8.070  -0.512  0.00  0.00    -0.013 C 
ATOM     33  C   UNL     1      -3.383  -9.576  -0.775  0.00  0.00    +0.007 C 
ATOM     34  C   UNL     1      -4.580  -7.401  -1.057  0.00  0.00    +0.007 C 
ENDBRANCH  31  32
ENDBRANCH  28  31
ENDBRANCH  24  25
BRANCH  24  35
ATOM     35  C   UNL     1      -2.148  -1.944   3.437  0.00  0.00    -0.027 C 
ATOM     36  C   UNL     1      -3.284  -2.471   4.315  0.00  0.00    +0.006 C 
ATOM     37  C   UNL     1      -0.855  -2.689   3.775  0.00  0.00    +0.006 C 
ENDBRANCH  24  35
ENDBRANCH  21  24
ENDBRANCH   1  21
TORSDOF 9
