REMARK  Name = ZINC52069089
REMARK  5 active torsions:
REMARK  status: ('A' for Active; 'I' for Inactive)
REMARK    1  A    between atoms: C_1  and  C_2
REMARK    2  A    between atoms: C_2  and  C_3
REMARK    3  A    between atoms: C_3  and  N_4
REMARK    4  A    between atoms: N_7  and  C_8
REMARK    5  A    between atoms: C_11  and  C_15
REMARK                            x       y       z     vdW  Elec       q    Type
REMARK                         _______ _______ _______ _____ _____    ______ ____
ROOT
ATOM      1  N   UNL     1      -1.413  -1.998   0.005  0.00  0.00    -0.356 N 
ATOM      2  C   UNL     1      -2.593  -2.701   0.012  0.00  0.00    +0.196 C 
ATOM      3  N   UNL     1      -3.791  -2.031   0.027  0.00  0.00    -0.370 N 
ATOM      4  N   UNL     1      -2.575  -4.014   0.005  0.00  0.00    -0.213 NA
ATOM      5  H   UNL     1      -0.567  -2.472  -0.006  0.00  0.00    +0.162 HD
ATOM      6  H   UNL     1      -3.804  -1.061   0.033  0.00  0.00    +0.159 HD
ATOM      7  H   UNL     1      -4.624  -2.527   0.033  0.00  0.00    +0.159 HD
ENDROOT
BRANCH   4   8
ATOM      8  C   UNL     1      -3.752  -4.715   0.013  0.00  0.00    +0.095 A 
ATOM      9  C   UNL     1      -4.346  -5.075   1.224  0.00  0.00    +0.045 A 
ATOM     10  C   UNL     1      -5.532  -5.782   1.224  0.00  0.00    +0.020 A 
ATOM     11  C   UNL     1      -6.132  -6.133   0.028  0.00  0.00    -0.048 A 
ATOM     12  C   UNL     1      -5.549  -5.780  -1.176  0.00  0.00    +0.020 A 
ATOM     13  C   UNL     1      -4.366  -5.067  -1.191  0.00  0.00    +0.045 A 
ATOM     14 BR   UNL     1      -3.575  -4.578  -2.838  0.00  0.00    -0.048 Br
ATOM     15  C   UNL     1      -7.426  -6.905   0.036  0.00  0.00    +0.044 C 
ATOM     16 BR   UNL     1      -3.528  -4.597   2.860  0.00  0.00    -0.048 Br
ENDBRANCH   4   8
BRANCH   1  17
ATOM     17  C   UNL     1      -1.433  -0.534   0.013  0.00  0.00    +0.115 C 
BRANCH  17  19
ATOM     18  C   UNL     1      -0.019   1.526   0.010  0.00  0.00    +0.005 C 
ATOM     19  C   UNL     1       0.002  -0.004   0.002  0.00  0.00    +0.018 C 
ENDBRANCH  17  19
ENDBRANCH   1  17
TORSDOF 3
