REMARK  Name = ZINC13794631
REMARK  8 active torsions:
REMARK  status: ('A' for Active; 'I' for Inactive)
REMARK    1  A    between atoms: C_1  and  C_2
REMARK    2  A    between atoms: C_4  and  C_24
REMARK    3  A    between atoms: C_8  and  C_22
REMARK    4  A    between atoms: N_10  and  C_11
REMARK    5  A    between atoms: C_12  and  O_20
REMARK    6  A    between atoms: C_14  and  O_18
REMARK    7  A    between atoms: O_18  and  C_19
REMARK    8  A    between atoms: O_20  and  C_21
REMARK                            x       y       z     vdW  Elec       q    Type
REMARK                         _______ _______ _______ _____ _____    ______ ____
ROOT
ATOM      1  C   UNL     1       4.487  -0.184  -0.042  0.00  0.00    +0.044 C 
ATOM      2  C   UNL     1       3.520   0.972  -0.027  0.00  0.00    -0.037 A 
ATOM      3  C   UNL     1       3.973   2.279  -0.024  0.00  0.00    +0.027 A 
ATOM      4  C   UNL     1       3.054   3.316  -0.010  0.00  0.00    +0.041 A 
ATOM      5  N   UNL     1       1.758   3.087   0.001  0.00  0.00    -0.234 NA
ATOM      6  C   UNL     1       1.268   1.855  -0.000  0.00  0.00    +0.147 A 
ATOM      7  C   UNL     1       2.144   0.755  -0.014  0.00  0.00    +0.039 A 
ATOM      8  C   UNL     1       1.292  -0.447  -0.013  0.00  0.00    +0.079 A 
ATOM      9  C   UNL     1       0.002  -0.004   0.002  0.00  0.00    +0.113 A 
ATOM     10  N   UNL     1      -0.016   1.355   0.009  0.00  0.00    -0.295 N 
ATOM     11  C   UNL     1       3.550   4.739  -0.008  0.00  0.00    +0.065 C 
ENDROOT
BRANCH  10  12
ATOM     12  C   UNL     1      -1.181   2.140   0.019  0.00  0.00    +0.104 A 
ATOM     13  C   UNL     1      -1.753   2.523   1.230  0.00  0.00    +0.148 A 
ATOM     14  C   UNL     1      -2.901   3.297   1.237  0.00  0.00    +0.093 A 
ATOM     15  C   UNL     1      -3.480   3.689   0.039  0.00  0.00    +0.125 A 
ATOM     16  C   UNL     1      -2.909   3.307  -1.167  0.00  0.00    +0.063 A 
ATOM     17  C   UNL     1      -1.760   2.539  -1.177  0.00  0.00    +0.049 A 
ATOM     18 BR   UNL     1      -0.980   2.026  -2.821  0.00  0.00    -0.048 Br
BRANCH  15  19
ATOM     19  O   UNL     1      -4.607   4.449   0.045  0.00  0.00    -0.495 OA
ATOM     20  C   UNL     1      -5.149   4.816  -1.225  0.00  0.00    +0.277 C 
ENDBRANCH  15  19
BRANCH  13  21
ATOM     21  O   UNL     1      -1.184   2.139   2.404  0.00  0.00    -0.493 OA
ATOM     22  C   UNL     1      -1.825   2.569   3.607  0.00  0.00    +0.277 C 
ENDBRANCH  13  21
ENDBRANCH  10  12
BRANCH   8  23
ATOM     23  C   UNL     1       1.731  -1.810  -0.025  0.00  0.00    +0.101 C 
ATOM     24  N   UNL     1       2.079  -2.891  -0.034  0.00  0.00    -0.191 NA
ENDBRANCH   8  23
TORSDOF 4
