REMARK  Name = ZINC09463432
REMARK  7 active torsions:
REMARK  status: ('A' for Active; 'I' for Inactive)
REMARK    1  A    between atoms: C_1  and  C_2
REMARK    2  A    between atoms: C_3  and  C_30
REMARK    3  A    between atoms: C_11  and  C_13
REMARK    4  A    between atoms: C_13  and  N_54
REMARK    5  A    between atoms: N_16  and  S_19
REMARK    6  A    between atoms: S_19  and  C_22
REMARK    7  A    between atoms: C_23  and  C_24
REMARK                            x       y       z     vdW  Elec       q    Type
REMARK                         _______ _______ _______ _____ _____    ______ ____
ROOT
ATOM      1  C   UNL     1       2.433   0.354  -2.772  0.00  0.00    -0.061 C 
ATOM      2  C   UNL     1       1.977  -0.406  -1.522  0.00  0.00    +0.091 C 
ATOM      3  N   UNL     1       0.507  -0.446  -1.509  0.00  0.00    -0.181 NA
ATOM      4  C   UNL     1      -0.187  -0.919  -2.716  0.00  0.00    +0.091 C 
ATOM      5  C   UNL     1       0.354  -0.134  -3.922  0.00  0.00    -0.061 C 
ATOM      6  N   UNL     1       1.825  -0.281  -3.961  0.00  0.00    +0.386 N 
ATOM      7  H   UNL     1       2.059  -1.281  -3.961  0.00  0.00    -0.081 HD
ENDROOT
BRANCH   3   8
ATOM      8  S   UNL     1      -0.345   0.023  -0.168  0.00  0.00    +0.054 S 
ATOM      9  O   UNL     1       0.530  -0.129   0.942  0.00  0.00    -0.153 OA
ATOM     10  O   UNL     1      -1.605  -0.629  -0.239  0.00  0.00    -0.153 OA
BRANCH   8  11
ATOM     11  C   UNL     1      -0.661   1.749  -0.329  0.00  0.00    +0.153 C 
ATOM     12  C   UNL     1      -1.905   2.185  -0.463  0.00  0.00    +0.028 C 
BRANCH  12  13
ATOM     13  C   UNL     1      -2.170   3.633  -0.598  0.00  0.00    -0.024 A 
ATOM     14  C   UNL     1      -1.113   4.543  -0.578  0.00  0.00    +0.008 A 
ATOM     15  C   UNL     1      -1.367   5.893  -0.710  0.00  0.00    +0.001 A 
ATOM     16  C   UNL     1      -2.667   6.345  -0.850  0.00  0.00    +0.000 A 
ATOM     17  C   UNL     1      -3.720   5.448  -0.865  0.00  0.00    +0.001 A 
ATOM     18  C   UNL     1      -3.479   4.095  -0.739  0.00  0.00    +0.008 A 
ENDBRANCH  12  13
ENDBRANCH   8  11
ENDBRANCH   3   8
BRANCH   6  19
ATOM     19  C   UNL     1       2.361   0.336  -5.192  0.00  0.00    -0.003 C 
BRANCH  19  30
ATOM     20  C   UNL     1       8.838  -0.732  -6.552  0.00  0.00    +0.045 C 
ATOM     21  C   UNL     1       7.835  -1.194  -5.527  0.00  0.00    -0.026 A 
ATOM     22  C   UNL     1       8.196  -2.055  -4.563  0.00  0.00    -0.008 A 
ATOM     23  S   UNL     1       6.694  -2.284  -3.630  0.00  0.00    -0.073 S 
ATOM     24  C   UNL     1       5.627  -1.217  -4.561  0.00  0.00    +0.116 A 
ATOM     25  C   UNL     1       6.467  -0.713  -5.571  0.00  0.00    +0.075 A 
ATOM     26  C   UNL     1       5.852   0.198  -6.491  0.00  0.00    +0.260 A 
ATOM     27  O   UNL     1       6.497   0.689  -7.401  0.00  0.00    -0.267 OA
ATOM     28  N   UNL     1       4.549   0.498  -6.338  0.00  0.00    -0.312 N 
ATOM     29  H   UNL     1       4.126   1.110  -6.960  0.00  0.00    +0.170 HD
ATOM     30  C   UNL     1       3.815  -0.035  -5.327  0.00  0.00    +0.094 A 
ATOM     31  N   UNL     1       4.346  -0.868  -4.472  0.00  0.00    -0.229 NA
ATOM     32  C   UNL     1       9.547  -2.680  -4.326  0.00  0.00    +0.052 C 
ENDBRANCH  19  30
ENDBRANCH   6  19
TORSDOF 5
