REMARK  Name = ZINC53405504
REMARK  8 active torsions:
REMARK  status: ('A' for Active; 'I' for Inactive)
REMARK    1  A    between atoms: C_1  and  C_2
REMARK    2  A    between atoms: C_5  and  C_8
REMARK    3  A    between atoms: C_11  and  S_14
REMARK    4  A    between atoms: N_12  and  N_13
REMARK    5  A    between atoms: S_14  and  C_15
REMARK    6  A    between atoms: C_15  and  C_16
REMARK    7  A    between atoms: N_18  and  C_19
REMARK    8  A    between atoms: C_19  and  C_23
REMARK                            x       y       z     vdW  Elec       q    Type
REMARK                         _______ _______ _______ _____ _____    ______ ____
ROOT
ATOM      1  S   UNL     1      -0.384  -7.872   0.719  0.00  0.00    -0.075 S 
ENDROOT
BRANCH   1   5
ATOM      2  C   UNL     1      -1.227  -4.654  -1.330  0.00  0.00    +0.182 A 
ATOM      3  N   UNL     1      -1.234  -5.591  -2.249  0.00  0.00    -0.127 NA
ATOM      4  N   UNL     1      -0.967  -6.730  -1.717  0.00  0.00    -0.121 NA
ATOM      5  C   UNL     1      -0.774  -6.590  -0.424  0.00  0.00    +0.209 A 
ATOM      6  N   UNL     1      -0.927  -5.264  -0.134  0.00  0.00    -0.224 N 
BRANCH   2  11
ATOM      7  C   UNL     1      -2.238   0.951  -2.152  0.00  0.00    +0.044 C 
ATOM      8  C   UNL     1      -1.973  -0.517  -1.937  0.00  0.00    -0.050 A 
ATOM      9  C   UNL     1      -1.712  -1.336  -3.021  0.00  0.00    +0.004 A 
ATOM     10  C   UNL     1      -1.469  -2.680  -2.831  0.00  0.00    +0.012 A 
ATOM     11  C   UNL     1      -1.486  -3.214  -1.541  0.00  0.00    +0.021 A 
ATOM     12  C   UNL     1      -1.749  -2.382  -0.452  0.00  0.00    +0.012 A 
ATOM     13  C   UNL     1      -1.986  -1.038  -0.655  0.00  0.00    +0.004 A 
ENDBRANCH   2  11
BRANCH   6  14
ATOM     14  N   UNL     1      -0.810  -4.668   1.090  0.00  0.00    -0.295 N 
ATOM     15  H   UNL     1      -1.697  -4.653   1.571  0.00  0.00    +0.163 HD
ATOM     16  H   UNL     1      -0.104  -5.124   1.648  0.00  0.00    +0.163 HD
ENDBRANCH   6  14
ENDBRANCH   1   5
BRANCH   1  17
ATOM     17  C   UNL     1      -0.320  -9.368  -0.304  0.00  0.00    +0.173 C 
BRANCH  17  18
ATOM     18  C   UNL     1       0.009 -10.556   0.563  0.00  0.00    +0.224 C 
ATOM     19  O   UNL     1       0.183 -10.408   1.754  0.00  0.00    -0.275 OA
ATOM     20  N   UNL     1       0.110 -11.783   0.014  0.00  0.00    -0.305 N 
ATOM     21  H   UNL     1      -0.097 -11.914  -0.924  0.00  0.00    +0.150 HD
BRANCH  20  22
ATOM     22  C   UNL     1       0.531 -12.921   0.836  0.00  0.00    +0.060 C 
ATOM     23  C   UNL     1       1.154 -14.069   0.025  0.00  0.00    +0.030 C 
ATOM     24  C   UNL     1       2.507 -13.364   0.214  0.00  0.00    +0.005 C 
ATOM     25  C   UNL     1       1.913 -12.734   1.484  0.00  0.00    +0.030 C 
BRANCH  22  26
ATOM     26  C   UNL     1      -0.534 -13.370   1.803  0.00  0.00    -0.024 A 
ATOM     27  C   UNL     1      -0.214 -14.240   2.828  0.00  0.00    +0.006 A 
ATOM     28  C   UNL     1      -1.190 -14.652   3.716  0.00  0.00    +0.000 A 
ATOM     29  C   UNL     1      -2.487 -14.194   3.578  0.00  0.00    +0.000 A 
ATOM     30  C   UNL     1      -2.807 -13.323   2.554  0.00  0.00    +0.000 A 
ATOM     31  C   UNL     1      -1.830 -12.907   1.669  0.00  0.00    +0.006 A 
ENDBRANCH  22  26
ENDBRANCH  20  22
ENDBRANCH  17  18
ENDBRANCH   1  17
TORSDOF 7
