REMARK  Name = ZINC05432049
REMARK  5 active torsions:
REMARK  status: ('A' for Active; 'I' for Inactive)
REMARK    1  A    between atoms: C_1  and  C_2
REMARK    2  A    between atoms: C_2  and  C_3
REMARK    3  A    between atoms: C_9  and  C_27
REMARK    4  A    between atoms: C_27  and  O_29
REMARK    5  A    between atoms: O_29  and  C_30
REMARK                            x       y       z     vdW  Elec       q    Type
REMARK                         _______ _______ _______ _____ _____    ______ ____
ROOT
ATOM      1  C   UNL     1      -4.175  -0.436   2.753  0.00  0.00    +0.011 C 
ATOM      2  C   UNL     1      -3.524  -0.837   4.078  0.00  0.00    +0.018 C 
ATOM      3  C   UNL     1      -3.074   0.444   4.800  0.00  0.00    +0.077 C 
ATOM      4  C   UNL     1      -2.069   1.163   3.892  0.00  0.00    +0.039 C 
ATOM      5  C   UNL     1      -2.740   1.623   2.581  0.00  0.00    +0.127 C 
ATOM      6  C   UNL     1      -4.181   1.080   2.583  0.00  0.00    +0.102 C 
ATOM      7  N   UNL     1      -4.814   1.717   3.766  0.00  0.00    -0.296 N 
ATOM      8  C   UNL     1      -4.317   1.320   4.958  0.00  0.00    +0.219 C 
ATOM      9  O   UNL     1      -4.799   1.624   6.029  0.00  0.00    -0.275 OA
ATOM     10  C   UNL     1      -5.777   2.778   3.545  0.00  0.00    +0.113 C 
ATOM     11  C   UNL     1      -5.349   3.452   2.222  0.00  0.00    +0.056 C 
ATOM     12  C   UNL     1      -3.916   3.893   2.408  0.00  0.00    -0.016 A 
ATOM     13  C   UNL     1      -2.836   3.141   2.670  0.00  0.00    +0.039 A 
ATOM     14  N   UNL     1      -1.777   3.943   3.030  0.00  0.00    -0.357 N 
ATOM     15  H   UNL     1      -0.912   3.624   3.332  0.00  0.00    +0.166 HD
ATOM     16  C   UNL     1      -2.128   5.253   2.899  0.00  0.00    +0.047 A 
ATOM     17  C   UNL     1      -3.484   5.283   2.493  0.00  0.00    +0.003 A 
ATOM     18  C   UNL     1      -4.148   6.489   2.256  0.00  0.00    +0.010 A 
ATOM     19  C   UNL     1      -3.423   7.641   2.440  0.00  0.00    +0.001 A 
ATOM     20  C   UNL     1      -2.097   7.619   2.841  0.00  0.00    +0.002 A 
ATOM     21  C   UNL     1      -1.416   6.438   3.081  0.00  0.00    +0.026 A 
ENDROOT
BRANCH   1  23
ATOM     22  C   UNL     1      -5.614  -2.479   2.727  0.00  0.00    +0.004 C 
ATOM     23  C   UNL     1      -5.616  -0.949   2.722  0.00  0.00    +0.002 C 
ENDBRANCH   1  23
BRANCH   5  24
ATOM     24  C   UNL     1      -1.970   1.175   1.365  0.00  0.00    +0.321 C 
ATOM     25  O   UNL     1      -2.502   0.475   0.537  0.00  0.00    -0.250 OA
BRANCH  24  26
ATOM     26  O   UNL     1      -0.692   1.554   1.203  0.00  0.00    -0.467 OA
ATOM     27  C   UNL     1      -0.013   1.086   0.008  0.00  0.00    +0.280 C 
ENDBRANCH  24  26
ENDBRANCH   5  24
TORSDOF 3
