REMARK  Name = ZINC00633769
REMARK  3 active torsions:
REMARK  status: ('A' for Active; 'I' for Inactive)
REMARK    1  A    between atoms: C_1  and  C_2
REMARK    2  A    between atoms: C_7  and  C_19
REMARK    3  A    between atoms: C_10  and  C_12
REMARK                            x       y       z     vdW  Elec       q    Type
REMARK                         _______ _______ _______ _____ _____    ______ ____
ROOT
ATOM      1  C   UNL     1      -0.018   1.503   0.010  0.00  0.00    +0.090 C 
ATOM      2  C   UNL     1       0.002  -0.004   0.002  0.00  0.00    +0.150 A 
ATOM      3  N   UNL     1       0.008  -0.768  -1.091  0.00  0.00    -0.195 NA
ATOM      4  C   UNL     1       0.025  -2.032  -0.747  0.00  0.00    +0.250 A 
ATOM      5  N   UNL     1       0.037  -2.084   0.621  0.00  0.00    -0.221 N 
ATOM      6  N   UNL     1       0.023  -0.768   1.070  0.00  0.00    -0.153 NA
ATOM      7  C   UNL     1       0.074  -3.345   1.362  0.00  0.00    +0.148 C 
ATOM      8  C   UNL     1      -0.618  -4.415   0.510  0.00  0.00    +0.088 C 
ATOM      9  C   UNL     1      -0.211  -4.306  -0.932  0.00  0.00    +0.055 C 
ATOM     10  N   UNL     1       0.051  -3.161  -1.504  0.00  0.00    -0.215 NA
ENDROOT
BRANCH   9  11
ATOM     11  C   UNL     1      -0.102  -5.536  -1.731  0.00  0.00    -0.003 A 
ATOM     12  C   UNL     1      -0.381  -6.778  -1.151  0.00  0.00    +0.011 A 
ATOM     13  C   UNL     1      -0.278  -7.927  -1.906  0.00  0.00    +0.016 A 
ATOM     14  C   UNL     1       0.102  -7.853  -3.236  0.00  0.00    +0.018 A 
ATOM     15  C   UNL     1       0.380  -6.627  -3.817  0.00  0.00    +0.016 A 
ATOM     16  C   UNL     1       0.275  -5.470  -3.076  0.00  0.00    +0.011 A 
ATOM     17 BR   UNL     1       0.241  -9.435  -4.263  0.00  0.00    -0.050 Br
ENDBRANCH   9  11
BRANCH   7  18
ATOM     18  C   UNL     1       1.505  -3.743   1.618  0.00  0.00    -0.004 A 
ATOM     19  C   UNL     1       2.365  -3.954   0.556  0.00  0.00    +0.007 A 
ATOM     20  C   UNL     1       3.677  -4.319   0.791  0.00  0.00    +0.000 A 
ATOM     21  C   UNL     1       4.131  -4.474   2.088  0.00  0.00    +0.001 A 
ATOM     22  C   UNL     1       3.272  -4.263   3.150  0.00  0.00    +0.020 A 
ATOM     23  C   UNL     1       1.960  -3.892   2.916  0.00  0.00    +0.046 A 
ATOM     24 CL   UNL     1       0.883  -3.621   4.250  0.00  0.00    -0.083 Cl
ENDBRANCH   7  18
TORSDOF 2
