REMARK  Name = ZINC47550014
REMARK  7 active torsions:
REMARK  status: ('A' for Active; 'I' for Inactive)
REMARK    1  A    between atoms: C_2  and  N_9
REMARK    2  A    between atoms: C_10  and  C_12
REMARK    3  A    between atoms: C_12  and  N_13
REMARK    4  A    between atoms: N_13  and  C_14
REMARK    5  A    between atoms: N_13  and  C_26
REMARK    6  A    between atoms: C_14  and  C_15
REMARK    7  A    between atoms: N_17  and  C_18
REMARK                            x       y       z     vdW  Elec       q    Type
REMARK                         _______ _______ _______ _____ _____    ______ ____
ROOT
ATOM      1  N   UNL     1       3.757   6.066  -0.170  0.00  0.00    +0.393 N 
ATOM      2  H   UNL     1       4.279   5.812  -0.995  0.00  0.00    -0.080 HD
ENDROOT
BRANCH   1   3
ATOM      3  C   UNL     1       4.522   5.689   1.027  0.00  0.00    -0.067 C 
ATOM      4  C   UNL     1       5.939   5.151   0.819  0.00  0.00    -0.017 C 
ATOM      5  C   UNL     1       4.814   4.202   1.239  0.00  0.00    -0.017 C 
ENDBRANCH   1   3
BRANCH   1   6
ATOM      6  C   UNL     1       2.468   5.362  -0.169  0.00  0.00    +0.020 C 
BRANCH   6   8
ATOM      7  N   UNL     1       0.493   5.178  -1.647  0.00  0.00    -0.287 N 
ATOM      8  C   UNL     1       1.754   5.620  -1.470  0.00  0.00    +0.201 C 
ATOM      9  O   UNL     1       2.314   6.226  -2.359  0.00  0.00    -0.278 OA
ATOM     10  H   UNL     1       0.018   4.761  -0.911  0.00  0.00    +0.155 HD
BRANCH   7  12
ATOM     11  C   UNL     1      -1.496   5.561  -2.961  0.00  0.00    +0.061 A 
ATOM     12  C   UNL     1      -0.131   5.319  -2.891  0.00  0.00    +0.039 A 
ATOM     13  C   UNL     1       0.616   5.218  -4.058  0.00  0.00    +0.061 A 
ATOM     14  C   UNL     1      -0.003   5.359  -5.287  0.00  0.00    +0.128 A 
ATOM     15  C   UNL     1      -1.365   5.600  -5.355  0.00  0.00    +0.076 A 
ATOM     16  C   UNL     1      -2.111   5.701  -4.193  0.00  0.00    +0.128 A 
ATOM     17  F   UNL     1      -3.439   5.936  -4.261  0.00  0.00    -0.205 F 
ATOM     18  F   UNL     1       0.723   5.262  -6.423  0.00  0.00    -0.205 F 
ENDBRANCH   7  12
ENDBRANCH   6   8
ENDBRANCH   1   6
BRANCH   1  19
ATOM     19  C   UNL     1       3.524   7.516  -0.165  0.00  0.00    +0.020 C 
BRANCH  19  20
ATOM     20  C   UNL     1       4.841   8.238  -0.289  0.00  0.00    +0.201 C 
ATOM     21  O   UNL     1       5.873   7.606  -0.374  0.00  0.00    -0.278 OA
ATOM     22  N   UNL     1       4.872   9.585  -0.307  0.00  0.00    -0.287 N 
ATOM     23  H   UNL     1       4.057  10.091  -0.165  0.00  0.00    +0.155 HD
BRANCH  22  24
ATOM     24  C   UNL     1       6.081  10.254  -0.530  0.00  0.00    +0.039 A 
ATOM     25  C   UNL     1       7.040   9.695  -1.364  0.00  0.00    +0.061 A 
ATOM     26  C   UNL     1       8.235  10.358  -1.584  0.00  0.00    +0.128 A 
ATOM     27  C   UNL     1       8.474  11.577  -0.972  0.00  0.00    +0.076 A 
ATOM     28  C   UNL     1       7.518  12.135  -0.140  0.00  0.00    +0.128 A 
ATOM     29  C   UNL     1       6.320  11.479   0.077  0.00  0.00    +0.061 A 
ATOM     30  F   UNL     1       7.754  13.324   0.457  0.00  0.00    -0.205 F 
ATOM     31  F   UNL     1       9.169   9.816  -2.396  0.00  0.00    -0.205 F 
ENDBRANCH  22  24
ENDBRANCH  19  20
ENDBRANCH   1  19
TORSDOF 7
