REMARK  Name = ZINC46834066
REMARK  9 active torsions:
REMARK  status: ('A' for Active; 'I' for Inactive)
REMARK    1  A    between atoms: C_1  and  C_2
REMARK    2  A    between atoms: C_2  and  C_4
REMARK    3  A    between atoms: C_2  and  N_17
REMARK    4  A    between atoms: N_9  and  C_10
REMARK    5  A    between atoms: C_10  and  C_11
REMARK    6  A    between atoms: N_17  and  C_18
REMARK    7  A    between atoms: C_25  and  C_27
REMARK    8  A    between atoms: C_27  and  C_28
REMARK    9  A    between atoms: C_27  and  C_29
REMARK                            x       y       z     vdW  Elec       q    Type
REMARK                         _______ _______ _______ _____ _____    ______ ____
ROOT
ATOM      1  C   UNL     1      -0.019   1.526   0.010  0.00  0.00    +0.038 C 
ATOM      2  C   UNL     1       0.002  -0.004   0.002  0.00  0.00    +0.154 C 
ENDROOT
BRANCH   2   3
ATOM      3  C   UNL     1       0.731  -0.503   1.223  0.00  0.00    +0.240 C 
ATOM      4  O   UNL     1       1.725  -1.186   1.099  0.00  0.00    -0.273 OA
ATOM      5  N   UNL     1       0.278  -0.191   2.453  0.00  0.00    -0.239 N 
ATOM      6  C   UNL     1       0.930  -0.637   3.545  0.00  0.00    +0.306 C 
ATOM      7  O   UNL     1       1.926  -1.322   3.420  0.00  0.00    -0.252 OA
ATOM      8  N   UNL     1       0.476  -0.324   4.775  0.00  0.00    -0.297 N 
ATOM      9  H   UNL     1      -0.517   0.356   2.553  0.00  0.00    +0.159 HD
ATOM     10  H   UNL     1      -0.319   0.222   4.875  0.00  0.00    +0.150 HD
BRANCH   8  11
ATOM     11  C   UNL     1       1.185  -0.810   5.962  0.00  0.00    +0.137 C 
BRANCH  11  12
ATOM     12  C   UNL     1       0.469  -0.316   7.221  0.00  0.00    +0.135 C 
ATOM     13  C   UNL     1       1.275  -0.720   8.474  0.00  0.00    +0.035 C 
ATOM     14  C   UNL     1       0.153  -1.116   9.473  0.00  0.00    +0.031 C 
ATOM     15  C   UNL     1      -0.895  -1.728   8.511  0.00  0.00    +0.160 C 
ATOM     16  O   UNL     1      -0.822  -0.929   7.317  0.00  0.00    -0.375 OA
ENDBRANCH  11  12
ENDBRANCH   8  11
ENDBRANCH   2   3
BRANCH   2  17
ATOM     17  N   UNL     1       0.688  -0.476  -1.203  0.00  0.00    -0.333 N 
ATOM     18  H   UNL     1       1.632  -0.695  -1.170  0.00  0.00    +0.147 HD
BRANCH  17  19
ATOM     19  C   UNL     1      -0.020  -0.613  -2.402  0.00  0.00    +0.030 A 
ATOM     20  C   UNL     1      -1.375  -0.294  -2.449  0.00  0.00    +0.026 A 
ATOM     21  C   UNL     1      -2.083  -0.424  -3.624  0.00  0.00    +0.050 A 
ATOM     22  C   UNL     1      -1.445  -0.875  -4.770  0.00  0.00    +0.155 A 
ATOM     23  C   UNL     1      -0.081  -1.199  -4.731  0.00  0.00    +0.111 A 
ATOM     24  C   UNL     1       0.630  -1.059  -3.539  0.00  0.00    +0.054 A 
ATOM     25  N   UNL     1       0.257  -1.605  -5.986  0.00  0.00    -0.213 NA
ATOM     26  C   UNL     1      -0.797  -1.544  -6.743  0.00  0.00    +0.199 A 
ATOM     27  O   UNL     1      -1.851  -1.104  -6.040  0.00  0.00    -0.439 OA
BRANCH  26  28
ATOM     28  C   UNL     1      -0.830  -1.912  -8.204  0.00  0.00    +0.069 C 
ATOM     29  C   UNL     1      -1.829  -3.050  -8.421  0.00  0.00    +0.017 C 
ATOM     30  C   UNL     1      -1.255  -0.695  -9.028  0.00  0.00    +0.017 C 
ENDBRANCH  26  28
ENDBRANCH  17  19
ENDBRANCH   2  17
TORSDOF 6
