REMARK  Name = ZINC38756865
REMARK  4 active torsions:
REMARK  status: ('A' for Active; 'I' for Inactive)
REMARK    1  A    between atoms: C_1  and  C_2
REMARK    2  A    between atoms: C_8  and  N_10
REMARK    3  A    between atoms: C_11  and  C_13
REMARK    4  A    between atoms: C_13  and  C_14
REMARK                            x       y       z     vdW  Elec       q    Type
REMARK                         _______ _______ _______ _____ _____    ______ ____
ROOT
ATOM      1  C   UNL     1       4.701   0.818   3.816  0.00  0.00    +0.112 C 
ATOM      2  C   UNL     1       3.742   1.771   4.566  0.00  0.00    +0.103 C 
ATOM      3  S   UNL     1       4.961   2.585   5.681  0.00  0.00    -0.086 S 
ATOM      4  C   UNL     1       6.431   2.253   4.729  0.00  0.00    +0.172 A 
ATOM      5  N   UNL     1       6.077   1.326   3.792  0.00  0.00    -0.283 N 
ATOM      6  C   UNL     1       7.051   0.946   2.914  0.00  0.00    +0.258 A 
ATOM      7  O   UNL     1       6.793   0.139   2.036  0.00  0.00    -0.267 OA
ATOM      8  C   UNL     1       8.349   1.476   3.014  0.00  0.00    +0.038 A 
ATOM      9  C   UNL     1       8.620   2.382   3.988  0.00  0.00    +0.052 A 
ATOM     10  N   UNL     1       7.645   2.739   4.823  0.00  0.00    -0.228 NA
ATOM     11  C   UNL     1       9.976   3.011   4.168  0.00  0.00    +0.056 C 
ATOM     12  C   UNL     1      11.044   2.201   3.435  0.00  0.00    +0.006 C 
ATOM     13  C   UNL     1      10.570   1.971   1.995  0.00  0.00    +0.005 C 
ATOM     14  C   UNL     1       9.385   1.008   2.026  0.00  0.00    +0.042 C 
ENDROOT
BRANCH   1  15
ATOM     15  C   UNL     1       4.209   0.649   2.377  0.00  0.00    +0.121 C 
BRANCH  15  17
ATOM     16  N   UNL     1       2.132  -0.056   1.234  0.00  0.00    -0.312 N 
ATOM     17  C   UNL     1       2.819   0.067   2.387  0.00  0.00    +0.215 C 
ATOM     18  O   UNL     1       2.318  -0.291   3.432  0.00  0.00    -0.276 OA
ATOM     19  H   UNL     1       2.532   0.230   0.398  0.00  0.00    +0.149 HD
BRANCH  16  26
ATOM     20  C   UNL     1      -0.082   1.419   0.089  0.00  0.00    +0.009 C 
ATOM     21  C   UNL     1       0.004  -0.108   0.030  0.00  0.00    +0.006 C 
ATOM     22  C   UNL     1       0.724  -0.529  -1.252  0.00  0.00    +0.005 C 
ATOM     23  C   UNL     1       0.810  -2.055  -1.312  0.00  0.00    +0.000 C 
ATOM     24  C   UNL     1       1.587  -2.569  -0.098  0.00  0.00    +0.002 C 
ATOM     25  C   UNL     1       0.867  -2.148   1.185  0.00  0.00    +0.022 C 
ATOM     26  C   UNL     1       0.781  -0.622   1.244  0.00  0.00    +0.076 C 
ENDBRANCH  16  26
ENDBRANCH  15  17
ENDBRANCH   1  15
TORSDOF 3
