REMARK  Name = ZINC00975846
REMARK  8 active torsions:
REMARK  status: ('A' for Active; 'I' for Inactive)
REMARK    1  A    between atoms: C_1  and  O_2
REMARK    2  A    between atoms: O_2  and  C_3
REMARK    3  A    between atoms: C_7  and  C_10
REMARK    4  A    between atoms: C_8  and  O_9
REMARK    5  A    between atoms: N_11  and  N_12
REMARK    6  A    between atoms: C_13  and  C_15
REMARK    7  A    between atoms: C_15  and  N_16
REMARK    8  A    between atoms: N_16  and  C_17
REMARK                            x       y       z     vdW  Elec       q    Type
REMARK                         _______ _______ _______ _____ _____    ______ ____
ROOT
ATOM      1  N   UNL     1       0.932  -6.219   1.355  0.00  0.00    -0.206 N 
ATOM      2  C   UNL     1       0.376  -6.964   0.380  0.00  0.00    +0.249 C 
ATOM      3  O   UNL     1      -0.183  -6.424  -0.552  0.00  0.00    -0.272 OA
ATOM      4  H   UNL     1       1.379  -6.651   2.100  0.00  0.00    +0.177 HD
ENDROOT
BRANCH   1   6
ATOM      5  C   UNL     1       1.401  -4.103   2.233  0.00  0.00    +0.142 C 
ATOM      6  N   UNL     1       0.865  -4.821   1.294  0.00  0.00    -0.188 NA
BRANCH   5  11
ATOM      7  C   UNL     1       0.626  -0.619   1.042  0.00  0.00    +0.163 A 
ATOM      8  C   UNL     1       1.202   0.139   2.050  0.00  0.00    +0.064 A 
ATOM      9  C   UNL     1       1.839  -0.480   3.113  0.00  0.00    +0.022 A 
ATOM     10  C   UNL     1       1.907  -1.857   3.178  0.00  0.00    +0.028 A 
ATOM     11  C   UNL     1       1.331  -2.633   2.168  0.00  0.00    +0.041 A 
ATOM     12  C   UNL     1       0.682  -2.006   1.097  0.00  0.00    +0.167 A 
ATOM     13 BR   UNL     1       2.619   0.566   4.481  0.00  0.00    -0.050 Br
BRANCH   7  15
ATOM     14  C   UNL     1      -0.017   1.425   0.010  0.00  0.00    +0.277 C 
ATOM     15  O   UNL     1       0.002  -0.004   0.002  0.00  0.00    -0.491 OA
ENDBRANCH   7  15
BRANCH  12  16
ATOM     16  O   UNL     1       0.114  -2.752   0.113  0.00  0.00    -0.503 OA
ATOM     17  H   UNL     1       0.711  -2.954  -0.621  0.00  0.00    +0.292 HD
ENDBRANCH  12  16
ENDBRANCH   5  11
ENDBRANCH   1   6
BRANCH   2  18
ATOM     18  C   UNL     1       0.448  -8.468   0.446  0.00  0.00    +0.199 C 
BRANCH  18  19
ATOM     19  N   UNL     1      -0.225  -9.041  -0.722  0.00  0.00    -0.335 N 
ATOM     20  H   UNL     1      -0.627  -8.458  -1.385  0.00  0.00    +0.147 HD
BRANCH  19  21
ATOM     21  C   UNL     1      -0.288 -10.427  -0.881  0.00  0.00    +0.028 A 
ATOM     22  C   UNL     1       0.290 -11.262   0.083  0.00  0.00    +0.023 A 
ATOM     23  C   UNL     1       0.243 -12.614  -0.047  0.00  0.00    +0.010 A 
ATOM     24  C   UNL     1      -0.392 -13.190  -1.161  0.00  0.00    -0.018 A 
ATOM     25  C   UNL     1      -0.456 -14.585  -1.320  0.00  0.00    +0.008 A 
ATOM     26  C   UNL     1      -1.079 -15.111  -2.410  0.00  0.00    +0.001 A 
ATOM     27  C   UNL     1      -1.657 -14.287  -3.374  0.00  0.00    +0.001 A 
ATOM     28  C   UNL     1      -1.615 -12.932  -3.254  0.00  0.00    +0.008 A 
ATOM     29  C   UNL     1      -0.980 -12.352  -2.141  0.00  0.00    -0.016 A 
ATOM     30  C   UNL     1      -0.923 -10.958  -1.982  0.00  0.00    +0.031 A 
ENDBRANCH  19  21
ENDBRANCH  18  19
ENDBRANCH   2  18
TORSDOF 7
