REMARK  Name = ZINC12292111
REMARK  7 active torsions:
REMARK  status: ('A' for Active; 'I' for Inactive)
REMARK    1  A    between atoms: C_1  and  C_2
REMARK    2  A    between atoms: C_7  and  C_8
REMARK    3  A    between atoms: C_8  and  O_27
REMARK    4  A    between atoms: C_13  and  C_14
REMARK    5  A    between atoms: C_13  and  N_54
REMARK    6  A    between atoms: C_14  and  C_16
REMARK    7  A    between atoms: C_14  and  O_26
REMARK                            x       y       z     vdW  Elec       q    Type
REMARK                         _______ _______ _______ _____ _____    ______ ____
ROOT
ATOM      1  C   UNL     1      -7.273  -3.687  -2.216  0.00  0.00    +0.088 C 
ATOM      2  C   UNL     1      -7.530  -2.200  -2.475  0.00  0.00    +0.021 C 
ATOM      3  C   UNL     1      -6.192  -1.476  -2.635  0.00  0.00    -0.076 C 
ATOM      4  C   UNL     1      -5.092  -3.064  -1.171  0.00  0.00    -0.076 C 
ATOM      5  C   UNL     1      -6.398  -3.835  -0.968  0.00  0.00    +0.021 C 
ATOM      6  N   UNL     1      -5.408  -1.636  -1.392  0.00  0.00    +0.382 N 
ATOM      7  H   UNL     1      -5.964  -1.292  -0.600  0.00  0.00    -0.082 HD
ENDROOT
BRANCH   1  14
ATOM      8  C   UNL     1      -7.302  -6.463  -1.415  0.00  0.00    +0.044 C 
ATOM      9  C   UNL     1      -8.600  -5.722  -1.615  0.00  0.00    -0.045 A 
ATOM     10  C   UNL     1      -9.804  -6.370  -1.411  0.00  0.00    +0.004 A 
ATOM     11  C   UNL     1     -10.994  -5.693  -1.599  0.00  0.00    +0.000 A 
ATOM     12  C   UNL     1     -10.980  -4.366  -1.986  0.00  0.00    +0.000 A 
ATOM     13  C   UNL     1      -9.776  -3.717  -2.186  0.00  0.00    +0.007 A 
ATOM     14  C   UNL     1      -8.586  -4.394  -1.998  0.00  0.00    -0.013 A 
ENDBRANCH   1  14
BRANCH   1  15
ATOM     15  O   UNL     1      -6.602  -4.258  -3.340  0.00  0.00    -0.384 OA
ATOM     16  H   UNL     1      -6.523  -5.221  -3.303  0.00  0.00    +0.211 HD
ENDBRANCH   1  15
BRANCH   6  17
ATOM     17  C   UNL     1      -4.159  -0.851  -1.478  0.00  0.00    -0.042 C 
BRANCH  17  18
ATOM     18  C   UNL     1      -3.480  -0.854  -0.107  0.00  0.00    +0.128 C 
BRANCH  18  19
ATOM     19  C   UNL     1      -2.215  -0.038  -0.171  0.00  0.00    -0.017 A 
ATOM     20  C   UNL     1      -2.268   1.332   0.006  0.00  0.00    +0.010 A 
ATOM     21  C   UNL     1      -1.111   2.085  -0.058  0.00  0.00    +0.050 A 
ATOM     22  C   UNL     1       0.109   1.466  -0.291  0.00  0.00    +0.162 A 
ATOM     23  C   UNL     1       0.163   0.089  -0.467  0.00  0.00    +0.162 A 
ATOM     24  C   UNL     1      -1.003  -0.660  -0.406  0.00  0.00    +0.055 A 
ATOM     25  O   UNL     1       1.348  -0.539  -0.696  0.00  0.00    -0.485 OA
ATOM     26  C   UNL     1       2.440   0.285  -1.122  0.00  0.00    +0.270 C 
ATOM     27  C   UNL     1       2.485   1.526  -0.220  0.00  0.00    +0.270 C 
ATOM     28  O   UNL     1       1.240   2.221  -0.351  0.00  0.00    -0.485 OA
ENDBRANCH  18  19
BRANCH  18  29
ATOM     29  O   UNL     1      -4.363  -0.289   0.864  0.00  0.00    -0.389 OA
ATOM     30  H   UNL     1      -4.622   0.624   0.675  0.00  0.00    +0.210 HD
ENDBRANCH  18  29
ENDBRANCH  17  18
ENDBRANCH   6  17
TORSDOF 6
