REMARK  Name = ZINC04766413
REMARK  12 active torsions:
REMARK  status: ('A' for Active; 'I' for Inactive)
REMARK    1  A    between atoms: C_1  and  C_2
REMARK    2  A    between atoms: C_7  and  C_22
REMARK    3  A    between atoms: C_9  and  C_13
REMARK    4  A    between atoms: C_10  and  C_12
REMARK    5  A    between atoms: C_13  and  O_15
REMARK    6  A    between atoms: O_15  and  C_16
REMARK    7  A    between atoms: C_25  and  O_30
REMARK    8  A    between atoms: C_26  and  O_28
REMARK    9  A    between atoms: O_28  and  C_29
REMARK   10  A    between atoms: C_33  and  C_35
REMARK   11  A    between atoms: C_35  and  O_37
REMARK   12  A    between atoms: O_37  and  C_38
REMARK                            x       y       z     vdW  Elec       q    Type
REMARK                         _______ _______ _______ _____ _____    ______ ____
ROOT
ATOM      1  C   UNL     1       0.686   1.691  -0.429  0.00  0.00    +0.009 C 
ATOM      2  C   UNL     1       0.453   0.181  -0.335  0.00  0.00    +0.013 C 
ATOM      3  C   UNL     1       1.212  -0.527  -1.459  0.00  0.00    +0.055 C 
ATOM      4  C   UNL     1       1.024  -2.019  -1.335  0.00  0.00    +0.016 C 
ATOM      5  C   UNL     1       0.851  -2.600  -0.129  0.00  0.00    +0.025 C 
ATOM      6  C   UNL     1       0.676  -4.093  -0.011  0.00  0.00    +0.092 C 
ATOM      7  C   UNL     1       0.297  -4.697  -1.332  0.00  0.00    +0.065 C 
ATOM      8  C   UNL     1       0.489  -4.030  -2.483  0.00  0.00    +0.016 C 
ATOM      9  N   UNL     1       1.030  -2.775  -2.476  0.00  0.00    -0.321 N 
ATOM     10  C   UNL     1       0.103  -4.671  -3.792  0.00  0.00    +0.061 C 
ATOM     11  C   UNL     1       0.825  -1.833   1.049  0.00  0.00    +0.176 C 
ATOM     12  O   UNL     1       0.678  -2.388   2.120  0.00  0.00    -0.291 OA
ATOM     13  C   UNL     1       0.973  -0.336   1.010  0.00  0.00    +0.171 C 
ATOM     14  H   UNL     1       1.423  -2.417  -3.287  0.00  0.00    +0.152 HD
ENDROOT
BRANCH   6  15
ATOM     15  C   UNL     1       1.970  -4.707   0.460  0.00  0.00    -0.032 A 
ATOM     16  C   UNL     1       3.120  -4.553  -0.292  0.00  0.00    +0.008 A 
ATOM     17  C   UNL     1       4.309  -5.115   0.135  0.00  0.00    +0.049 A 
ATOM     18  C   UNL     1       4.349  -5.833   1.320  0.00  0.00    +0.158 A 
ATOM     19  C   UNL     1       3.192  -5.987   2.076  0.00  0.00    +0.162 A 
ATOM     20  C   UNL     1       2.005  -5.418   1.645  0.00  0.00    +0.054 A 
BRANCH  19  21
ATOM     21  O   UNL     1       3.227  -6.691   3.239  0.00  0.00    -0.491 OA
ATOM     22  C   UNL     1       2.001  -6.809   3.964  0.00  0.00    +0.277 C 
ENDBRANCH  19  21
BRANCH  18  23
ATOM     23  O   UNL     1       5.518  -6.386   1.741  0.00  0.00    -0.503 OA
ATOM     24  H   UNL     1       6.047  -5.806   2.306  0.00  0.00    +0.292 HD
ENDBRANCH  18  23
ENDBRANCH   6  15
BRANCH   7  25
ATOM     25  C   UNL     1      -0.271  -5.991  -1.365  0.00  0.00    +0.338 C 
ATOM     26  O   UNL     1      -0.694  -6.443  -2.413  0.00  0.00    -0.245 OA
BRANCH  25  27
ATOM     27  O   UNL     1      -0.344  -6.726  -0.236  0.00  0.00    -0.458 OA
BRANCH  27  28
ATOM     28  C   UNL     1      -0.931  -8.024  -0.343  0.00  0.00    +0.177 C 
ATOM     29  C   UNL     1      -2.438  -7.925  -0.100  0.00  0.00    +0.044 C 
ATOM     30  C   UNL     1      -3.066  -9.316  -0.214  0.00  0.00    +0.004 C 
ATOM     31  C   UNL     1      -2.441 -10.245   0.828  0.00  0.00    +0.000 C 
ATOM     32  C   UNL     1      -0.934 -10.344   0.585  0.00  0.00    +0.004 C 
ATOM     33  C   UNL     1      -0.306  -8.954   0.699  0.00  0.00    +0.044 C 
ENDBRANCH  27  28
ENDBRANCH  25  27
ENDBRANCH   7  25
BRANCH  13  34
ATOM     34  C   UNL     1       0.177   0.283   2.131  0.00  0.00    +0.318 C 
ATOM     35  O   UNL     1      -0.715   1.058   1.881  0.00  0.00    -0.250 OA
BRANCH  34  36
ATOM     36  O   UNL     1       0.459  -0.028   3.406  0.00  0.00    -0.467 OA
ATOM     37  C   UNL     1      -0.336   0.596   4.416  0.00  0.00    +0.280 C 
ENDBRANCH  34  36
ENDBRANCH  13  34
TORSDOF 8
