REMARK  Name = ZINC09541843
REMARK  5 active torsions:
REMARK  status: ('A' for Active; 'I' for Inactive)
REMARK    1  A    between atoms: C_1  and  C_2
REMARK    2  A    between atoms: C_5  and  C_8
REMARK    3  A    between atoms: C_10  and  C_22
REMARK    4  A    between atoms: C_13  and  C_15
REMARK    5  A    between atoms: C_27  and  O_28
REMARK                            x       y       z     vdW  Elec       q    Type
REMARK                         _______ _______ _______ _____ _____    ______ ____
ROOT
ATOM      1  C   UNL     1      -3.630  -1.132   0.004  0.00  0.00    +0.081 C 
ATOM      2  C   UNL     1      -4.946   0.856  -0.359  0.00  0.00    -0.028 C 
ATOM      3  C   UNL     1      -3.790   1.783   0.030  0.00  0.00    +0.044 C 
ATOM      4  C   UNL     1      -2.501   1.009   0.020  0.00  0.00    +0.040 C 
ATOM      5  N   UNL     1      -2.454  -0.270   0.008  0.00  0.00    -0.299 NA
ATOM      6  N   UNL     1      -4.826  -0.387   0.426  0.00  0.00    +0.401 N 
ATOM      7  H   UNL     1      -4.748  -0.154   1.423  0.00  0.00    -0.081 HD
ATOM      8  H   UNL     1      -5.659  -0.968   0.275  0.00  0.00    -0.081 HD
ENDROOT
BRANCH   1  13
ATOM      9  C   UNL     1      -2.778  -5.550   3.631  0.00  0.00    +0.044 C 
ATOM     10  C   UNL     1      -3.000  -4.397   2.685  0.00  0.00    -0.050 A 
ATOM     11  C   UNL     1      -1.923  -3.801   2.058  0.00  0.00    +0.003 A 
ATOM     12  C   UNL     1      -2.126  -2.744   1.190  0.00  0.00    +0.004 A 
ATOM     13  C   UNL     1      -3.408  -2.284   0.950  0.00  0.00    -0.040 A 
ATOM     14  C   UNL     1      -4.485  -2.877   1.581  0.00  0.00    +0.004 A 
ATOM     15  C   UNL     1      -4.282  -3.937   2.445  0.00  0.00    +0.003 A 
ENDBRANCH   1  13
BRANCH   4  16
ATOM     16  C   UNL     1      -1.230   1.759   0.017  0.00  0.00    -0.003 A 
ATOM     17  C   UNL     1      -1.240   3.155   0.030  0.00  0.00    +0.010 A 
ATOM     18  C   UNL     1      -0.049   3.851   0.022  0.00  0.00    +0.002 A 
ATOM     19  C   UNL     1       1.155   3.168   0.007  0.00  0.00    +0.015 A 
ATOM     20  C   UNL     1       1.173   1.784   0.000  0.00  0.00    +0.018 A 
ATOM     21  C   UNL     1      -0.013   1.076   0.008  0.00  0.00    +0.025 A 
ATOM     22 BR   UNL     1       2.823   0.861  -0.020  0.00  0.00    -0.050 Br
ENDBRANCH   4  16
BRANCH   2  23
ATOM     23  C   UNL     1      -6.260   1.525  -0.048  0.00  0.00    -0.019 A 
ATOM     24  C   UNL     1      -6.902   1.266   1.148  0.00  0.00    +0.005 A 
ATOM     25  C   UNL     1      -8.105   1.882   1.436  0.00  0.00    +0.000 A 
ATOM     26  C   UNL     1      -8.675   2.751   0.524  0.00  0.00    +0.004 A 
ATOM     27  C   UNL     1      -8.040   3.010  -0.676  0.00  0.00    +0.045 A 
ATOM     28  C   UNL     1      -6.830   2.396  -0.965  0.00  0.00    +0.118 A 
BRANCH  28  29
ATOM     29  O   UNL     1      -6.204   2.648  -2.144  0.00  0.00    -0.507 OA
ATOM     30  H   UNL     1      -6.454   2.047  -2.859  0.00  0.00    +0.292 HD
ENDBRANCH  28  29
ENDBRANCH   2  23
TORSDOF 4
