REMARK  Name = ZINC08267368
REMARK  4 active torsions:
REMARK  status: ('A' for Active; 'I' for Inactive)
REMARK    1  A    between atoms: C_8  and  C_10
REMARK    2  A    between atoms: C_13  and  N_16
REMARK    3  A    between atoms: C_17  and  C_19
REMARK    4  A    between atoms: C_19  and  N_20
REMARK                            x       y       z     vdW  Elec       q    Type
REMARK                         _______ _______ _______ _____ _____    ______ ____
ROOT
ATOM      1  N   UNL     1       0.585  -0.664  -1.018  0.00  0.00    -0.284 N 
ATOM      2  C   UNL     1      -0.143  -0.018  -0.086  0.00  0.00    +0.235 C 
ATOM      3  O   UNL     1      -0.779  -0.649   0.732  0.00  0.00    -0.274 OA
ATOM      4  H   UNL     1       1.032  -0.163  -1.718  0.00  0.00    +0.155 HD
ENDROOT
BRANCH   1   8
ATOM      5  C   UNL     1       0.919  -4.817  -0.892  0.00  0.00    +0.007 A 
ATOM      6  C   UNL     1       0.906  -4.153  -2.120  0.00  0.00    +0.012 A 
ATOM      7  C   UNL     1       0.795  -2.780  -2.159  0.00  0.00    +0.024 A 
ATOM      8  C   UNL     1       0.697  -2.056  -0.976  0.00  0.00    +0.033 A 
ATOM      9  C   UNL     1       0.715  -2.714   0.249  0.00  0.00    +0.024 A 
ATOM     10  C   UNL     1       0.820  -4.087   0.294  0.00  0.00    +0.012 A 
BRANCH   5  18
ATOM     11  C   UNL     1       1.455 -10.793  -2.275  0.00  0.00    +0.002 A 
ATOM     12  C   UNL     1       1.442 -11.185  -0.943  0.00  0.00    +0.001 A 
ATOM     13  C   UNL     1       1.331 -10.224   0.045  0.00  0.00    +0.017 A 
ATOM     14  C   UNL     1       1.234  -8.900  -0.309  0.00  0.00    +0.040 A 
ATOM     15  C   UNL     1       1.245  -8.470  -1.657  0.00  0.00    +0.079 A 
ATOM     16  C   UNL     1       1.361  -9.486  -2.635  0.00  0.00    +0.029 A 
ATOM     17  N   UNL     1       1.136  -7.140  -1.846  0.00  0.00    -0.239 NA
ATOM     18  C   UNL     1       1.038  -6.289  -0.847  0.00  0.00    +0.109 A 
ATOM     19  S   UNL     1       1.079  -7.368   0.577  0.00  0.00    -0.067 S 
ENDBRANCH   5  18
ENDBRANCH   1   8
BRANCH   2  20
ATOM     20  C   UNL     1      -0.167   1.488  -0.060  0.00  0.00    +0.209 C 
BRANCH  20  21
ATOM     21  N   UNL     1      -1.024   1.944   1.038  0.00  0.00    -0.257 N 
ATOM     22  C   UNL     1      -2.392   2.168   0.827  0.00  0.00    +0.079 A 
ATOM     23  C   UNL     1      -3.025   1.674  -0.301  0.00  0.00    +0.027 A 
ATOM     24  C   UNL     1      -4.375   1.908  -0.490  0.00  0.00    +0.002 A 
ATOM     25  C   UNL     1      -5.093   2.632   0.443  0.00  0.00    +0.004 A 
ATOM     26  C   UNL     1      -4.470   3.118   1.574  0.00  0.00    +0.047 A 
ATOM     27  C   UNL     1      -3.118   2.893   1.769  0.00  0.00    +0.143 A 
ATOM     28  O   UNL     1      -2.486   3.377   2.872  0.00  0.00    -0.481 OA
ATOM     29  C   UNL     1      -1.411   2.592   3.393  0.00  0.00    +0.325 C 
ATOM     30  C   UNL     1      -0.507   2.159   2.267  0.00  0.00    +0.258 C 
ATOM     31  O   UNL     1       0.680   2.005   2.464  0.00  0.00    -0.271 OA
ENDBRANCH  20  21
ENDBRANCH   2  20
TORSDOF 4
