REMARK  Name = ZINC06483931
REMARK  5 active torsions:
REMARK  status: ('A' for Active; 'I' for Inactive)
REMARK    1  A    between atoms: C_1  and  C_2
REMARK    2  A    between atoms: C_7  and  C_9
REMARK    3  A    between atoms: C_19  and  C_21
REMARK    4  A    between atoms: C_24  and  O_27
REMARK    5  A    between atoms: O_27  and  C_28
REMARK                            x       y       z     vdW  Elec       q    Type
REMARK                         _______ _______ _______ _____ _____    ______ ____
ROOT
ATOM      1  C   UNL     1       1.641   3.282   0.089  0.00  0.00    +0.068 C 
ATOM      2  C   UNL     1       1.222   1.835   0.062  0.00  0.00    +0.067 A 
ATOM      3  C   UNL     1       2.079   0.744   0.043  0.00  0.00    +0.037 A 
ATOM      4  C   UNL     1       1.309  -0.407   0.022  0.00  0.00    +0.167 A 
ATOM      5  N   UNL     1       0.003  -0.006   0.025  0.00  0.00    -0.177 N 
ATOM      6  N   UNL     1      -0.013   1.396   0.051  0.00  0.00    -0.167 NA
ATOM      7  C   UNL     1      -1.076  -0.814   0.005  0.00  0.00    +0.280 C 
ATOM      8  O   UNL     1      -0.934  -2.014  -0.115  0.00  0.00    -0.265 OA
ATOM      9  N   UNL     1       1.812  -1.663  -0.028  0.00  0.00    -0.207 NA
ATOM     10  C   UNL     1       3.040  -1.942   0.327  0.00  0.00    +0.154 C 
ATOM     11  S   UNL     1       4.136  -0.726   0.972  0.00  0.00    -0.078 S 
ATOM     12  C   UNL     1       3.589   0.733   0.043  0.00  0.00    +0.119 C 
ATOM     13  N   UNL     1       3.490  -3.231   0.190  0.00  0.00    -0.338 N 
ATOM     14  H   UNL     1       4.398  -3.457   0.447  0.00  0.00    +0.144 HD
ATOM     15  H   UNL     1       2.901  -3.915  -0.164  0.00  0.00    +0.144 HD
ENDROOT
BRANCH   7  16
ATOM     16  C   UNL     1      -2.430  -0.239   0.130  0.00  0.00    +0.041 A 
ATOM     17  C   UNL     1      -2.605   1.147   0.146  0.00  0.00    +0.015 A 
ATOM     18  C   UNL     1      -3.873   1.677   0.258  0.00  0.00    +0.021 A 
ATOM     19  C   UNL     1      -4.970   0.839   0.365  0.00  0.00    +0.041 A 
ATOM     20  C   UNL     1      -4.803  -0.536   0.356  0.00  0.00    +0.021 A 
ATOM     21  C   UNL     1      -3.541  -1.079   0.239  0.00  0.00    +0.015 A 
ATOM     22 CL   UNL     1      -6.563   1.514   0.513  0.00  0.00    -0.084 Cl
ENDBRANCH   7  16
BRANCH  12  23
ATOM     23  C   UNL     1       4.098   0.654  -1.374  0.00  0.00    -0.029 A 
ATOM     24  C   UNL     1       3.764  -0.427  -2.168  0.00  0.00    +0.008 A 
ATOM     25  C   UNL     1       4.224  -0.498  -3.469  0.00  0.00    +0.046 A 
ATOM     26  C   UNL     1       5.032   0.511  -3.974  0.00  0.00    +0.120 A 
ATOM     27  C   UNL     1       5.370   1.592  -3.173  0.00  0.00    +0.046 A 
ATOM     28  C   UNL     1       4.902   1.661  -1.875  0.00  0.00    +0.008 A 
BRANCH  26  29
ATOM     29  O   UNL     1       5.491   0.440  -5.251  0.00  0.00    -0.495 OA
ATOM     30  C   UNL     1       5.103  -0.701  -6.018  0.00  0.00    +0.277 C 
ENDBRANCH  26  29
ENDBRANCH  12  23
TORSDOF 3
