REMARK  Name = ZINC38702022
REMARK  8 active torsions:
REMARK  status: ('A' for Active; 'I' for Inactive)
REMARK    1  A    between atoms: C_1  and  C_2
REMARK    2  A    between atoms: C_2  and  C_3
REMARK    3  A    between atoms: C_2  and  C_4
REMARK    4  A    between atoms: C_2  and  C_5
REMARK    5  A    between atoms: C_8  and  C_11
REMARK    6  A    between atoms: C_14  and  C_30
REMARK    7  A    between atoms: N_21  and  C_22
REMARK    8  A    between atoms: C_35  and  O_36
REMARK                            x       y       z     vdW  Elec       q    Type
REMARK                         _______ _______ _______ _____ _____    ______ ____
ROOT
ATOM      1  C   UNL     1       2.698  -1.472  -4.427  0.00  0.00    +0.142 C 
ATOM      2  C   UNL     1       2.674  -0.635  -5.676  0.00  0.00    +0.035 A 
ATOM      3  C   UNL     1       1.903   0.006  -6.651  0.00  0.00    +0.102 A 
ATOM      4  N   UNL     1       2.735   0.584  -7.495  0.00  0.00    -0.173 NA
ATOM      5  N   UNL     1       3.955   0.371  -7.150  0.00  0.00    -0.272 N 
ATOM      6  H   UNL     1       4.734   0.701  -7.624  0.00  0.00    +0.189 HD
ATOM      7  C   UNL     1       3.991  -0.389  -6.015  0.00  0.00    +0.126 A 
ATOM      8  C   UNL     1       4.857  -1.039  -5.025  0.00  0.00    +0.266 C 
ATOM      9  O   UNL     1       6.073  -1.010  -5.041  0.00  0.00    -0.268 OA
ATOM     10  N   UNL     1       4.115  -1.673  -4.097  0.00  0.00    -0.280 N 
ENDROOT
BRANCH  10  11
ATOM     11  C   UNL     1       4.631  -2.432  -2.955  0.00  0.00    +0.100 C 
ATOM     12  C   UNL     1       5.505  -1.520  -2.078  0.00  0.00    +0.047 C 
ATOM     13  C   UNL     1       6.306  -2.372  -1.064  0.00  0.00    +0.168 C 
ATOM     14  S   UNL     1       6.487  -3.978  -1.941  0.00  0.00    -0.029 S 
ATOM     15  O   UNL     1       5.816  -4.988  -1.199  0.00  0.00    -0.174 OA
ATOM     16  O   UNL     1       7.851  -4.160  -2.296  0.00  0.00    -0.174 OA
ATOM     17  C   UNL     1       5.516  -3.607  -3.462  0.00  0.00    +0.188 C 
ENDBRANCH  10  11
BRANCH   3  18
ATOM     18  C   UNL     1       0.421   0.032  -6.723  0.00  0.00    +0.045 A 
ATOM     19  C   UNL     1      -0.335  -0.726  -5.832  0.00  0.00    +0.033 A 
ATOM     20  C   UNL     1      -1.714  -0.699  -5.903  0.00  0.00    +0.042 A 
ATOM     21  C   UNL     1      -2.348   0.080  -6.857  0.00  0.00    +0.023 A 
ATOM     22  C   UNL     1      -1.606   0.834  -7.746  0.00  0.00    +0.047 A 
ATOM     23  C   UNL     1      -0.222   0.821  -7.681  0.00  0.00    +0.126 A 
ATOM     24 CL   UNL     1      -2.657  -1.644  -4.793  0.00  0.00    -0.084 Cl
BRANCH  23  25
ATOM     25  O   UNL     1       0.508   1.567  -8.550  0.00  0.00    -0.506 OA
ATOM     26  H   UNL     1       0.736   1.107  -9.370  0.00  0.00    +0.292 HD
ENDBRANCH  23  25
ENDBRANCH   3  18
BRANCH   1  30
ATOM     27  C   UNL     1       0.724   0.583  -1.244  0.00  0.00    -0.042 A 
ATOM     28  C   UNL     1       1.928   1.056  -1.731  0.00  0.00    +0.004 A 
ATOM     29  C   UNL     1       2.567   0.391  -2.761  0.00  0.00    +0.006 A 
ATOM     30  C   UNL     1       2.002  -0.748  -3.304  0.00  0.00    -0.022 A 
ATOM     31  C   UNL     1       0.798  -1.222  -2.816  0.00  0.00    +0.006 A 
ATOM     32  C   UNL     1       0.162  -0.559  -1.784  0.00  0.00    +0.004 A 
BRANCH  27  34
ATOM     33  C   UNL     1      -0.122   0.368   1.077  0.00  0.00    +0.015 C 
ATOM     34  C   UNL     1       0.028   1.308  -0.122  0.00  0.00    -0.013 C 
ATOM     35  C   UNL     1      -1.356   1.763  -0.590  0.00  0.00    +0.015 C 
ATOM     36  C   UNL     1       0.855   2.528   0.288  0.00  0.00    +0.015 C 
ENDBRANCH  27  34
ENDBRANCH   1  30
TORSDOF 5
