REMARK  Name = ZINC43769360
REMARK  9 active torsions:
REMARK  status: ('A' for Active; 'I' for Inactive)
REMARK    1  A    between atoms: C_1  and  C_2
REMARK    2  A    between atoms: C_6  and  C_33
REMARK    3  A    between atoms: C_15  and  C_29
REMARK    4  A    between atoms: C_18  and  O_28
REMARK    5  A    between atoms: C_20  and  O_27
REMARK    6  A    between atoms: C_31  and  C_32
REMARK    7  A    between atoms: C_33  and  C_34
REMARK    8  A    between atoms: C_34  and  C_35
REMARK    9  A    between atoms: C_34  and  C_36
REMARK                            x       y       z     vdW  Elec       q    Type
REMARK                         _______ _______ _______ _____ _____    ______ ____
ROOT
ATOM      1  C   UNL     1       0.023   1.821  -0.294  0.00  0.00    +0.012 C 
ATOM      2  C   UNL     1       0.043   0.318  -0.053  0.00  0.00    +0.020 C 
ATOM      3  C   UNL     1      -1.241  -0.316   0.387  0.00  0.00    +0.070 C 
ATOM      4  C   UNL     1      -2.508  -0.282  -0.450  0.00  0.00    +0.081 C 
ATOM      5  N   UNL     1      -3.525  -0.679   0.563  0.00  0.00    -0.309 N 
ATOM      6  C   UNL     1      -3.151  -0.257   1.797  0.00  0.00    +0.259 C 
ATOM      7  O   UNL     1      -3.847  -0.294   2.790  0.00  0.00    -0.271 OA
ATOM      8  C   UNL     1      -1.731   0.249   1.732  0.00  0.00    +0.203 C 
ATOM      9  C   UNL     1      -0.789  -0.253   2.807  0.00  0.00    +0.088 C 
ATOM     10  C   UNL     1      -1.167  -1.625   3.289  0.00  0.00    -0.016 C 
ATOM     11  C   UNL     1      -1.957  -1.763   4.326  0.00  0.00    -0.076 C 
ATOM     12  C   UNL     1      -2.530  -0.576   5.045  0.00  0.00    +0.033 C 
ATOM     13  C   UNL     1      -1.714  -0.218   6.289  0.00  0.00    +0.038 C 
ATOM     14  C   UNL     1      -2.254   1.084   6.892  0.00  0.00    +0.147 C 
ATOM     15  C   UNL     1      -1.944   2.255   5.952  0.00  0.00    +0.166 C 
ATOM     16  C   UNL     1      -3.129   2.499   5.055  0.00  0.00    +0.013 C 
ATOM     17  C   UNL     1      -3.026   2.472   3.735  0.00  0.00    +0.090 C 
ATOM     18  C   UNL     1      -1.775   2.247   3.014  0.00  0.00    +0.333 C 
ATOM     19  O   UNL     1      -0.709   2.562   3.500  0.00  0.00    -0.246 OA
ATOM     20  O   UNL     1      -1.782   1.675   1.786  0.00  0.00    -0.444 OA
ATOM     21  C   UNL     1      -2.295  -3.158   4.804  0.00  0.00    +0.039 C 
ATOM     22  C   UNL     1       0.612  -0.229   2.279  0.00  0.00    -0.016 C 
ATOM     23  C   UNL     1       1.026  -0.001   1.077  0.00  0.00    -0.073 C 
ATOM     24  C   UNL     1       2.500  -0.048   0.770  0.00  0.00    +0.039 C 
ATOM     25  H   UNL     1      -4.337  -1.168   0.362  0.00  0.00    +0.149 HD
ENDROOT
BRANCH  15  26
ATOM     26  O   UNL     1      -1.687   3.428   6.731  0.00  0.00    -0.385 OA
ATOM     27  H   UNL     1      -1.482   4.212   6.204  0.00  0.00    +0.210 HD
ENDBRANCH  15  26
BRANCH  14  28
ATOM     28  O   UNL     1      -3.665   0.977   7.081  0.00  0.00    -0.389 OA
ATOM     29  H   UNL     1      -4.072   1.768   7.460  0.00  0.00    +0.210 HD
ENDBRANCH  14  28
BRANCH   4  30
ATOM     30  C   UNL     1      -2.871   1.073  -1.045  0.00  0.00    +0.025 C 
BRANCH  30  31
ATOM     31  C   UNL     1      -4.062   0.912  -1.992  0.00  0.00    -0.015 C 
ATOM     32  C   UNL     1      -5.305   0.528  -1.187  0.00  0.00    +0.007 C 
ATOM     33  C   UNL     1      -4.315   2.232  -2.723  0.00  0.00    +0.007 C 
ENDBRANCH  30  31
ENDBRANCH   4  30
TORSDOF 4
