REMARK  Name = ZINC10275612
REMARK  10 active torsions:
REMARK  status: ('A' for Active; 'I' for Inactive)
REMARK    1  A    between atoms: C_1  and  C_2
REMARK    2  A    between atoms: C_6  and  N_9
REMARK    3  A    between atoms: C_7  and  C_8
REMARK    4  A    between atoms: C_19  and  S_20
REMARK    5  A    between atoms: S_20  and  C_21
REMARK    6  A    between atoms: C_21  and  C_22
REMARK    7  A    between atoms: C_22  and  C_24
REMARK    8  A    between atoms: C_25  and  N_34
REMARK    9  A    between atoms: N_26  and  C_33
REMARK   10  A    between atoms: N_29  and  C_32
REMARK                            x       y       z     vdW  Elec       q    Type
REMARK                         _______ _______ _______ _____ _____    ______ ____
ROOT
ATOM      1  N   UNL     1       0.037  -2.761  -0.127  0.00  0.00    -0.255 N 
ATOM      2  C   UNL     1       1.238  -2.139  -0.164  0.00  0.00    +0.267 A 
ATOM      3  O   UNL     1       2.276  -2.774  -0.190  0.00  0.00    -0.267 OA
ATOM      4  C   UNL     1       1.243  -0.670  -0.171  0.00  0.00    +0.065 A 
ATOM      5  C   UNL     1       2.428   0.062  -0.208  0.00  0.00    +0.015 A 
ATOM      6  C   UNL     1       2.376   1.429  -0.212  0.00  0.00    +0.001 A 
ATOM      7  C   UNL     1       1.156   2.093  -0.181  0.00  0.00    +0.002 A 
ATOM      8  C   UNL     1      -0.021   1.399  -0.144  0.00  0.00    +0.028 A 
ATOM      9  C   UNL     1      -0.001   0.002  -0.139  0.00  0.00    +0.079 A 
ATOM     10  N   UNL     1      -1.142  -0.724  -0.103  0.00  0.00    -0.223 NA
ATOM     11  C   UNL     1      -1.121  -2.034  -0.097  0.00  0.00    +0.177 A 
ENDROOT
BRANCH   1  17
ATOM     12  C   UNL     1      -0.209  -7.003  -2.603  0.00  0.00    +0.044 C 
ATOM     13  C   UNL     1      -0.141  -6.242  -1.304  0.00  0.00    -0.046 A 
ATOM     14  C   UNL     1      -0.135  -6.925  -0.102  0.00  0.00    +0.004 A 
ATOM     15  C   UNL     1      -0.072  -6.230   1.092  0.00  0.00    +0.002 A 
ATOM     16  C   UNL     1      -0.015  -4.850   1.087  0.00  0.00    +0.026 A 
ATOM     17  C   UNL     1      -0.021  -4.161  -0.118  0.00  0.00    +0.055 A 
ATOM     18  C   UNL     1      -0.090  -4.862  -1.315  0.00  0.00    -0.024 A 
ATOM     19  C   UNL     1      -0.103  -4.117  -2.625  0.00  0.00    +0.046 C 
ENDBRANCH   1  17
BRANCH  11  20
ATOM     20  S   UNL     1      -2.656  -2.899  -0.051  0.00  0.00    -0.079 S 
BRANCH  20  21
ATOM     21  C   UNL     1      -3.804  -1.501  -0.025  0.00  0.00    +0.157 C 
BRANCH  21  22
ATOM     22  C   UNL     1      -5.220  -2.014   0.017  0.00  0.00    +0.182 C 
ATOM     23  O   UNL     1      -5.433  -3.210   0.029  0.00  0.00    -0.291 OA
BRANCH  22  24
ATOM     24  C   UNL     1      -6.300  -1.106   0.043  0.00  0.00    +0.120 A 
ATOM     25  C   UNL     1      -7.629  -1.556  -0.041  0.00  0.00    +0.116 A 
ATOM     26  N   UNL     1      -8.640  -0.639  -0.006  0.00  0.00    -0.284 N 
ATOM     27  C   UNL     1      -8.387   0.675   0.095  0.00  0.00    +0.333 A 
ATOM     28  O   UNL     1      -9.323   1.451   0.117  0.00  0.00    -0.246 OA
ATOM     29  N   UNL     1      -7.139   1.164   0.174  0.00  0.00    -0.263 N 
ATOM     30  C   UNL     1      -6.071   0.341   0.153  0.00  0.00    +0.269 A 
ATOM     31  O   UNL     1      -4.941   0.787   0.224  0.00  0.00    -0.267 OA
ATOM     32  C   UNL     1      -6.935   2.611   0.283  0.00  0.00    +0.157 C 
ATOM     33  C   UNL     1     -10.029  -1.098  -0.088  0.00  0.00    +0.155 C 
BRANCH  25  34
ATOM     34  N   UNL     1      -7.904  -2.884  -0.150  0.00  0.00    -0.344 N 
ATOM     35  H   UNL     1      -7.186  -3.534  -0.089  0.00  0.00    +0.144 HD
ATOM     36  H   UNL     1      -8.817  -3.181  -0.288  0.00  0.00    +0.144 HD
ENDBRANCH  25  34
ENDBRANCH  22  24
ENDBRANCH  21  22
ENDBRANCH  20  21
ENDBRANCH  11  20
TORSDOF 6
