REMARK  Name = ZINC39665904
REMARK  8 active torsions:
REMARK  status: ('A' for Active; 'I' for Inactive)
REMARK    1  A    between atoms: C_1  and  C_2
REMARK    2  A    between atoms: C_5  and  O_8
REMARK    3  A    between atoms: O_8  and  C_9
REMARK    4  A    between atoms: C_9  and  C_11
REMARK    5  A    between atoms: C_9  and  C_12
REMARK    6  A    between atoms: C_12  and  N_13
REMARK    7  A    between atoms: C_14  and  C_16
REMARK    8  A    between atoms: C_27  and  C_29
REMARK                            x       y       z     vdW  Elec       q    Type
REMARK                         _______ _______ _______ _____ _____    ______ ____
ROOT
ATOM      1  C   UNL     1       5.244  -6.326   0.932  0.00  0.00    +0.100 C 
ATOM      2  C   UNL     1       5.234  -5.518  -0.386  0.00  0.00    +0.121 C 
ATOM      3  N   UNL     1       6.373  -6.058  -1.164  0.00  0.00    -0.296 N 
ATOM      4  C   UNL     1       6.338  -7.518  -0.906  0.00  0.00    +0.115 C 
ATOM      5  C   UNL     1       5.968  -7.638   0.586  0.00  0.00    -0.004 C 
ATOM      6  C   UNL     1       5.039  -8.828   0.804  0.00  0.00    -0.010 C 
ATOM      7  C   UNL     1       5.800 -10.124   0.510  0.00  0.00    -0.082 C 
ATOM      8  N   UNL     1       6.968 -10.220   1.394  0.00  0.00    +0.379 N 
ATOM      9  C   UNL     1       7.901  -9.122   1.112  0.00  0.00    -0.082 C 
ATOM     10  C   UNL     1       7.229  -7.784   1.432  0.00  0.00    -0.010 C 
ATOM     11  C   UNL     1       7.246  -5.376  -1.932  0.00  0.00    +0.249 C 
ATOM     12  O   UNL     1       8.187  -5.952  -2.442  0.00  0.00    -0.270 OA
ATOM     13  H   UNL     1       6.666 -10.164   2.355  0.00  0.00    -0.086 HD
ATOM     14  H   UNL     1       7.433 -11.102   1.241  0.00  0.00    -0.086 HD
ENDROOT
BRANCH  11  15
ATOM     15  C   UNL     1       7.058  -3.928  -2.155  0.00  0.00    +0.072 A 
ATOM     16  C   UNL     1       5.771  -3.392  -2.243  0.00  0.00    +0.016 A 
ATOM     17  C   UNL     1       5.603  -2.040  -2.450  0.00  0.00    +0.001 A 
ATOM     18  C   UNL     1       6.706  -1.211  -2.572  0.00  0.00    +0.003 A 
ATOM     19  C   UNL     1       7.983  -1.732  -2.487  0.00  0.00    +0.039 A 
ATOM     20  C   UNL     1       8.168  -3.086  -2.273  0.00  0.00    +0.135 A 
ATOM     21  F   UNL     1       9.417  -3.594  -2.184  0.00  0.00    -0.205 F 
ENDBRANCH  11  15
BRANCH   1  23
ATOM     22  N   UNL     1       3.564  -6.752   2.697  0.00  0.00    -0.312 N 
ATOM     23  C   UNL     1       3.834  -6.609   1.384  0.00  0.00    +0.218 C 
ATOM     24  O   UNL     1       2.943  -6.707   0.567  0.00  0.00    -0.275 OA
ATOM     25  H   UNL     1       4.276  -6.673   3.350  0.00  0.00    +0.149 HD
BRANCH  22  26
ATOM     26  C   UNL     1       2.194  -7.027   3.137  0.00  0.00    +0.148 C 
BRANCH  26  27
ATOM     27  C   UNL     1       2.161  -7.143   4.662  0.00  0.00    +0.187 C 
ATOM     28  C   UNL     1       0.758  -7.553   5.112  0.00  0.00    +0.053 C 
BRANCH  27  29
ATOM     29  O   UNL     1       2.499  -5.882   5.243  0.00  0.00    -0.488 OA
BRANCH  29  34
ATOM     30  C   UNL     1       4.662  -5.961  10.443  0.00  0.00    +0.044 C 
ATOM     31  C   UNL     1       4.083  -5.940   9.052  0.00  0.00    -0.050 A 
ATOM     32  C   UNL     1       3.627  -7.111   8.476  0.00  0.00    +0.007 A 
ATOM     33  C   UNL     1       3.097  -7.095   7.201  0.00  0.00    +0.046 A 
ATOM     34  C   UNL     1       3.021  -5.901   6.498  0.00  0.00    +0.121 A 
ATOM     35  C   UNL     1       3.478  -4.727   7.078  0.00  0.00    +0.046 A 
ATOM     36  C   UNL     1       4.003  -4.748   8.355  0.00  0.00    +0.007 A 
ENDBRANCH  29  34
ENDBRANCH  27  29
ENDBRANCH  26  27
ENDBRANCH  22  26
ENDBRANCH   1  23
TORSDOF 6
