REMARK  Name = ZINC07370805
REMARK  4 active torsions:
REMARK  status: ('A' for Active; 'I' for Inactive)
REMARK    1  A    between atoms: C_4  and  N_7
REMARK    2  A    between atoms: C_10  and  C_15
REMARK    3  A    between atoms: C_15  and  S_16
REMARK    4  A    between atoms: S_16  and  C_17
REMARK                            x       y       z     vdW  Elec       q    Type
REMARK                         _______ _______ _______ _____ _____    ______ ____
ROOT
ATOM      1  N   UNL     1       7.656  -3.424   2.258  0.00  0.00    -0.284 N 
ATOM      2  C   UNL     1       7.232  -2.858   1.072  0.00  0.00    +0.224 A 
ATOM      3  N   UNL     1       6.200  -2.017   1.067  0.00  0.00    -0.198 NA
ATOM      4  C   UNL     1       5.794  -1.474  -0.068  0.00  0.00    +0.146 A 
ATOM      5  N   UNL     1       6.406  -1.768  -1.202  0.00  0.00    -0.199 NA
ATOM      6  C   UNL     1       7.442  -2.604  -1.203  0.00  0.00    +0.217 A 
ATOM      7  N   UNL     1       7.853  -3.152  -0.065  0.00  0.00    -0.181 NA
ATOM      8  N   UNL     1       8.084  -2.906  -2.387  0.00  0.00    -0.327 N 
ATOM      9  H   UNL     1       7.255  -3.149   3.098  0.00  0.00    +0.155 HD
ATOM     10  H   UNL     1       8.836  -3.518  -2.388  0.00  0.00    +0.145 HD
ATOM     11  H   UNL     1       7.783  -2.506  -3.218  0.00  0.00    +0.145 HD
ENDROOT
BRANCH   1  15
ATOM     12  C   UNL     1      10.656  -6.314   2.231  0.00  0.00    +0.000 A 
ATOM     13  C   UNL     1      10.550  -5.439   3.297  0.00  0.00    +0.002 A 
ATOM     14  C   UNL     1       9.557  -4.480   3.309  0.00  0.00    +0.023 A 
ATOM     15  C   UNL     1       8.663  -4.394   2.249  0.00  0.00    +0.034 A 
ATOM     16  C   UNL     1       8.768  -5.278   1.183  0.00  0.00    +0.023 A 
ATOM     17  C   UNL     1       9.768  -6.231   1.174  0.00  0.00    +0.002 A 
ENDBRANCH   1  15
BRANCH   4  18
ATOM     18  C   UNL     1       4.625  -0.522  -0.069  0.00  0.00    +0.152 C 
BRANCH  18  19
ATOM     19  S   UNL     1       5.224   1.169   0.175  0.00  0.00    -0.098 S 
BRANCH  19  20
ATOM     20  C   UNL     1       3.696   2.044   0.131  0.00  0.00    +0.098 A 
ATOM     21  C   UNL     1       3.700   3.438   0.287  0.00  0.00    +0.035 A 
ATOM     22  C   UNL     1       2.526   4.128   0.255  0.00  0.00    +0.012 A 
ATOM     23  C   UNL     1       1.330   3.404   0.065  0.00  0.00    +0.000 A 
ATOM     24  C   UNL     1       0.086   4.052   0.022  0.00  0.00    +0.010 A 
ATOM     25  C   UNL     1      -1.048   3.321  -0.164  0.00  0.00    +0.001 A 
ATOM     26  C   UNL     1      -0.989   1.938  -0.319  0.00  0.00    +0.002 A 
ATOM     27  C   UNL     1       0.201   1.278  -0.277  0.00  0.00    +0.028 A 
ATOM     28  C   UNL     1       1.392   1.998  -0.087  0.00  0.00    +0.072 A 
ATOM     29  N   UNL     1       2.575   1.374  -0.047  0.00  0.00    -0.240 NA
ENDBRANCH  19  20
ENDBRANCH  18  19
ENDBRANCH   4  18
TORSDOF 4
