REMARK  Name = ZINC04177350
REMARK  5 active torsions:
REMARK  status: ('A' for Active; 'I' for Inactive)
REMARK    1  A    between atoms: N_9  and  S_10
REMARK    2  A    between atoms: S_10  and  C_13
REMARK    3  A    between atoms: C_16  and  C_19
REMARK    4  A    between atoms: N_21  and  C_22
REMARK    5  A    between atoms: C_23  and  C_32
REMARK                            x       y       z     vdW  Elec       q    Type
REMARK                         _______ _______ _______ _____ _____    ______ ____
ROOT
ATOM      1  C   UNL     1       6.606  -2.402   1.592  0.00  0.00    +0.249 C 
ATOM      2  O   UNL     1       6.903  -1.598   0.729  0.00  0.00    -0.270 OA
ATOM      3  N   UNL     1       5.327  -2.501   2.008  0.00  0.00    -0.275 N 
ATOM      4  H   UNL     1       5.090  -3.142   2.696  0.00  0.00    +0.156 HD
ENDROOT
BRANCH   3   5
ATOM      5  C   UNL     1       4.353  -1.687   1.453  0.00  0.00    +0.085 A 
ATOM      6  C   UNL     1       2.999  -1.642   1.746  0.00  0.00    +0.068 A 
ATOM      7  C   UNL     1       2.179  -0.684   1.016  0.00  0.00    -0.023 A 
ATOM      8  C   UNL     1       2.847   0.061   0.110  0.00  0.00    -0.004 A 
ATOM      9  S   UNL     1       4.530  -0.479   0.225  0.00  0.00    -0.077 S 
ATOM     10  C   UNL     1       2.288   1.105  -0.807  0.00  0.00    +0.043 C 
ATOM     11  C   UNL     1       1.406   2.068  -0.000  0.00  0.00    +0.005 C 
ATOM     12  C   UNL     1      -0.019   1.523   0.010  0.00  0.00    +0.001 C 
ATOM     13  C   UNL     1       0.002  -0.004   0.002  0.00  0.00    +0.005 C 
ATOM     14  C   UNL     1       0.683  -0.535   1.259  0.00  0.00    +0.037 C 
BRANCH   6  15
ATOM     15  C   UNL     1       2.412  -2.527   2.756  0.00  0.00    +0.244 C 
ATOM     16  O   UNL     1       1.983  -3.620   2.433  0.00  0.00    -0.270 OA
ATOM     17  N   UNL     1       2.346  -2.132   4.043  0.00  0.00    -0.325 N 
ATOM     18  H   UNL     1       2.688  -1.261   4.301  0.00  0.00    +0.145 HD
ATOM     19  H   UNL     1       1.958  -2.718   4.712  0.00  0.00    +0.145 HD
ENDBRANCH   6  15
ENDBRANCH   3   5
BRANCH   1  23
ATOM     20  C   UNL     1       9.593  -4.895   3.294  0.00  0.00    +0.109 A 
ATOM     21  C   UNL     1       9.935  -3.982   2.312  0.00  0.00    +0.029 A 
ATOM     22  C   UNL     1       8.970  -3.169   1.755  0.00  0.00    +0.015 A 
ATOM     23  C   UNL     1       7.645  -3.269   2.184  0.00  0.00    +0.037 A 
ATOM     24  C   UNL     1       7.308  -4.189   3.179  0.00  0.00    +0.015 A 
ATOM     25  C   UNL     1       8.282  -4.999   3.724  0.00  0.00    +0.029 A 
BRANCH  20  26
ATOM     26  S   UNL     1      10.832  -5.930   4.000  0.00  0.00    +0.075 S 
ATOM     27  O   UNL     1      10.164  -7.076   4.508  0.00  0.00    -0.150 OA
ATOM     28  O   UNL     1      11.879  -6.020   3.043  0.00  0.00    -0.150 OA
BRANCH  26  37
ATOM     29  C   UNL     1      14.648  -2.472   5.605  0.00  0.00    +0.000 A 
ATOM     30  C   UNL     1      14.370  -2.984   4.351  0.00  0.00    +0.002 A 
ATOM     31  C   UNL     1      13.327  -3.868   4.177  0.00  0.00    +0.025 A 
ATOM     32  C   UNL     1      12.546  -4.258   5.267  0.00  0.00    +0.054 A 
ATOM     33  C   UNL     1      12.830  -3.735   6.519  0.00  0.00    -0.023 A 
ATOM     34  C   UNL     1      13.877  -2.849   6.688  0.00  0.00    +0.005 A 
ATOM     35  C   UNL     1      11.844  -4.307   7.514  0.00  0.00    +0.058 C 
ATOM     36  C   UNL     1      10.942  -5.228   6.677  0.00  0.00    +0.136 C 
ATOM     37  N   UNL     1      11.454  -5.126   5.307  0.00  0.00    -0.202 N 
ENDBRANCH  26  37
ENDBRANCH  20  26
ENDBRANCH   1  23
TORSDOF 5
