REMARK  Name = ZINC09216847
REMARK  5 active torsions:
REMARK  status: ('A' for Active; 'I' for Inactive)
REMARK    1  A    between atoms: C_1  and  C_2
REMARK    2  A    between atoms: C_2  and  C_3
REMARK    3  A    between atoms: C_8  and  N_9
REMARK    4  A    between atoms: C_11  and  C_16
REMARK    5  A    between atoms: N_18  and  C_19
REMARK                            x       y       z     vdW  Elec       q    Type
REMARK                         _______ _______ _______ _____ _____    ______ ____
ROOT
ATOM      1  C   UNL     1      -2.834  -6.250   0.614  0.00  0.00    +0.222 C 
ATOM      2  O   UNL     1      -2.869  -6.252  -0.598  0.00  0.00    -0.275 OA
ATOM      3  N   UNL     1      -2.362  -5.172   1.272  0.00  0.00    -0.285 N 
ATOM      4  H   UNL     1      -2.264  -5.198   2.237  0.00  0.00    +0.155 HD
ENDROOT
BRANCH   3   5
ATOM      5  C   UNL     1      -2.014  -4.015   0.563  0.00  0.00    +0.037 A 
ATOM      6  C   UNL     1      -2.717  -3.665  -0.582  0.00  0.00    +0.027 A 
ATOM      7  C   UNL     1      -2.376  -2.524  -1.283  0.00  0.00    +0.051 A 
ATOM      8  C   UNL     1      -1.332  -1.728  -0.845  0.00  0.00    +0.167 A 
ATOM      9  C   UNL     1      -0.624  -2.077   0.305  0.00  0.00    +0.169 A 
ATOM     10  C   UNL     1      -0.967  -3.218   1.006  0.00  0.00    +0.072 A 
ATOM     11  O   UNL     1       0.346  -1.132   0.516  0.00  0.00    -0.447 OA
ATOM     12  C   UNL     1       0.517  -0.521  -0.771  0.00  0.00    +0.254 C 
ATOM     13  O   UNL     1      -0.798  -0.566  -1.343  0.00  0.00    -0.448 OA
ATOM     14  C   UNL     1       1.025   0.915  -0.647  0.00  0.00    +0.093 C 
ATOM     15  C   UNL     1       2.343   0.976  -1.452  0.00  0.00    +0.008 C 
ATOM     16  C   UNL     1       2.839  -0.492  -1.483  0.00  0.00    +0.008 C 
ATOM     17  C   UNL     1       1.522  -1.299  -1.627  0.00  0.00    +0.093 C 
ENDBRANCH   3   5
BRANCH   1  20
ATOM     18  N   UNL     1      -3.412  -9.825   1.057  0.00  0.00    -0.270 N 
ATOM     19  C   UNL     1      -3.810  -8.559   0.428  0.00  0.00    +0.127 C 
ATOM     20  C   UNL     1      -3.317  -7.451   1.385  0.00  0.00    +0.102 C 
ATOM     21  C   UNL     1      -2.144  -8.155   2.105  0.00  0.00    +0.110 C 
ATOM     22  C   UNL     1      -2.473  -9.628   1.999  0.00  0.00    +0.221 C 
ATOM     23  O   UNL     1      -1.964 -10.504   2.666  0.00  0.00    -0.275 OA
BRANCH  18  29
ATOM     24  C   UNL     1      -5.132 -11.504   1.292  0.00  0.00    -0.026 A 
ATOM     25  C   UNL     1      -5.652 -12.739   0.957  0.00  0.00    +0.005 A 
ATOM     26  C   UNL     1      -4.989 -13.547   0.052  0.00  0.00    +0.000 A 
ATOM     27  C   UNL     1      -3.804 -13.123  -0.520  0.00  0.00    +0.002 A 
ATOM     28  C   UNL     1      -3.281 -11.887  -0.193  0.00  0.00    +0.024 A 
ATOM     29  C   UNL     1      -3.942 -11.075   0.720  0.00  0.00    +0.039 A 
BRANCH  24  31
ATOM     30  C   UNL     1      -5.296 -10.863   3.682  0.00  0.00    +0.009 C 
ATOM     31  C   UNL     1      -5.855 -10.623   2.278  0.00  0.00    +0.033 C 
ENDBRANCH  24  31
ENDBRANCH  18  29
ENDBRANCH   1  20
TORSDOF 4
