REMARK  Name = ZINC67030416
REMARK  6 active torsions:
REMARK  status: ('A' for Active; 'I' for Inactive)
REMARK    1  A    between atoms: C_1  and  C_2
REMARK    2  A    between atoms: C_5  and  C_7
REMARK    3  A    between atoms: C_13  and  C_15
REMARK    4  A    between atoms: C_18  and  C_20
REMARK    5  A    between atoms: C_20  and  N_21
REMARK    6  A    between atoms: C_22  and  C_24
REMARK                            x       y       z     vdW  Elec       q    Type
REMARK                         _______ _______ _______ _____ _____    ______ ____
ROOT
ATOM      1  C   UNL     1       1.040  -4.034  -0.026  0.00  0.00    +0.087 A 
ATOM      2  C   UNL     1       2.390  -4.259  -0.029  0.00  0.00    +0.077 A 
ATOM      3  S   UNL     1       2.430  -6.047  -0.040  0.00  0.00    -0.060 S 
ATOM      4  C   UNL     1       0.662  -6.312  -0.041  0.00  0.00    +0.165 A 
ATOM      5  N   UNL     1       0.208  -5.073  -0.027  0.00  0.00    -0.224 NA
ATOM      6  N   UNL     1      -0.045  -7.506  -0.048  0.00  0.00    -0.260 N 
ATOM      7  C   UNL     1       0.615  -8.681  -0.055  0.00  0.00    +0.256 C 
ATOM      8  O   UNL     1       1.832  -8.695  -0.056  0.00  0.00    -0.269 OA
ATOM      9  H   UNL     1      -1.015  -7.495  -0.047  0.00  0.00    +0.157 HD
ENDROOT
BRANCH   1  14
ATOM     10  C   UNL     1      -0.018   1.503   0.010  0.00  0.00    +0.051 C 
ATOM     11  C   UNL     1       0.002  -0.004   0.002  0.00  0.00    -0.013 A 
ATOM     12  C   UNL     1      -1.041  -0.871   0.002  0.00  0.00    +0.011 A 
ATOM     13  C   UNL     1      -0.789  -2.227  -0.007  0.00  0.00    +0.018 A 
ATOM     14  C   UNL     1       0.512  -2.653  -0.016  0.00  0.00    +0.038 A 
ATOM     15  S   UNL     1       1.405  -1.107  -0.018  0.00  0.00    -0.092 S 
ENDBRANCH   1  14
BRANCH   7  16
ATOM     16  C   UNL     1      -0.132  -9.941  -0.063  0.00  0.00    +0.075 A 
ATOM     17  C   UNL     1       0.348 -11.243  -0.065  0.00  0.00    +0.021 A 
ATOM     18  C   UNL     1      -0.607 -12.231  -0.072  0.00  0.00    +0.013 A 
ATOM     19  C   UNL     1      -1.917 -11.882  -0.076  0.00  0.00    +0.008 A 
ATOM     20  S   UNL     1      -1.896 -10.202  -0.063  0.00  0.00    -0.087 S 
BRANCH  19  21
ATOM     21  C   UNL     1      -3.118 -12.793  -0.085  0.00  0.00    +0.146 C 
BRANCH  21  22
ATOM     22  N   UNL     1      -3.512 -13.094   1.294  0.00  0.00    -0.311 N 
ATOM     23  C   UNL     1      -4.569 -13.895   1.533  0.00  0.00    +0.210 C 
ATOM     24  O   UNL     1      -5.193 -14.368   0.607  0.00  0.00    -0.276 OA
ATOM     25  C   UNL     1      -4.974 -14.204   2.951  0.00  0.00    +0.109 C 
ATOM     26  H   UNL     1      -3.013 -12.716   2.035  0.00  0.00    +0.149 HD
ENDBRANCH  21  22
ENDBRANCH  19  21
ENDBRANCH   7  16
TORSDOF 4
