REMARK  Name = ZINC21755402
REMARK  9 active torsions:
REMARK  status: ('A' for Active; 'I' for Inactive)
REMARK    1  A    between atoms: C_1  and  N_2
REMARK    2  A    between atoms: N_2  and  C_3
REMARK    3  A    between atoms: N_2  and  C_4
REMARK    4  A    between atoms: C_7  and  C_10
REMARK    5  A    between atoms: C_10  and  C_12
REMARK    6  A    between atoms: C_10  and  N_24
REMARK    7  A    between atoms: C_12  and  N_13
REMARK    8  A    between atoms: N_13  and  S_14
REMARK    9  A    between atoms: S_14  and  C_17
REMARK                            x       y       z     vdW  Elec       q    Type
REMARK                         _______ _______ _______ _____ _____    ______ ____
ROOT
ATOM      1  C   UNL     1       2.409   0.949   0.357  0.00  0.00    -0.021 C 
ENDROOT
BRANCH   1   2
ATOM      2  N   UNL     1       3.353   1.652   1.236  0.00  0.00    +0.388 N 
ATOM      3  C   UNL     1       2.758   1.899   2.560  0.00  0.00    -0.073 C 
ATOM      4  C   UNL     1       3.875   2.286   3.529  0.00  0.00    +0.017 C 
ATOM      5  C   UNL     1       4.717   3.384   2.932  0.00  0.00    -0.048 A 
ATOM      6  C   UNL     1       5.544   4.114   3.772  0.00  0.00    +0.004 A 
ATOM      7  C   UNL     1       6.334   5.127   3.266  0.00  0.00    +0.000 A 
ATOM      8  C   UNL     1       6.301   5.414   1.914  0.00  0.00    +0.000 A 
ATOM      9  C   UNL     1       5.477   4.689   1.077  0.00  0.00    +0.002 A 
ATOM     10  C   UNL     1       4.680   3.673   1.585  0.00  0.00    -0.061 A 
ATOM     11  C   UNL     1       3.791   2.915   0.634  0.00  0.00    -0.042 C 
ATOM     12  H   UNL     1       4.235   1.006   1.363  0.00  0.00    -0.080 HD
ENDBRANCH   1   2
BRANCH   1  16
ATOM     13  C   UNL     1      -1.128   3.303  -0.108  0.00  0.00    +0.029 A 
ATOM     14  C   UNL     1       0.043   3.670  -0.758  0.00  0.00    +0.023 A 
ATOM     15  C   UNL     1       1.183   2.904  -0.610  0.00  0.00    +0.004 A 
ATOM     16  C   UNL     1       1.162   1.779   0.193  0.00  0.00    -0.060 A 
ATOM     17  C   UNL     1      -0.001   1.413   0.846  0.00  0.00    +0.004 A 
ATOM     18  C   UNL     1      -1.145   2.172   0.698  0.00  0.00    +0.023 A 
BRANCH  13  20
ATOM     19  C   UNL     1      -3.475   3.770   0.537  0.00  0.00    +0.129 C 
ATOM     20  N   UNL     1      -2.284   4.072  -0.260  0.00  0.00    -0.336 N 
ATOM     21  C   UNL     1      -2.305   5.182  -1.217  0.00  0.00    +0.129 C 
ENDBRANCH  13  20
ENDBRANCH   1  16
BRANCH   1  22
ATOM     22  C   UNL     1       3.056   0.725  -1.011  0.00  0.00    +0.095 C 
BRANCH  22  23
ATOM     23  N   UNL     1       4.330   0.021  -0.839  0.00  0.00    -0.191 NA
ATOM     24  H   UNL     1       4.877   0.098   0.112  0.00  0.00    +0.148 HD
BRANCH  23  25
ATOM     25  S   UNL     1       5.069  -0.682  -2.143  0.00  0.00    +0.058 S 
ATOM     26  O   UNL     1       6.280  -1.252  -1.665  0.00  0.00    -0.153 OA
ATOM     27  O   UNL     1       4.076  -1.449  -2.809  0.00  0.00    -0.153 OA
BRANCH  25  28
ATOM     28  C   UNL     1       5.526   0.615  -3.246  0.00  0.00    +0.105 A 
ATOM     29  C   UNL     1       4.647   1.026  -4.231  0.00  0.00    +0.029 A 
ATOM     30  C   UNL     1       5.003   2.046  -5.093  0.00  0.00    +0.017 A 
ATOM     31  C   UNL     1       6.241   2.650  -4.976  0.00  0.00    +0.018 A 
ATOM     32  C   UNL     1       7.122   2.236  -3.993  0.00  0.00    +0.017 A 
ATOM     33  C   UNL     1       6.764   1.219  -3.128  0.00  0.00    +0.029 A 
ATOM     34 BR   UNL     1       6.731   4.042  -6.158  0.00  0.00    -0.050 Br
ENDBRANCH  25  28
ENDBRANCH  23  25
ENDBRANCH  22  23
ENDBRANCH   1  22
TORSDOF 7
