REMARK  Name = ZINC08961521
REMARK  7 active torsions:
REMARK  status: ('A' for Active; 'I' for Inactive)
REMARK    1  A    between atoms: C_1  and  C_2
REMARK    2  A    between atoms: C_5  and  C_8
REMARK    3  A    between atoms: C_8  and  S_9
REMARK    4  A    between atoms: S_9  and  N_12
REMARK    5  A    between atoms: N_12  and  C_13
REMARK    6  A    between atoms: N_21  and  C_30
REMARK    7  A    between atoms: C_24  and  C_29
REMARK                            x       y       z     vdW  Elec       q    Type
REMARK                         _______ _______ _______ _____ _____    ______ ____
ROOT
ATOM      1  C   UNL     1       4.321   4.353  -3.464  0.00  0.00    +0.049 A 
ATOM      2  C   UNL     1       5.185   3.314  -3.136  0.00  0.00    +0.028 A 
ATOM      3  C   UNL     1       4.942   2.533  -2.024  0.00  0.00    +0.049 A 
ATOM      4  C   UNL     1       3.835   2.780  -1.224  0.00  0.00    +0.141 A 
ATOM      5  C   UNL     1       2.976   3.839  -1.534  0.00  0.00    +0.081 A 
ATOM      6  C   UNL     1       3.220   4.618  -2.669  0.00  0.00    +0.041 A 
ATOM      7  C   UNL     1       1.841   4.162  -0.658  0.00  0.00    +0.254 C 
ATOM      8  O   UNL     1       1.580   5.337  -0.487  0.00  0.00    -0.270 OA
ATOM      9  N   UNL     1       1.079   3.270  -0.041  0.00  0.00    -0.267 N 
ATOM     10  C   UNL     1       1.204   1.883  -0.122  0.00  0.00    +0.079 A 
ATOM     11  C   UNL     1       0.051   1.106  -0.155  0.00  0.00    +0.030 A 
ATOM     12  C   UNL     1       0.140  -0.272  -0.173  0.00  0.00    -0.048 A 
ATOM     13  C   UNL     1       1.378  -0.887  -0.162  0.00  0.00    +0.007 A 
ATOM     14  C   UNL     1       2.529  -0.122  -0.146  0.00  0.00    +0.048 A 
ATOM     15  C   UNL     1       2.447   1.263  -0.133  0.00  0.00    +0.150 A 
ATOM     16  O   UNL     1       3.593   1.988  -0.153  0.00  0.00    -0.453 OA
ATOM     17  C   UNL     1      -1.115  -1.106  -0.205  0.00  0.00    +0.044 C 
ATOM     18  C   UNL     1       0.005   3.789   0.808  0.00  0.00    +0.139 C 
ENDROOT
BRANCH   1  19
ATOM     19  N   UNL     1       4.566   5.133  -4.600  0.00  0.00    -0.220 N 
ATOM     20  H   UNL     1       3.843   5.337  -5.214  0.00  0.00    +0.173 HD
BRANCH  19  21
ATOM     21  S   UNL     1       6.091   5.708  -4.897  0.00  0.00    +0.047 S 
ATOM     22  O   UNL     1       6.921   4.555  -4.887  0.00  0.00    -0.155 OA
ATOM     23  O   UNL     1       5.959   6.495  -6.072  0.00  0.00    -0.155 OA
BRANCH  21  24
ATOM     24  C   UNL     1       6.475   6.767  -3.475  0.00  0.00    +0.223 C 
BRANCH  24  29
ATOM     25  C   UNL     1      11.563   9.369  -4.330  0.00  0.00    +0.044 C 
ATOM     26  C   UNL     1      10.236   8.691  -4.106  0.00  0.00    -0.050 A 
ATOM     27  C   UNL     1       9.069   9.295  -4.537  0.00  0.00    +0.003 A 
ATOM     28  C   UNL     1       7.852   8.673  -4.332  0.00  0.00    +0.005 A 
ATOM     29  C   UNL     1       7.802   7.445  -3.698  0.00  0.00    -0.025 A 
ATOM     30  C   UNL     1       8.968   6.843  -3.264  0.00  0.00    +0.005 A 
ATOM     31  C   UNL     1      10.185   7.464  -3.472  0.00  0.00    +0.003 A 
ENDBRANCH  24  29
ENDBRANCH  21  24
ENDBRANCH  19  21
ENDBRANCH   1  19
TORSDOF 4
