REMARK  Name = ZINC60942687
REMARK  6 active torsions:
REMARK  status: ('A' for Active; 'I' for Inactive)
REMARK    1  A    between atoms: C_1  and  N_2
REMARK    2  A    between atoms: N_2  and  C_19
REMARK    3  A    between atoms: C_3  and  C_5
REMARK    4  A    between atoms: C_5  and  N_6
REMARK    5  A    between atoms: C_15  and  C_16
REMARK    6  A    between atoms: C_19  and  C_25
REMARK                            x       y       z     vdW  Elec       q    Type
REMARK                         _______ _______ _______ _____ _____    ______ ____
ROOT
ATOM      1  N   UNL     1       0.227  -0.712   3.530  0.00  0.00    -0.278 NA
ATOM      2  C   UNL     1       1.455  -1.513   3.543  0.00  0.00    +0.121 C 
ATOM      3  C   UNL     1       1.376  -2.582   4.601  0.00  0.00    -0.030 A 
ATOM      4  C   UNL     1       2.255  -3.652   4.526  0.00  0.00    +0.005 A 
ATOM      5  C   UNL     1       2.220  -4.652   5.476  0.00  0.00    +0.000 A 
ATOM      6  C   UNL     1       1.305  -4.588   6.510  0.00  0.00    +0.000 A 
ATOM      7  C   UNL     1       0.429  -3.525   6.586  0.00  0.00    +0.004 A 
ATOM      8  C   UNL     1       0.461  -2.520   5.630  0.00  0.00    -0.041 A 
ATOM      9  C   UNL     1      -0.522  -1.384   5.748  0.00  0.00    +0.063 C 
ATOM     10  C   UNL     1      -0.069  -0.209   4.881  0.00  0.00    +0.148 C 
ENDROOT
BRANCH  10  11
ATOM     11  C   UNL     1      -1.166   0.821   4.809  0.00  0.00    +0.228 C 
ATOM     12  O   UNL     1      -2.069   0.690   4.010  0.00  0.00    -0.274 OA
ATOM     13  N   UNL     1      -1.145   1.887   5.633  0.00  0.00    -0.328 N 
ATOM     14  H   UNL     1      -0.423   1.991   6.273  0.00  0.00    +0.145 HD
ATOM     15  H   UNL     1      -1.852   2.550   5.587  0.00  0.00    +0.145 HD
ENDBRANCH  10  11
BRANCH   1  16
ATOM     16  C   UNL     1       0.329   0.393   2.567  0.00  0.00    +0.181 C 
BRANCH  16  19
ATOM     17  C   UNL     1       0.470   2.125   0.329  0.00  0.00    +0.133 C 
ATOM     18  N   UNL     1       0.299   0.687   0.112  0.00  0.00    -0.285 N 
ATOM     19  C   UNL     1       0.230  -0.151   1.166  0.00  0.00    +0.231 C 
ATOM     20  O   UNL     1       0.087  -1.342   0.986  0.00  0.00    -0.274 OA
BRANCH  18  21
ATOM     21  C   UNL     1       0.202   0.158  -1.251  0.00  0.00    +0.124 C 
ATOM     22  C   UNL     1       1.339  -0.837  -1.494  0.00  0.00    +0.041 C 
ATOM     23  C   UNL     1       1.238  -1.389  -2.918  0.00  0.00    +0.003 C 
ATOM     24  C   UNL     1       1.344  -0.238  -3.920  0.00  0.00    +0.000 C 
ATOM     25  C   UNL     1       0.208   0.757  -3.677  0.00  0.00    +0.003 C 
ATOM     26  C   UNL     1       0.309   1.309  -2.253  0.00  0.00    +0.041 C 
BRANCH  21  27
ATOM     27  C   UNL     1      -1.092  -0.523  -1.423  0.00  0.00    +0.089 C 
ATOM     28  N   UNL     1      -2.090  -1.049  -1.555  0.00  0.00    -0.194 NA
ENDBRANCH  21  27
ENDBRANCH  18  21
ENDBRANCH  16  19
ENDBRANCH   1  16
TORSDOF 5
