REMARK  Name = ZINC39639201
REMARK  13 active torsions:
REMARK  status: ('A' for Active; 'I' for Inactive)
REMARK    1  A    between atoms: C_1  and  O_2
REMARK    2  A    between atoms: O_2  and  C_3
REMARK    3  A    between atoms: C_3  and  C_4
REMARK    4  A    between atoms: C_4  and  C_5
REMARK    5  A    between atoms: C_9  and  C_18
REMARK    6  A    between atoms: N_20  and  C_21
REMARK    7  A    between atoms: C_21  and  C_22
REMARK    8  A    between atoms: C_23  and  O_32
REMARK    9  A    between atoms: C_25  and  O_30
REMARK   10  A    between atoms: C_27  and  O_28
REMARK   11  A    between atoms: O_28  and  C_29
REMARK   12  A    between atoms: O_30  and  C_31
REMARK   13  A    between atoms: O_32  and  C_33
REMARK                            x       y       z     vdW  Elec       q    Type
REMARK                         _______ _______ _______ _____ _____    ______ ____
ROOT
ATOM      1  C   UNL     1       1.406  -2.724  -2.363  0.00  0.00    +0.218 C 
ATOM      2  O   UNL     1       1.840  -2.025  -3.255  0.00  0.00    -0.276 OA
ATOM      3  N   UNL     1       1.446  -4.066  -2.479  0.00  0.00    -0.300 N 
ATOM      4  C   UNL     1       0.963  -5.075  -1.508  0.00  0.00    +0.121 C 
ATOM      5  C   UNL     1       0.318  -6.177  -2.378  0.00  0.00    +0.100 C 
ATOM      6  C   UNL     1       0.991  -6.035  -3.753  0.00  0.00    -0.004 C 
ATOM      7  C   UNL     1       1.976  -4.865  -3.609  0.00  0.00    +0.115 C 
ATOM      8  C   UNL     1       1.740  -7.316  -4.109  0.00  0.00    -0.010 C 
ATOM      9  C   UNL     1       2.353  -7.172  -5.505  0.00  0.00    -0.082 C 
ATOM     10  N   UNL     1       1.289  -6.915  -6.484  0.00  0.00    +0.379 N 
ATOM     11  C   UNL     1       0.635  -5.635  -6.188  0.00  0.00    -0.082 C 
ATOM     12  C   UNL     1      -0.050  -5.714  -4.821  0.00  0.00    -0.010 C 
ATOM     13  H   UNL     1       1.688  -6.881  -7.410  0.00  0.00    -0.086 HD
ATOM     14  H   UNL     1       0.608  -7.658  -6.441  0.00  0.00    -0.086 HD
ENDROOT
BRANCH   5  15
ATOM     15  C   UNL     1       0.595  -7.538  -1.793  0.00  0.00    +0.218 C 
ATOM     16  O   UNL     1       1.620  -7.734  -1.174  0.00  0.00    -0.275 OA
ATOM     17  N   UNL     1      -0.295  -8.536  -1.957  0.00  0.00    -0.311 N 
ATOM     18  H   UNL     1      -1.114  -8.379  -2.452  0.00  0.00    +0.149 HD
BRANCH  17  19
ATOM     19  C   UNL     1      -0.025  -9.859  -1.388  0.00  0.00    +0.147 C 
BRANCH  19  20
ATOM     20  C   UNL     1      -1.167 -10.788  -1.711  0.00  0.00    +0.053 A 
ATOM     21  C   UNL     1      -2.247 -10.886  -0.847  0.00  0.00    +0.132 A 
ATOM     22  C   UNL     1      -3.298 -11.740  -1.144  0.00  0.00    +0.091 A 
ATOM     23  C   UNL     1      -3.269 -12.496  -2.307  0.00  0.00    +0.127 A 
ATOM     24  C   UNL     1      -2.190 -12.397  -3.172  0.00  0.00    +0.091 A 
ATOM     25  C   UNL     1      -1.141 -11.539  -2.876  0.00  0.00    +0.132 A 
BRANCH  25  26
ATOM     26  O   UNL     1      -0.086 -11.439  -3.726  0.00  0.00    -0.495 OA
ATOM     27  C   UNL     1      -0.125 -12.242  -4.907  0.00  0.00    +0.277 C 
ENDBRANCH  25  26
BRANCH  23  28
ATOM     28  O   UNL     1      -4.299 -13.334  -2.598  0.00  0.00    -0.495 OA
ATOM     29  C   UNL     1      -4.203 -14.082  -3.812  0.00  0.00    +0.277 C 
ENDBRANCH  23  28
BRANCH  21  30
ATOM     30  O   UNL     1      -2.275 -10.146   0.292  0.00  0.00    -0.495 OA
ATOM     31  C   UNL     1      -3.418 -10.297   1.137  0.00  0.00    +0.277 C 
ENDBRANCH  21  30
ENDBRANCH  19  20
ENDBRANCH  17  19
ENDBRANCH   5  15
BRANCH   1  32
ATOM     32  C   UNL     1       0.824  -2.090  -1.126  0.00  0.00    +0.124 C 
BRANCH  32  33
ATOM     33  C   UNL     1       0.900  -0.567  -1.248  0.00  0.00    +0.168 C 
BRANCH  33  35
ATOM     34  C   UNL     1       0.370   1.462  -0.088  0.00  0.00    +0.194 C 
ATOM     35  O   UNL     1       0.347   0.033  -0.075  0.00  0.00    -0.382 OA
ENDBRANCH  33  35
ENDBRANCH  32  33
ENDBRANCH   1  32
TORSDOF 9
