REMARK  Name = ZINC02355274
REMARK  7 active torsions:
REMARK  status: ('A' for Active; 'I' for Inactive)
REMARK    1  A    between atoms: C_1  and  C_2
REMARK    2  A    between atoms: C_2  and  C_3
REMARK    3  A    between atoms: C_2  and  C_4
REMARK    4  A    between atoms: C_4  and  C_5
REMARK    5  A    between atoms: N_7  and  C_8
REMARK    6  A    between atoms: C_13  and  S_14
REMARK    7  A    between atoms: S_14  and  C_15
REMARK                            x       y       z     vdW  Elec       q    Type
REMARK                         _______ _______ _______ _____ _____    ______ ____
ROOT
ATOM      1  C   UNL     1      -0.794   7.563   4.734  0.00  0.00    +0.047 A 
ATOM      2  C   UNL     1      -1.012   8.826   5.263  0.00  0.00    +0.024 A 
ATOM      3  C   UNL     1      -1.493   9.840   4.455  0.00  0.00    +0.002 A 
ATOM      4  C   UNL     1      -1.758   9.598   3.119  0.00  0.00    +0.001 A 
ATOM      5  C   UNL     1      -1.540   8.344   2.583  0.00  0.00    +0.017 A 
ATOM      6  C   UNL     1      -1.062   7.319   3.387  0.00  0.00    +0.035 A 
ENDROOT
BRANCH   1   9
ATOM      7  C   UNL     1      -0.660   6.481   6.851  0.00  0.00    +0.217 C 
ATOM      8  O   UNL     1      -1.330   7.369   7.334  0.00  0.00    -0.275 OA
ATOM      9  N   UNL     1      -0.307   6.534   5.551  0.00  0.00    -0.285 N 
ATOM     10  H   UNL     1       0.285   5.860   5.181  0.00  0.00    +0.155 HD
BRANCH   7  11
ATOM     11  C   UNL     1      -0.222   5.318   7.704  0.00  0.00    +0.099 C 
BRANCH  11  13
ATOM     12  C   UNL     1      -2.281   5.441   9.114  0.00  0.00    +0.008 C 
ATOM     13  C   UNL     1      -0.752   5.502   9.127  0.00  0.00    -0.008 C 
ATOM     14  C   UNL     1      -0.206   4.388  10.022  0.00  0.00    +0.008 C 
ENDBRANCH  11  13
ENDBRANCH   7  11
ENDBRANCH   1   9
BRANCH   6  15
ATOM     15  S   UNL     1      -0.787   5.716   2.708  0.00  0.00    -0.067 S 
BRANCH  15  16
ATOM     16  C   UNL     1      -2.187   4.865   3.356  0.00  0.00    +0.113 A 
ATOM     17  C   UNL     1      -2.485   3.517   3.001  0.00  0.00    +0.043 A 
ATOM     18  C   UNL     1      -1.733   2.661   2.099  0.00  0.00    -0.025 A 
ATOM     19  C   UNL     1      -2.210   1.409   1.913  0.00  0.00    -0.004 A 
ATOM     20  S   UNL     1      -3.669   1.309   2.920  0.00  0.00    -0.073 S 
ATOM     21  C   UNL     1      -3.640   2.941   3.588  0.00  0.00    +0.113 A 
ATOM     22  N   UNL     1      -4.426   3.588   4.426  0.00  0.00    -0.228 NA
ATOM     23  C   UNL     1      -4.091   4.840   4.715  0.00  0.00    +0.223 A 
ATOM     24  N   UNL     1      -3.034   5.441   4.208  0.00  0.00    -0.228 NA
ATOM     25  C   UNL     1      -1.629   0.337   1.044  0.00  0.00    +0.043 C 
ATOM     26  C   UNL     1      -0.606   0.979   0.096  0.00  0.00    +0.005 C 
ATOM     27  C   UNL     1       0.313   1.895   0.910  0.00  0.00    +0.005 C 
ATOM     28  C   UNL     1      -0.466   3.122   1.385  0.00  0.00    +0.037 C 
ENDBRANCH  15  16
ENDBRANCH   6  15
TORSDOF 5
