REMARK  Name = ZINC12409879
REMARK  7 active torsions:
REMARK  status: ('A' for Active; 'I' for Inactive)
REMARK    1  A    between atoms: C_1  and  C_2
REMARK    2  A    between atoms: C_6  and  C_30
REMARK    3  A    between atoms: C_7  and  C_29
REMARK    4  A    between atoms: C_10  and  C_28
REMARK    5  A    between atoms: C_15  and  C_16
REMARK    6  A    between atoms: C_16  and  C_17
REMARK    7  A    between atoms: N_19  and  C_20
REMARK                            x       y       z     vdW  Elec       q    Type
REMARK                         _______ _______ _______ _____ _____    ______ ____
ROOT
ATOM      1  C   UNL     1      -0.013   1.086   0.008  0.00  0.00    +0.045 C 
ATOM      2  C   UNL     1      -0.718   1.572   1.248  0.00  0.00    -0.029 A 
ATOM      3  C   UNL     1       0.025   1.826   2.486  0.00  0.00    +0.022 A 
ATOM      4  C   UNL     1       1.404   1.624   2.546  0.00  0.00    +0.024 A 
ATOM      5  C   UNL     1       2.076   1.875   3.731  0.00  0.00    +0.029 A 
ATOM      6  C   UNL     1       3.488   1.776   4.150  0.00  0.00    +0.031 A 
ATOM      7  C   UNL     1       3.518   2.162   5.446  0.00  0.00    +0.111 A 
ATOM      8  O   UNL     1       2.280   2.483   5.859  0.00  0.00    -0.459 OA
ATOM      9  C   UNL     1       1.378   2.328   4.868  0.00  0.00    +0.142 A 
ATOM     10  C   UNL     1       0.007   2.527   4.802  0.00  0.00    +0.035 A 
ATOM     11  C   UNL     1      -0.675   2.280   3.623  0.00  0.00    +0.146 A 
ATOM     12  O   UNL     1      -2.012   2.472   3.553  0.00  0.00    -0.422 OA
ATOM     13  C   UNL     1      -2.696   2.241   2.422  0.00  0.00    +0.341 A 
ATOM     14  O   UNL     1      -3.899   2.429   2.409  0.00  0.00    -0.245 OA
ATOM     15  C   UNL     1      -2.058   1.791   1.247  0.00  0.00    +0.049 A 
ATOM     16  C   UNL     1      -0.742   3.013   6.016  0.00  0.00    +0.051 C 
ATOM     17  C   UNL     1       4.757   2.221   6.301  0.00  0.00    +0.087 C 
ENDROOT
BRANCH   6  18
ATOM     18  C   UNL     1       4.638   1.343   3.321  0.00  0.00    -0.014 A 
ATOM     19  C   UNL     1       4.706   0.033   2.850  0.00  0.00    +0.008 A 
ATOM     20  C   UNL     1       5.776  -0.363   2.073  0.00  0.00    +0.001 A 
ATOM     21  C   UNL     1       6.785   0.533   1.772  0.00  0.00    +0.000 A 
ATOM     22  C   UNL     1       6.726   1.833   2.241  0.00  0.00    +0.001 A 
ATOM     23  C   UNL     1       5.658   2.242   3.014  0.00  0.00    +0.008 A 
ENDBRANCH   6  18
BRANCH  15  24
ATOM     24  C   UNL     1      -2.862   1.550  -0.004  0.00  0.00    +0.138 C 
BRANCH  24  25
ATOM     25  C   UNL     1      -3.351   0.124  -0.020  0.00  0.00    +0.218 C 
ATOM     26  O   UNL     1      -3.073  -0.622   0.895  0.00  0.00    -0.275 OA
ATOM     27  N   UNL     1      -4.096  -0.321  -1.050  0.00  0.00    -0.307 N 
ATOM     28  H   UNL     1      -4.318   0.276  -1.782  0.00  0.00    +0.149 HD
BRANCH  27  29
ATOM     29  C   UNL     1      -4.571  -1.707  -1.065  0.00  0.00    +0.119 C 
ATOM     30  C   UNL     1      -4.822  -2.146  -2.533  0.00  0.00    +0.197 C 
ATOM     31  S   UNL     1      -6.301  -3.210  -2.258  0.00  0.00    -0.008 S 
ATOM     32  O   UNL     1      -7.333  -2.900  -3.184  0.00  0.00    -0.170 OA
ATOM     33  O   UNL     1      -5.922  -4.553  -1.991  0.00  0.00    -0.170 OA
ATOM     34  C   UNL     1      -6.827  -2.531  -0.695  0.00  0.00    +0.132 C 
ATOM     35  C   UNL     1      -5.829  -1.806  -0.263  0.00  0.00    +0.015 C 
ENDBRANCH  27  29
ENDBRANCH  24  25
ENDBRANCH  15  24
TORSDOF 4
