REMARK  Name = ZINC35682080
REMARK  3 active torsions:
REMARK  status: ('A' for Active; 'I' for Inactive)
REMARK    1  A    between atoms: C_1  and  C_2
REMARK    2  A    between atoms: C_5  and  N_9
REMARK    3  A    between atoms: C_15  and  C_16
REMARK                            x       y       z     vdW  Elec       q    Type
REMARK                         _______ _______ _______ _____ _____    ______ ____
ROOT
ATOM      1  N   UNL     1       0.059  -4.168  -0.022  0.00  0.00    -0.304 N 
ATOM      2  C   UNL     1       0.180  -4.834   1.256  0.00  0.00    +0.224 C 
ATOM      3  N   UNL     1      -0.717  -5.977   1.398  0.00  0.00    -0.229 N 
ATOM      4  C   UNL     1      -1.024  -6.602   2.556  0.00  0.00    +0.272 C 
ATOM      5  O   UNL     1      -0.684  -6.278   3.680  0.00  0.00    -0.268 OA
ATOM      6  C   UNL     1      -1.855  -7.754   2.177  0.00  0.00    +0.132 C 
ATOM      7  C   UNL     1      -2.373  -8.720   3.019  0.00  0.00    +0.079 C 
ATOM      8  N   UNL     1      -2.010  -7.675   0.822  0.00  0.00    -0.220 NA
ATOM      9  C   UNL     1      -1.378  -6.623   0.375  0.00  0.00    +0.166 C 
ATOM     10  S   UNL     1      -1.388  -6.044  -1.296  0.00  0.00    -0.071 S 
ATOM     11  C   UNL     1      -0.052  -4.824  -1.312  0.00  0.00    +0.184 C 
ENDROOT
BRANCH   1  16
ATOM     12  C   UNL     1      -0.013   1.503   0.012  0.00  0.00    +0.045 C 
ATOM     13  C   UNL     1       0.005  -0.004   0.003  0.00  0.00    -0.032 A 
ATOM     14  C   UNL     1       1.157  -0.682   0.361  0.00  0.00    +0.006 A 
ATOM     15  C   UNL     1       1.177  -2.063   0.353  0.00  0.00    +0.023 A 
ATOM     16  C   UNL     1       0.040  -2.772  -0.013  0.00  0.00    +0.033 A 
ATOM     17  C   UNL     1      -1.115  -2.089  -0.372  0.00  0.00    +0.043 A 
ATOM     18  C   UNL     1      -1.131  -0.707  -0.358  0.00  0.00    +0.046 A 
ATOM     19 CL   UNL     1      -2.576   0.149  -0.800  0.00  0.00    -0.083 Cl
ENDBRANCH   1  16
BRANCH   7  20
ATOM     20  C   UNL     1      -3.156  -9.768   2.493  0.00  0.00    +0.130 A 
ATOM     21  C   UNL     1      -3.739 -10.792   3.216  0.00  0.00    +0.049 A 
ATOM     22  C   UNL     1      -4.418 -11.598   2.290  0.00  0.00    +0.042 A 
ATOM     23  C   UNL     1      -4.229 -11.050   1.068  0.00  0.00    +0.195 A 
ATOM     24  O   UNL     1      -3.476  -9.947   1.194  0.00  0.00    -0.463 OA
ENDBRANCH   7  20
TORSDOF 2
