REMARK  Name = ZINC25529790
REMARK  9 active torsions:
REMARK  status: ('A' for Active; 'I' for Inactive)
REMARK    1  A    between atoms: C_1  and  N_2
REMARK    2  A    between atoms: N_2  and  C_3
REMARK    3  A    between atoms: N_2  and  S_23
REMARK    4  A    between atoms: C_3  and  C_4
REMARK    5  A    between atoms: N_6  and  C_7
REMARK    6  A    between atoms: C_10  and  C_13
REMARK    7  A    between atoms: C_13  and  C_14
REMARK    8  A    between atoms: S_23  and  C_26
REMARK    9  A    between atoms: C_29  and  C_32
REMARK                            x       y       z     vdW  Elec       q    Type
REMARK                         _______ _______ _______ _____ _____    ______ ____
ROOT
ATOM      1  C   UNL     1       0.929   9.650   5.996  0.00  0.00    +0.233 C 
ATOM      2  O   UNL     1      -0.147   9.678   5.437  0.00  0.00    -0.274 OA
ATOM      3  N   UNL     1       1.993   9.096   5.382  0.00  0.00    -0.284 N 
ATOM      4  H   UNL     1       2.950   9.002   5.917  0.00  0.00    +0.155 HD
ENDROOT
BRANCH   3   5
ATOM      5  C   UNL     1       1.881   8.640   4.064  0.00  0.00    +0.033 A 
ATOM      6  C   UNL     1       0.693   8.074   3.622  0.00  0.00    +0.023 A 
ATOM      7  C   UNL     1       0.585   7.625   2.320  0.00  0.00    +0.006 A 
ATOM      8  C   UNL     1       1.659   7.741   1.457  0.00  0.00    -0.041 A 
ATOM      9  C   UNL     1       2.845   8.300   1.895  0.00  0.00    +0.006 A 
ATOM     10  C   UNL     1       2.958   8.755   3.194  0.00  0.00    +0.023 A 
BRANCH   8  11
ATOM     11  C   UNL     1       1.538   7.250   0.037  0.00  0.00    +0.098 C 
BRANCH  11  12
ATOM     12  C   UNL     1       1.036   8.368  -0.840  0.00  0.00    +0.084 A 
ATOM     13  N   UNL     1       1.730   9.258  -1.492  0.00  0.00    -0.244 NA
ATOM     14  C   UNL     1       1.153  10.215  -2.249  0.00  0.00    +0.078 A 
ATOM     15  C   UNL     1       1.762  11.239  -3.007  0.00  0.00    +0.029 A 
ATOM     16  C   UNL     1       1.008  12.119  -3.719  0.00  0.00    +0.002 A 
ATOM     17  C   UNL     1      -0.379  12.055  -3.720  0.00  0.00    +0.001 A 
ATOM     18  C   UNL     1      -1.013  11.067  -2.991  0.00  0.00    +0.017 A 
ATOM     19  C   UNL     1      -0.260  10.170  -2.273  0.00  0.00    +0.039 A 
ATOM     20  S   UNL     1      -0.606   8.781  -1.224  0.00  0.00    -0.072 S 
ENDBRANCH  11  12
ENDBRANCH   8  11
ENDBRANCH   3   5
BRANCH   1  21
ATOM     21  C   UNL     1       1.077  10.236   7.377  0.00  0.00    +0.205 C 
BRANCH  21  23
ATOM     22  C   UNL     1      -1.195   9.887   8.453  0.00  0.00    +0.132 C 
ATOM     23  N   UNL     1      -0.213  10.771   7.821  0.00  0.00    -0.171 NA
BRANCH  23  24
ATOM     24  S   UNL     1      -0.560  12.377   7.607  0.00  0.00    +0.061 S 
ATOM     25  O   UNL     1      -1.543  12.712   8.577  0.00  0.00    -0.153 OA
ATOM     26  O   UNL     1       0.687  13.053   7.521  0.00  0.00    -0.153 OA
BRANCH  24  27
ATOM     27  C   UNL     1      -1.331  12.538   6.031  0.00  0.00    +0.106 A 
ATOM     28  C   UNL     1      -0.558  12.771   4.907  0.00  0.00    +0.030 A 
ATOM     29  C   UNL     1      -1.155  12.894   3.670  0.00  0.00    +0.021 A 
ATOM     30  C   UNL     1      -2.543  12.793   3.554  0.00  0.00    +0.052 A 
ATOM     31  C   UNL     1      -3.317  12.562   4.693  0.00  0.00    +0.021 A 
ATOM     32  C   UNL     1      -2.707  12.436   5.924  0.00  0.00    +0.030 A 
BRANCH  30  33
ATOM     33  C   UNL     1      -3.169  12.924   2.273  0.00  0.00    +0.099 C 
ATOM     34  N   UNL     1      -3.666  13.028   1.257  0.00  0.00    -0.191 NA
ENDBRANCH  30  33
ENDBRANCH  24  27
ENDBRANCH  23  24
ENDBRANCH  21  23
ENDBRANCH   1  21
TORSDOF 8
