REMARK  Name = ZINC22562302
REMARK  7 active torsions:
REMARK  status: ('A' for Active; 'I' for Inactive)
REMARK    1  A    between atoms: C_1  and  C_2
REMARK    2  A    between atoms: C_9  and  N_13
REMARK    3  A    between atoms: C_10  and  C_11
REMARK    4  A    between atoms: N_13  and  C_14
REMARK    5  A    between atoms: C_14  and  N_16
REMARK    6  A    between atoms: C_17  and  C_19
REMARK    7  A    between atoms: C_22  and  C_24
REMARK                            x       y       z     vdW  Elec       q    Type
REMARK                         _______ _______ _______ _____ _____    ______ ____
ROOT
ATOM      1  C   UNL     1      -2.193   4.337   0.036  0.00  0.00    +0.142 C 
ATOM      2  S   UNL     1      -3.747   3.618   0.040  0.00  0.00    -0.018 S 
ENDROOT
BRANCH   1   3
ATOM      3  N   UNL     1      -1.091   3.560   0.027  0.00  0.00    -0.261 N 
ATOM      4  C   UNL     1      -1.213   2.218   0.020  0.00  0.00    +0.285 C 
ATOM      5  O   UNL     1      -2.318   1.707   0.023  0.00  0.00    -0.266 OA
ATOM      6  H   UNL     1      -0.093   4.022   0.024  0.00  0.00    +0.157 HD
BRANCH   4   7
ATOM      7  C   UNL     1      -0.017   1.374   0.010  0.00  0.00    +0.190 A 
ATOM      8  C   UNL     1       0.002  -0.004   0.002  0.00  0.00    +0.055 A 
ATOM      9  C   UNL     1       1.346  -0.389  -0.013  0.00  0.00    +0.050 A 
ATOM     10  C   UNL     1       2.092   0.755  -0.014  0.00  0.00    +0.136 A 
ATOM     11  O   UNL     1       1.261   1.811  -0.000  0.00  0.00    -0.450 OA
BRANCH  10  12
ATOM     12  C   UNL     1       3.567   0.821  -0.027  0.00  0.00    +0.017 A 
ATOM     13  C   UNL     1       4.321  -0.354  -0.034  0.00  0.00    +0.013 A 
ATOM     14  C   UNL     1       5.699  -0.286  -0.052  0.00  0.00    +0.021 A 
ATOM     15  C   UNL     1       6.334   0.945  -0.052  0.00  0.00    +0.041 A 
ATOM     16  C   UNL     1       5.591   2.114  -0.039  0.00  0.00    +0.021 A 
ATOM     17  C   UNL     1       4.214   2.059  -0.027  0.00  0.00    +0.013 A 
ATOM     18 CL   UNL     1       8.068   1.022  -0.067  0.00  0.00    -0.084 Cl
ENDBRANCH  10  12
ENDBRANCH   4   7
ENDBRANCH   1   3
BRANCH   1  19
ATOM     19  N   UNL     1      -2.071   5.679   0.043  0.00  0.00    -0.290 N 
ATOM     20  H   UNL     1      -1.072   6.140   0.041  0.00  0.00    +0.154 HD
BRANCH  19  28
ATOM     21  C   UNL     1      -8.704   9.826   0.006  0.00  0.00    +0.008 C 
ATOM     22  C   UNL     1      -7.268   9.387  -0.288  0.00  0.00    -0.009 C 
ATOM     23  C   UNL     1      -6.292  10.220   0.549  0.00  0.00    +0.008 C 
ATOM     24  C   UNL     1      -4.858   9.964   0.083  0.00  0.00    +0.037 C 
ATOM     25  C   UNL     1      -4.606   8.461   0.072  0.00  0.00    -0.018 A 
ATOM     26  C   UNL     1      -5.634   7.584   0.072  0.00  0.00    -0.004 A 
ATOM     27  S   UNL     1      -4.867   5.989   0.059  0.00  0.00    -0.077 S 
ATOM     28  C   UNL     1      -3.204   6.478   0.053  0.00  0.00    +0.089 A 
ATOM     29  C   UNL     1      -3.283   7.863   0.067  0.00  0.00    +0.084 A 
ATOM     30  C   UNL     1      -7.097   7.906   0.081  0.00  0.00    +0.046 C 
BRANCH  29  31
ATOM     31  C   UNL     1      -2.102   8.673   0.071  0.00  0.00    +0.102 C 
ATOM     32  N   UNL     1      -1.165   9.316   0.075  0.00  0.00    -0.191 NA
ENDBRANCH  29  31
ENDBRANCH  19  28
ENDBRANCH   1  19
TORSDOF 6
