REMARK  Name = ZINC09988105
REMARK  8 active torsions:
REMARK  status: ('A' for Active; 'I' for Inactive)
REMARK    1  A    between atoms: C_1  and  C_2
REMARK    2  A    between atoms: C_2  and  C_4
REMARK    3  A    between atoms: C_2  and  N_24
REMARK    4  A    between atoms: C_4  and  O_6
REMARK    5  A    between atoms: O_6  and  C_7
REMARK    6  A    between atoms: C_7  and  C_9
REMARK    7  A    between atoms: C_7  and  C_10
REMARK    8  A    between atoms: C_15  and  C_18
REMARK                            x       y       z     vdW  Elec       q    Type
REMARK                         _______ _______ _______ _____ _____    ______ ____
ROOT
ATOM      1  O   UNL     1       7.079   4.677   0.668  0.00  0.00    -0.451 OA
ENDROOT
BRANCH   1   2
ATOM      2  C   UNL     1       5.934   3.983   0.571  0.00  0.00    +0.328 C 
ATOM      3  O   UNL     1       5.887   2.838   0.953  0.00  0.00    -0.249 OA
BRANCH   2   5
ATOM      4  C   UNL     1       4.997   5.069  -1.452  0.00  0.00    +0.040 C 
ATOM      5  C   UNL     1       4.707   4.633  -0.015  0.00  0.00    +0.178 C 
BRANCH   5   6
ATOM      6  N   UNL     1       3.598   3.675  -0.011  0.00  0.00    -0.315 N 
ATOM      7  C   UNL     1       2.297   4.128   0.004  0.00  0.00    +0.150 C 
ATOM      8  N   UNL     1       2.045   5.398   0.014  0.00  0.00    -0.113 NA
ATOM      9  S   UNL     1       0.377   5.534   0.030  0.00  0.00    +0.101 S 
ATOM     10  O   UNL     1      -0.001   6.075   1.288  0.00  0.00    -0.146 OA
ATOM     11  O   UNL     1      -0.024   6.091  -1.214  0.00  0.00    -0.146 OA
ATOM     12  C   UNL     1      -0.067   3.819   0.024  0.00  0.00    +0.123 A 
ATOM     13  C   UNL     1       1.177   3.173   0.008  0.00  0.00    +0.043 A 
ATOM     14  C   UNL     1       1.177   1.770   0.000  0.00  0.00    +0.013 A 
ATOM     15  C   UNL     1      -0.013   1.076   0.008  0.00  0.00    +0.001 A 
ATOM     16  C   UNL     1      -1.226   1.741   0.017  0.00  0.00    +0.002 A 
ATOM     17  C   UNL     1      -1.244   3.129   0.030  0.00  0.00    +0.030 A 
ATOM     18  H   UNL     1       3.780   2.722  -0.018  0.00  0.00    +0.148 HD
ENDBRANCH   5   6
ENDBRANCH   2   5
ENDBRANCH   1   2
BRANCH   1  19
ATOM     19  C   UNL     1       8.220   3.988   1.243  0.00  0.00    +0.259 C 
ATOM     20  C   UNL     1       9.008   3.292   0.131  0.00  0.00    +0.062 C 
BRANCH  19  21
ATOM     21  C   UNL     1       9.110   4.984   1.940  0.00  0.00    +0.259 C 
ATOM     22  O   UNL     1       8.811   6.160   1.952  0.00  0.00    -0.271 OA
ATOM     23  N   UNL     1      10.237   4.570   2.551  0.00  0.00    -0.262 N 
ATOM     24  C   UNL     1      11.057   5.489   3.194  0.00  0.00    +0.165 A 
ATOM     25  N   UNL     1      12.190   5.287   3.842  0.00  0.00    -0.225 NA
ATOM     26  C   UNL     1      12.849   6.290   4.403  0.00  0.00    +0.080 A 
ATOM     27  C   UNL     1      12.348   7.558   4.308  0.00  0.00    +0.076 A 
ATOM     28  S   UNL     1      10.864   7.258   3.357  0.00  0.00    -0.060 S 
ATOM     29  H   UNL     1      10.476   3.630   2.541  0.00  0.00    +0.157 HD
BRANCH  26  30
ATOM     30  C   UNL     1      14.119   6.039   5.127  0.00  0.00    +0.001 A 
ATOM     31  C   UNL     1      14.812   7.098   5.710  0.00  0.00    +0.010 A 
ATOM     32  C   UNL     1      15.991   6.858   6.387  0.00  0.00    +0.001 A 
ATOM     33  C   UNL     1      16.490   5.571   6.477  0.00  0.00    +0.000 A 
ATOM     34  C   UNL     1      15.809   4.517   5.895  0.00  0.00    +0.001 A 
ATOM     35  C   UNL     1      14.627   4.745   5.221  0.00  0.00    +0.010 A 
ENDBRANCH  26  30
ENDBRANCH  19  21
ENDBRANCH   1  19
TORSDOF 6
