REMARK  Name = ZINC58849748
REMARK  7 active torsions:
REMARK  status: ('A' for Active; 'I' for Inactive)
REMARK    1  A    between atoms: C_1  and  C_2
REMARK    2  A    between atoms: C_5  and  O_36
REMARK    3  A    between atoms: C_6  and  N_8
REMARK    4  A    between atoms: N_8  and  S_9
REMARK    5  A    between atoms: S_9  and  C_12
REMARK    6  A    between atoms: C_25  and  C_28
REMARK    7  A    between atoms: O_36  and  C_37
REMARK                            x       y       z     vdW  Elec       q    Type
REMARK                         _______ _______ _______ _____ _____    ______ ____
ROOT
ATOM      1  C   UNL     1      -3.006  -0.738   2.803  0.00  0.00    +0.109 A 
ATOM      2  C   UNL     1      -3.969  -0.005   2.133  0.00  0.00    +0.030 A 
ATOM      3  C   UNL     1      -5.267  -0.469   2.074  0.00  0.00    +0.025 A 
ATOM      4  C   UNL     1      -5.606  -1.672   2.685  0.00  0.00    +0.031 A 
ATOM      5  C   UNL     1      -4.641  -2.415   3.346  0.00  0.00    -0.018 A 
ATOM      6  C   UNL     1      -3.339  -1.937   3.401  0.00  0.00    +0.034 A 
ATOM      7  C   UNL     1      -4.957  -3.728   3.979  0.00  0.00    +0.049 C 
ATOM      8  C   UNL     1      -5.061  -3.625   5.479  0.00  0.00    -0.023 C 
ATOM      9  C   UNL     1      -5.998  -4.423   5.924  0.00  0.00    -0.030 C 
ATOM     10  C   UNL     1      -6.659  -5.169   4.786  0.00  0.00    +0.033 C 
ATOM     11  C   UNL     1      -6.284  -4.341   3.535  0.00  0.00    +0.029 C 
ATOM     12  C   UNL     1      -7.379  -3.321   3.297  0.00  0.00    +0.106 C 
ATOM     13  N   UNL     1      -6.922  -2.118   2.634  0.00  0.00    -0.336 N 
ATOM     14  H   UNL     1      -7.570  -1.583   2.150  0.00  0.00    +0.147 HD
ENDROOT
BRANCH  12  15
ATOM     15  C   UNL     1      -7.997  -2.965   4.624  0.00  0.00    -0.009 A 
ATOM     16  C   UNL     1      -7.421  -1.990   5.416  0.00  0.00    +0.008 A 
ATOM     17  C   UNL     1      -7.988  -1.663   6.633  0.00  0.00    +0.020 A 
ATOM     18  C   UNL     1      -9.133  -2.312   7.060  0.00  0.00    +0.042 A 
ATOM     19  C   UNL     1      -9.711  -3.287   6.268  0.00  0.00    +0.040 A 
ATOM     20  C   UNL     1      -9.146  -3.611   5.047  0.00  0.00    +0.047 A 
ATOM     21 CL   UNL     1      -9.873  -4.831   4.050  0.00  0.00    -0.083 Cl
ATOM     22 CL   UNL     1      -9.845  -1.901   8.589  0.00  0.00    -0.083 Cl
ENDBRANCH  12  15
BRANCH   1  23
ATOM     23  S   UNL     1      -1.350  -0.144   2.887  0.00  0.00    +0.072 S 
ATOM     24  O   UNL     1      -0.760  -0.747   4.031  0.00  0.00    -0.150 OA
ATOM     25  O   UNL     1      -1.414   1.265   2.717  0.00  0.00    -0.150 OA
BRANCH  23  26
ATOM     26  N   UNL     1      -0.547  -0.744   1.569  0.00  0.00    -0.213 N 
ATOM     27  H   UNL     1       0.228  -1.315   1.691  0.00  0.00    +0.174 HD
BRANCH  26  33
ATOM     28  C   UNL     1      -2.532   2.496  -1.550  0.00  0.00    +0.044 C 
ATOM     29  C   UNL     1      -1.954   1.135  -1.263  0.00  0.00    -0.048 A 
ATOM     30  C   UNL     1      -1.858   0.198  -2.276  0.00  0.00    +0.007 A 
ATOM     31  C   UNL     1      -1.328  -1.053  -2.018  0.00  0.00    +0.048 A 
ATOM     32  C   UNL     1      -0.891  -1.371  -0.743  0.00  0.00    +0.142 A 
ATOM     33  C   UNL     1      -0.987  -0.428   0.278  0.00  0.00    +0.090 A 
ATOM     34  C   UNL     1      -1.515   0.827   0.011  0.00  0.00    +0.031 A 
BRANCH  32  35
ATOM     35  O   UNL     1      -0.369  -2.601  -0.488  0.00  0.00    -0.493 OA
ATOM     36  C   UNL     1      -0.303  -3.517  -1.583  0.00  0.00    +0.277 C 
ENDBRANCH  32  35
ENDBRANCH  26  33
ENDBRANCH  23  26
ENDBRANCH   1  23
TORSDOF 5
