REMARK  Name = ZINC60167546
REMARK  8 active torsions:
REMARK  status: ('A' for Active; 'I' for Inactive)
REMARK    1  A    between atoms: C_1  and  C_2
REMARK    2  A    between atoms: C_7  and  C_9
REMARK    3  A    between atoms: C_7  and  C_10
REMARK    4  A    between atoms: N_13  and  C_17
REMARK    5  A    between atoms: C_17  and  C_18
REMARK    6  A    between atoms: N_20  and  C_21
REMARK    7  A    between atoms: N_24  and  C_27
REMARK    8  A    between atoms: C_27  and  C_28
REMARK                            x       y       z     vdW  Elec       q    Type
REMARK                         _______ _______ _______ _____ _____    ______ ____
ROOT
ATOM      1  C   UNL     1      -2.293  -3.324  -4.361  0.00  0.00    +0.231 C 
ATOM      2  O   UNL     1      -1.950  -2.184  -4.591  0.00  0.00    -0.274 OA
ATOM      3  N   UNL     1      -3.319  -3.870  -5.043  0.00  0.00    -0.311 N 
ATOM      4  H   UNL     1      -3.593  -4.782  -4.859  0.00  0.00    +0.149 HD
ENDROOT
BRANCH   3   5
ATOM      5  C   UNL     1      -4.021  -3.085  -6.062  0.00  0.00    +0.069 C 
ATOM      6  C   UNL     1      -3.279  -3.198  -7.397  0.00  0.00    +0.003 C 
ATOM      7  C   UNL     1      -4.059  -2.443  -8.474  0.00  0.00    -0.077 C 
ATOM      8  N   UNL     1      -5.401  -3.022  -8.608  0.00  0.00    +0.380 N 
ATOM      9  C   UNL     1      -6.145  -2.853  -7.354  0.00  0.00    -0.077 C 
ATOM     10  C   UNL     1      -5.444  -3.625  -6.234  0.00  0.00    +0.003 C 
ATOM     11  H   UNL     1      -5.322  -4.005  -8.821  0.00  0.00    -0.082 HD
BRANCH   8  12
ATOM     12  C   UNL     1      -6.119  -2.345  -9.696  0.00  0.00    -0.075 C 
BRANCH  12  13
ATOM     13  C   UNL     1      -7.469  -3.029  -9.920  0.00  0.00    -0.028 C 
ATOM     14  C   UNL     1      -7.240  -4.459 -10.415  0.00  0.00    +0.002 C 
ATOM     15  C   UNL     1      -8.591  -5.143 -10.639  0.00  0.00    +0.000 C 
ATOM     16  C   UNL     1      -9.390  -4.363 -11.684  0.00  0.00    +0.000 C 
ATOM     17  C   UNL     1      -9.619  -2.934 -11.190  0.00  0.00    +0.000 C 
ATOM     18  C   UNL     1      -8.269  -2.249 -10.966  0.00  0.00    +0.002 C 
ENDBRANCH  12  13
ENDBRANCH   8  12
ENDBRANCH   3   5
BRANCH   1  19
ATOM     19  C   UNL     1      -1.571  -4.131  -3.313  0.00  0.00    +0.213 C 
BRANCH  19  31
ATOM     20  C   UNL     1      -0.019   1.528   0.010  0.00  0.00    +0.007 C 
ATOM     21  C   UNL     1       0.002  -0.004   0.002  0.00  0.00    -0.011 C 
ATOM     22  C   UNL     1       0.726  -0.492  -1.255  0.00  0.00    +0.038 C 
ATOM     23  C   UNL     1       0.711  -2.014  -1.298  0.00  0.00    +0.113 C 
ATOM     24  C   UNL     1       1.264  -2.646  -0.036  0.00  0.00    +0.041 C 
ATOM     25  C   UNL     1       0.787  -2.030   1.268  0.00  0.00    -0.032 C 
ATOM     26  C   UNL     1       0.764  -0.507   1.226  0.00  0.00    +0.009 C 
ATOM     27  C   UNL     1      -0.596  -2.567   1.647  0.00  0.00    +0.011 C 
ATOM     28  C   UNL     1       1.769  -2.455   2.382  0.00  0.00    +0.011 C 
ATOM     29  C   UNL     1      -0.665  -2.529  -1.638  0.00  0.00    +0.247 C 
ATOM     30  O   UNL     1      -1.716  -2.282  -1.086  0.00  0.00    -0.273 OA
ATOM     31  N   UNL     1      -0.504  -3.320  -2.721  0.00  0.00    -0.215 N 
ATOM     32  C   UNL     1       0.750  -3.268  -3.183  0.00  0.00    +0.310 C 
ATOM     33  O   UNL     1       1.137  -3.883  -4.158  0.00  0.00    -0.252 OA
ATOM     34  N   UNL     1       1.532  -2.462  -2.446  0.00  0.00    -0.285 N 
ATOM     35  H   UNL     1       2.452  -2.214  -2.618  0.00  0.00    +0.151 HD
ENDBRANCH  19  31
ENDBRANCH   1  19
TORSDOF 5
