REMARK  Name = ZINC13064603
REMARK  13 active torsions:
REMARK  status: ('A' for Active; 'I' for Inactive)
REMARK    1  A    between atoms: C_1  and  C_2
REMARK    2  A    between atoms: C_2  and  C_3
REMARK    3  A    between atoms: C_3  and  C_5
REMARK    4  A    between atoms: C_3  and  N_76
REMARK    5  A    between atoms: N_9  and  C_10
REMARK    6  A    between atoms: C_16  and  C_17
REMARK    7  A    between atoms: C_16  and  N_76
REMARK    8  A    between atoms: C_20  and  O_23
REMARK    9  A    between atoms: O_23  and  C_24
REMARK   10  A    between atoms: C_25  and  C_26
REMARK   11  A    between atoms: C_25  and  N_76
REMARK   12  A    between atoms: C_30  and  C_39
REMARK   13  A    between atoms: C_31  and  C_38
REMARK                            x       y       z     vdW  Elec       q    Type
REMARK                         _______ _______ _______ _____ _____    ______ ____
ROOT
ATOM      1  N   UNL     1      -5.914   4.447  -1.704  0.00  0.00    +0.392 N 
ATOM      2  H   UNL     1      -6.129   3.819  -2.487  0.00  0.00    -0.080 HD
ENDROOT
BRANCH   1   3
ATOM      3  C   UNL     1      -7.178   4.978  -1.152  0.00  0.00    +0.003 C 
BRANCH   3   4
ATOM      4  C   UNL     1      -8.226   3.896  -1.224  0.00  0.00    +0.138 A 
ATOM      5  N   UNL     1      -8.091   2.650  -0.840  0.00  0.00    -0.115 NA
ATOM      6  N   UNL     1      -9.206   2.043  -1.062  0.00  0.00    -0.023 NA
ATOM      7  N   UNL     1     -10.047   2.869  -1.578  0.00  0.00    -0.044 NA
ATOM      8  N   UNL     1      -9.482   4.024  -1.688  0.00  0.00    -0.228 N 
BRANCH   8   9
ATOM      9  C   UNL     1     -10.093   5.244  -2.222  0.00  0.00    +0.111 C 
ATOM     10  C   UNL     1     -11.237   5.684  -1.307  0.00  0.00    +0.027 C 
ATOM     11  C   UNL     1     -11.874   6.959  -1.865  0.00  0.00    +0.002 C 
ATOM     12  C   UNL     1     -12.420   6.684  -3.268  0.00  0.00    +0.000 C 
ATOM     13  C   UNL     1     -11.276   6.244  -4.183  0.00  0.00    +0.002 C 
ATOM     14  C   UNL     1     -10.638   4.970  -3.625  0.00  0.00    +0.027 C 
ENDBRANCH   8   9
ENDBRANCH   3   4
BRANCH   3  16
ATOM     15  C   UNL     1      -6.039   6.606   0.361  0.00  0.00    +0.002 C 
ATOM     16  C   UNL     1      -6.987   5.407   0.304  0.00  0.00    -0.011 C 
ENDBRANCH   3  16
ENDBRANCH   1   3
BRANCH   1  17
ATOM     17  C   UNL     1      -5.072   5.558  -2.196  0.00  0.00    -0.042 C 
BRANCH  17  18
ATOM     18  C   UNL     1      -5.650   6.066  -3.491  0.00  0.00    -0.064 A 
ATOM     19  C   UNL     1      -5.342   5.432  -4.681  0.00  0.00    +0.005 A 
ATOM     20  C   UNL     1      -5.875   5.893  -5.869  0.00  0.00    +0.046 A 
ATOM     21  C   UNL     1      -6.712   6.999  -5.869  0.00  0.00    +0.120 A 
ATOM     22  C   UNL     1      -7.016   7.637  -4.675  0.00  0.00    +0.046 A 
ATOM     23  C   UNL     1      -6.484   7.169  -3.489  0.00  0.00    +0.005 A 
BRANCH  21  24
ATOM     24  O   UNL     1      -7.234   7.457  -7.038  0.00  0.00    -0.495 OA
ATOM     25  C   UNL     1      -6.878   6.751  -8.228  0.00  0.00    +0.277 C 
ENDBRANCH  21  24
ENDBRANCH  17  18
ENDBRANCH   1  17
BRANCH   1  26
ATOM     26  C   UNL     1      -5.189   3.686  -0.664  0.00  0.00    -0.036 C 
BRANCH  26  27
ATOM     27  C   UNL     1      -4.118   2.859  -1.328  0.00  0.00    +0.001 A 
ATOM     28  C   UNL     1      -2.846   3.325  -1.389  0.00  0.00    +0.017 A 
ATOM     29  C   UNL     1      -1.830   2.499  -2.045  0.00  0.00    -0.001 A 
ATOM     30  C   UNL     1      -0.505   2.934  -2.154  0.00  0.00    +0.013 A 
ATOM     31  C   UNL     1       0.419   2.140  -2.772  0.00  0.00    -0.047 A 
ATOM     32  C   UNL     1       0.055   0.906  -3.293  0.00  0.00    -0.046 A 
ATOM     33  C   UNL     1      -1.244   0.458  -3.197  0.00  0.00    +0.030 A 
ATOM     34  C   UNL     1      -2.204   1.251  -2.577  0.00  0.00    +0.049 A 
ATOM     35  N   UNL     1      -3.513   0.831  -2.472  0.00  0.00    -0.322 N 
ATOM     36  H   UNL     1      -3.768  -0.032  -2.836  0.00  0.00    +0.169 HD
ATOM     37  C   UNL     1      -4.440   1.598  -1.873  0.00  0.00    +0.251 A 
ATOM     38  O   UNL     1      -5.588   1.194  -1.798  0.00  0.00    -0.268 OA
ATOM     39  C   UNL     1       1.092   0.048  -3.970  0.00  0.00    +0.044 C 
ATOM     40  C   UNL     1       1.847   2.609  -2.889  0.00  0.00    +0.044 C 
ENDBRANCH  26  27
ENDBRANCH   1  26
TORSDOF 9
