REMARK  Name = ZINC13727991
REMARK  8 active torsions:
REMARK  status: ('A' for Active; 'I' for Inactive)
REMARK    1  A    between atoms: C_1  and  C_2
REMARK    2  A    between atoms: C_7  and  C_8
REMARK    3  A    between atoms: C_11  and  C_13
REMARK    4  A    between atoms: C_13  and  N_46
REMARK    5  A    between atoms: C_14  and  C_15
REMARK    6  A    between atoms: C_14  and  N_46
REMARK    7  A    between atoms: C_15  and  C_16
REMARK    8  A    between atoms: C_16  and  N_17
REMARK                            x       y       z     vdW  Elec       q    Type
REMARK                         _______ _______ _______ _____ _____    ______ ____
ROOT
ATOM      1  C   UNL     1       2.472   1.502  -0.014  0.00  0.00    +0.135 A 
ATOM      2  C   UNL     1       3.505   1.738  -0.866  0.00  0.00    +0.050 A 
ATOM      3  C   UNL     1       4.528   0.831  -0.526  0.00  0.00    +0.043 A 
ATOM      4  C   UNL     1       4.074   0.093   0.506  0.00  0.00    +0.089 A 
ATOM      5  O   UNL     1       2.834   0.504   0.816  0.00  0.00    -0.462 OA
ENDROOT
BRANCH   1  12
ATOM      6  C   UNL     1       0.002  -0.004   0.002  0.00  0.00    +0.044 C 
ATOM      7  C   UNL     1      -0.018   1.503   0.010  0.00  0.00    -0.039 A 
ATOM      8  C   UNL     1      -1.222   2.178   0.020  0.00  0.00    +0.019 A 
ATOM      9  C   UNL     1      -1.242   3.562   0.034  0.00  0.00    +0.018 A 
ATOM     10  C   UNL     1      -0.057   4.277   0.026  0.00  0.00    +0.016 A 
ATOM     11  C   UNL     1       1.153   3.614   0.011  0.00  0.00    +0.013 A 
ATOM     12  C   UNL     1       1.180   2.219   0.003  0.00  0.00    +0.020 A 
ATOM     13 BR   UNL     1      -2.895   4.479   0.056  0.00  0.00    -0.050 Br
ENDBRANCH   1  12
BRANCH   4  14
ATOM     14  C   UNL     1       4.834  -1.007   1.201  0.00  0.00    -0.007 C 
BRANCH  14  15
ATOM     15  N   UNL     1       5.604  -0.431   2.320  0.00  0.00    +0.384 N 
ATOM     16  H   UNL     1       4.958   0.018   2.980  0.00  0.00    -0.085 HD
ATOM     17  H   UNL     1       6.260   0.269   1.954  0.00  0.00    -0.085 HD
BRANCH  15  18
ATOM     18  C   UNL     1       6.359  -1.487   3.019  0.00  0.00    -0.081 C 
BRANCH  18  19
ATOM     19  C   UNL     1       7.147  -0.861   4.172  0.00  0.00    -0.000 C 
BRANCH  19  20
ATOM     20  C   UNL     1       7.934  -1.950   4.903  0.00  0.00    +0.106 C 
BRANCH  20  21
ATOM     21  N   UNL     1       8.687  -1.351   6.007  0.00  0.00    -0.302 N 
ATOM     22  C   UNL     1      10.056  -0.835   5.891  0.00  0.00    +0.108 C 
ATOM     23  C   UNL     1      10.261   0.069   7.129  0.00  0.00    +0.028 C 
ATOM     24  C   UNL     1       9.255  -0.542   8.133  0.00  0.00    +0.097 C 
ATOM     25  C   UNL     1       8.216  -1.207   7.258  0.00  0.00    +0.216 C 
ATOM     26  O   UNL     1       7.117  -1.560   7.631  0.00  0.00    -0.276 OA
ENDBRANCH  20  21
ENDBRANCH  19  20
ENDBRANCH  18  19
ENDBRANCH  15  18
ENDBRANCH  14  15
ENDBRANCH   4  14
TORSDOF 7
