REMARK  Name = ZINC14270516
REMARK  10 active torsions:
REMARK  status: ('A' for Active; 'I' for Inactive)
REMARK    1  A    between atoms: C_1  and  C_2
REMARK    2  A    between atoms: C_2  and  C_3
REMARK    3  A    between atoms: C_2  and  C_4
REMARK    4  A    between atoms: C_7  and  C_10
REMARK    5  A    between atoms: C_11  and  C_12
REMARK    6  A    between atoms: N_14  and  C_15
REMARK    7  A    between atoms: C_15  and  N_17
REMARK    8  A    between atoms: N_17  and  C_18
REMARK    9  A    between atoms: C_18  and  C_19
REMARK   10  A    between atoms: C_22  and  C_25
REMARK                            x       y       z     vdW  Elec       q    Type
REMARK                         _______ _______ _______ _____ _____    ______ ____
ROOT
ATOM      1  N   UNL     1      -4.432   7.814   7.718  0.00  0.00    -0.322 N 
ATOM      2  H   UNL     1      -4.078   8.453   7.080  0.00  0.00    +0.148 HD
ENDROOT
BRANCH   1   3
ATOM      3  C   UNL     1      -4.293   6.492   7.496  0.00  0.00    +0.137 C 
ATOM      4  S   UNL     1      -4.918   5.364   8.624  0.00  0.00    -0.018 S 
BRANCH   3   7
ATOM      5  C   UNL     1      -3.525   4.735   6.165  0.00  0.00    +0.242 C 
ATOM      6  O   UNL     1      -3.968   3.934   6.966  0.00  0.00    -0.270 OA
ATOM      7  N   UNL     1      -3.663   6.057   6.387  0.00  0.00    -0.264 N 
ATOM      8  H   UNL     1      -3.310   6.696   5.748  0.00  0.00    +0.157 HD
BRANCH   5  10
ATOM      9  C   UNL     1      -2.702   2.940   4.739  0.00  0.00    +0.013 C 
ATOM     10  C   UNL     1      -2.841   4.263   4.961  0.00  0.00    +0.068 C 
BRANCH   9  14
ATOM     11  C   UNL     1      -0.718   1.572   1.248  0.00  0.00    -0.045 A 
ATOM     12  C   UNL     1      -0.854   2.930   1.475  0.00  0.00    +0.004 A 
ATOM     13  C   UNL     1      -1.502   3.383   2.604  0.00  0.00    +0.008 A 
ATOM     14  C   UNL     1      -2.014   2.465   3.527  0.00  0.00    -0.025 A 
ATOM     15  C   UNL     1      -1.868   1.094   3.294  0.00  0.00    +0.008 A 
ATOM     16  C   UNL     1      -1.222   0.657   2.156  0.00  0.00    +0.004 A 
BRANCH  11  18
ATOM     17  C   UNL     1       1.423   1.615  -0.003  0.00  0.00    +0.012 C 
ATOM     18  C   UNL     1      -0.013   1.086   0.008  0.00  0.00    +0.013 C 
ATOM     19  C   UNL     1      -0.753   1.593  -1.232  0.00  0.00    +0.012 C 
ENDBRANCH  11  18
ENDBRANCH   9  14
ENDBRANCH   5  10
ENDBRANCH   3   7
ENDBRANCH   1   3
BRANCH   1  20
ATOM     20  C   UNL     1      -5.117   8.286   8.924  0.00  0.00    +0.138 C 
BRANCH  20  21
ATOM     21  C   UNL     1      -5.137   9.793   8.933  0.00  0.00    -0.030 A 
ATOM     22  C   UNL     1      -4.104  10.492   9.531  0.00  0.00    +0.006 A 
ATOM     23  C   UNL     1      -4.114  11.872   9.537  0.00  0.00    +0.011 A 
ATOM     24  C   UNL     1      -5.174  12.562   8.948  0.00  0.00    +0.007 A 
ATOM     25  C   UNL     1      -6.216  11.851   8.351  0.00  0.00    +0.011 A 
ATOM     26  C   UNL     1      -6.191  10.471   8.347  0.00  0.00    +0.006 A 
BRANCH  24  27
ATOM     27  C   UNL     1      -5.194  14.041   8.957  0.00  0.00    +0.109 A 
ATOM     28  N   UNL     1      -6.094  14.856   8.454  0.00  0.00    -0.239 NA
ATOM     29  C   UNL     1      -5.986  16.196   8.540  0.00  0.00    +0.079 A 
ATOM     30  C   UNL     1      -6.880  17.179   8.049  0.00  0.00    +0.029 A 
ATOM     31  C   UNL     1      -6.618  18.503   8.215  0.00  0.00    +0.002 A 
ATOM     32  C   UNL     1      -5.474  18.944   8.866  0.00  0.00    +0.001 A 
ATOM     33  C   UNL     1      -4.575  18.018   9.360  0.00  0.00    +0.017 A 
ATOM     34  C   UNL     1      -4.830  16.678   9.198  0.00  0.00    +0.040 A 
ATOM     35  S   UNL     1      -3.997  15.174   9.647  0.00  0.00    -0.067 S 
ENDBRANCH  24  27
ENDBRANCH  20  21
ENDBRANCH   1  20
TORSDOF 8
