REMARK  Name = ZINC36600204
REMARK  14 active torsions:
REMARK  status: ('A' for Active; 'I' for Inactive)
REMARK    1  A    between atoms: C_1  and  C_2
REMARK    2  A    between atoms: C_7  and  C_8
REMARK    3  A    between atoms: C_8  and  C_10
REMARK    4  A    between atoms: C_8  and  N_17
REMARK    5  A    between atoms: N_12  and  C_13
REMARK    6  A    between atoms: C_13  and  C_14
REMARK    7  A    between atoms: C_13  and  C_15
REMARK    8  A    between atoms: C_13  and  C_16
REMARK    9  A    between atoms: N_17  and  C_18
REMARK   10  A    between atoms: C_18  and  C_19
REMARK   11  A    between atoms: C_22  and  C_24
REMARK   12  A    between atoms: C_25  and  C_27
REMARK   13  A    between atoms: C_27  and  C_28
REMARK   14  A    between atoms: C_27  and  C_34
REMARK                            x       y       z     vdW  Elec       q    Type
REMARK                         _______ _______ _______ _____ _____    ______ ____
ROOT
ATOM      1  N   UNL     1      -0.634  -0.601   4.032  0.00  0.00    -0.278 N 
ATOM      2  C   UNL     1      -0.687  -1.918   4.311  0.00  0.00    +0.229 C 
ATOM      3  O   UNL     1      -0.013  -2.376   5.210  0.00  0.00    -0.275 OA
ENDROOT
BRANCH   1   4
ATOM      4  C   UNL     1      -1.514  -0.033   3.008  0.00  0.00    +0.193 C 
BRANCH   4  11
ATOM      5  C   UNL     1      -3.714  -0.638   4.779  0.00  0.00    +0.044 C 
ATOM      6  C   UNL     1      -3.380   0.795   4.456  0.00  0.00    -0.045 A 
ATOM      7  C   UNL     1      -4.123   1.820   5.011  0.00  0.00    +0.004 A 
ATOM      8  C   UNL     1      -3.816   3.135   4.715  0.00  0.00    +0.000 A 
ATOM      9  C   UNL     1      -2.767   3.425   3.862  0.00  0.00    +0.000 A 
ATOM     10  C   UNL     1      -2.023   2.400   3.308  0.00  0.00    +0.006 A 
ATOM     11  C   UNL     1      -2.327   1.085   3.608  0.00  0.00    -0.015 A 
ENDBRANCH   4  11
BRANCH   4  12
ATOM     12  C   UNL     1      -0.682   0.506   1.872  0.00  0.00    +0.239 C 
ATOM     13  O   UNL     1       0.513   0.659   2.016  0.00  0.00    -0.273 OA
ATOM     14  N   UNL     1      -1.265   0.817   0.698  0.00  0.00    -0.309 N 
ATOM     15  H   UNL     1      -2.230   0.772   0.609  0.00  0.00    +0.149 HD
BRANCH  14  16
ATOM     16  C   UNL     1      -0.442   1.222  -0.444  0.00  0.00    +0.026 C 
ATOM     17  C   UNL     1       0.528   0.092  -0.800  0.00  0.00    +0.031 C 
ATOM     18  C   UNL     1      -1.344   1.517  -1.644  0.00  0.00    +0.031 C 
ATOM     19  C   UNL     1       0.351   2.479  -0.081  0.00  0.00    +0.031 C 
ENDBRANCH  14  16
ENDBRANCH   4  12
ENDBRANCH   1   4
BRANCH   1  20
ATOM     20  C   UNL     1       0.304   0.263   4.753  0.00  0.00    +0.183 C 
BRANCH  20  21
ATOM     21  C   UNL     1      -0.363   0.809   5.989  0.00  0.00    +0.122 A 
ATOM     22  C   UNL     1      -0.354   0.236   7.206  0.00  0.00    +0.046 A 
ATOM     23  C   UNL     1      -1.097   1.081   8.062  0.00  0.00    +0.045 A 
ATOM     24  C   UNL     1      -1.516   2.119   7.316  0.00  0.00    +0.102 A 
ATOM     25  O   UNL     1      -1.064   1.952   6.063  0.00  0.00    -0.463 OA
ATOM     26  C   UNL     1      -2.348   3.277   7.806  0.00  0.00    +0.086 C 
ENDBRANCH  20  21
ENDBRANCH   1  20
BRANCH   2  27
ATOM     27  C   UNL     1      -1.583  -2.823   3.505  0.00  0.00    +0.135 C 
BRANCH  27  28
ATOM     28  C   UNL     1      -0.901  -3.183   2.211  0.00  0.00    -0.031 A 
ATOM     29  C   UNL     1       0.422  -3.585   2.215  0.00  0.00    +0.005 A 
ATOM     30  C   UNL     1       1.047  -3.915   1.027  0.00  0.00    +0.000 A 
ATOM     31  C   UNL     1       0.350  -3.844  -0.165  0.00  0.00    +0.000 A 
ATOM     32  C   UNL     1      -0.973  -3.443  -0.169  0.00  0.00    +0.000 A 
ATOM     33  C   UNL     1      -1.600  -3.117   1.020  0.00  0.00    +0.005 A 
ENDBRANCH  27  28
BRANCH  27  34
ATOM     34  C   UNL     1      -1.865  -4.079   4.290  0.00  0.00    -0.031 A 
ATOM     35  C   UNL     1      -0.825  -4.909   4.663  0.00  0.00    +0.005 A 
ATOM     36  C   UNL     1      -1.084  -6.060   5.383  0.00  0.00    +0.000 A 
ATOM     37  C   UNL     1      -2.383  -6.381   5.730  0.00  0.00    +0.000 A 
ATOM     38  C   UNL     1      -3.423  -5.550   5.357  0.00  0.00    +0.000 A 
ATOM     39  C   UNL     1      -3.164  -4.397   4.641  0.00  0.00    +0.005 A 
ENDBRANCH  27  34
ENDBRANCH   2  27
TORSDOF 9
