REMARK  Name = ZINC05274705
REMARK  6 active torsions:
REMARK  status: ('A' for Active; 'I' for Inactive)
REMARK    1  A    between atoms: C_1  and  N_44
REMARK    2  A    between atoms: C_9  and  O_24
REMARK    3  A    between atoms: C_11  and  C_14
REMARK    4  A    between atoms: C_17  and  C_20
REMARK    5  A    between atoms: C_20  and  O_22
REMARK    6  A    between atoms: O_22  and  C_23
REMARK                            x       y       z     vdW  Elec       q    Type
REMARK                         _______ _______ _______ _____ _____    ______ ____
ROOT
ATOM      1  C   UNL     1       0.117   1.427  -2.386  0.00  0.00    -0.096 C 
ATOM      2  C   UNL     1      -0.013   1.086   0.008  0.00  0.00    -0.074 C 
ATOM      3  C   UNL     1      -0.724   1.577   1.272  0.00  0.00    +0.018 C 
ATOM      4  C   UNL     1      -2.198   1.215   1.163  0.00  0.00    -0.027 A 
ATOM      5  C   UNL     1      -2.729   0.902  -0.043  0.00  0.00    -0.021 A 
ATOM      6  S   UNL     1      -4.434   0.552   0.287  0.00  0.00    -0.080 S 
ATOM      7  C   UNL     1      -4.437   0.815   1.978  0.00  0.00    +0.080 A 
ATOM      8  C   UNL     1      -3.117   1.176   2.284  0.00  0.00    +0.067 A 
ATOM      9  C   UNL     1      -2.804   1.460   3.708  0.00  0.00    +0.220 C 
ATOM     10  N   UNL     1      -3.802   1.567   4.541  0.00  0.00    -0.223 NA
ATOM     11  C   UNL     1      -5.209   1.523   4.161  0.00  0.00    +0.224 C 
ATOM     12  N   UNL     1      -5.416   0.726   2.938  0.00  0.00    -0.313 N 
ATOM     13  C   UNL     1      -2.005   0.868  -1.352  0.00  0.00    -0.036 C 
ATOM     14  H   UNL     1      -6.201   0.169   2.817  0.00  0.00    +0.149 HD
ATOM     15  N   UNL     1      -0.724   1.596  -1.182  0.00  0.00    +0.381 N 
ATOM     16  H   UNL     1      -0.922   2.595  -1.050  0.00  0.00    -0.082 HD
ENDROOT
BRANCH  11  17
ATOM     17  C   UNL     1      -5.696   2.928   3.920  0.00  0.00    -0.005 A 
ATOM     18  C   UNL     1      -6.732   3.156   3.031  0.00  0.00    +0.008 A 
ATOM     19  C   UNL     1      -7.186   4.439   2.811  0.00  0.00    +0.015 A 
ATOM     20  C   UNL     1      -6.591   5.511   3.478  0.00  0.00    +0.059 A 
ATOM     21  C   UNL     1      -5.543   5.276   4.370  0.00  0.00    +0.015 A 
ATOM     22  C   UNL     1      -5.102   3.986   4.585  0.00  0.00    +0.008 A 
BRANCH  20  23
ATOM     23  C   UNL     1      -7.068   6.889   3.242  0.00  0.00    +0.339 C 
ATOM     24  O   UNL     1      -6.548   7.820   3.824  0.00  0.00    -0.245 OA
BRANCH  23  25
ATOM     25  O   UNL     1      -8.080   7.114   2.381  0.00  0.00    -0.464 OA
ATOM     26  C   UNL     1      -8.496   8.493   2.199  0.00  0.00    +0.280 C 
ENDBRANCH  23  25
ENDBRANCH  20  23
ENDBRANCH  11  17
BRANCH   9  27
ATOM     27  O   UNL     1      -1.525   1.601   4.128  0.00  0.00    -0.492 OA
ATOM     28  H   UNL     1      -1.440   1.783   5.073  0.00  0.00    +0.294 HD
ENDBRANCH   9  27
TORSDOF 4
