REMARK  Name = ZINC39935632
REMARK  3 active torsions:
REMARK  status: ('A' for Active; 'I' for Inactive)
REMARK    1  A    between atoms: C_1  and  C_2
REMARK    2  A    between atoms: N_16  and  N_17
REMARK    3  A    between atoms: C_18  and  C_19
REMARK                            x       y       z     vdW  Elec       q    Type
REMARK                         _______ _______ _______ _____ _____    ______ ____
ROOT
ATOM      1  C   UNL     1      -0.018   1.503   0.010  0.00  0.00    +0.046 C 
ATOM      2  C   UNL     1       0.002  -0.004   0.002  0.00  0.00    -0.027 A 
ATOM      3  C   UNL     1       0.006  -0.675  -1.174  0.00  0.00    +0.005 A 
ATOM      4  C   UNL     1       0.022  -2.073  -1.222  0.00  0.00    +0.001 A 
ATOM      5  C   UNL     1       0.076  -2.825  -0.094  0.00  0.00    +0.012 A 
ATOM      6  C   UNL     1       0.117  -2.199   1.169  0.00  0.00    +0.025 A 
ATOM      7  C   UNL     1       0.315  -2.653   2.457  0.00  0.00    +0.113 C 
ATOM      8  C   UNL     1      -0.094  -1.480   3.347  0.00  0.00    +0.220 C 
ATOM      9  N   UNL     1      -0.031  -0.313   2.481  0.00  0.00    -0.361 N 
ATOM     10  C   UNL     1       0.024  -0.722   1.228  0.00  0.00    +0.049 A 
ATOM     11  N   UNL     1       0.873  -1.485   4.452  0.00  0.00    -0.288 N 
ATOM     12  C   UNL     1       1.170  -2.749   4.974  0.00  0.00    +0.231 C 
ATOM     13  N   UNL     1       1.075  -3.842   4.210  0.00  0.00    -0.113 NA
ATOM     14  N   UNL     1       0.728  -3.800   2.971  0.00  0.00    -0.147 NA
ATOM     15  N   UNL     1       1.549  -2.863   6.238  0.00  0.00    -0.247 N 
ATOM     16  H   UNL     1      -0.025   0.611   2.776  0.00  0.00    +0.162 HD
ATOM     17  H   UNL     1       1.277  -0.672   4.794  0.00  0.00    +0.151 HD
ATOM     18  H   UNL     1       1.756  -3.737   6.605  0.00  0.00    +0.192 HD
ENDROOT
BRANCH  15  19
ATOM     19  N   UNL     1       1.643  -1.813   6.981  0.00  0.00    -0.179 NA
ATOM     20  C   UNL     1       2.020  -1.927   8.236  0.00  0.00    +0.141 C 
BRANCH  20  21
ATOM     21  C   UNL     1       2.127  -0.735   9.079  0.00  0.00    +0.012 A 
ATOM     22  C   UNL     1       2.534  -0.852  10.417  0.00  0.00    +0.060 A 
ATOM     23  C   UNL     1       2.634   0.274  11.206  0.00  0.00    +0.167 A 
ATOM     24  C   UNL     1       2.329   1.531  10.674  0.00  0.00    +0.167 A 
ATOM     25  C   UNL     1       1.926   1.649   9.349  0.00  0.00    +0.065 A 
ATOM     26  C   UNL     1       1.828   0.531   8.551  0.00  0.00    +0.030 A 
ATOM     27 BR   UNL     1       1.286   0.701   6.747  0.00  0.00    -0.050 Br
ATOM     28  O   UNL     1       2.506   2.469  11.648  0.00  0.00    -0.453 OA
ATOM     29  C   UNL     1       2.522   1.738  12.888  0.00  0.00    +0.466 C 
ATOM     30  O   UNL     1       2.999   0.432  12.512  0.00  0.00    -0.453 OA
ENDBRANCH  20  21
ENDBRANCH  15  19
TORSDOF 2
