REMARK  Name = ZINC44774357
REMARK  4 active torsions:
REMARK  status: ('A' for Active; 'I' for Inactive)
REMARK    1  A    between atoms: C_5  and  C_7
REMARK    2  A    between atoms: N_9  and  N_10
REMARK    3  A    between atoms: C_11  and  C_13
REMARK    4  A    between atoms: C_19  and  C_21
REMARK                            x       y       z     vdW  Elec       q    Type
REMARK                         _______ _______ _______ _____ _____    ______ ____
ROOT
ATOM      1  N   UNL     1       0.121  -4.256  -0.024  0.00  0.00    -0.234 N 
ATOM      2  C   UNL     1      -1.033  -4.952  -0.017  0.00  0.00    +0.233 C 
ATOM      3  O   UNL     1      -2.094  -4.365  -0.003  0.00  0.00    -0.274 OA
ATOM      4  H   UNL     1       0.970  -4.726  -0.035  0.00  0.00    +0.173 HD
ENDROOT
BRANCH   2   5
ATOM      5  C   UNL     1      -1.005  -6.459  -0.026  0.00  0.00    +0.090 C 
ATOM      6  C   UNL     1      -0.297  -6.952  -1.290  0.00  0.00    +0.040 C 
ATOM      7  C   UNL     1      -0.491  -8.432  -1.447  0.00  0.00    -0.030 C 
ATOM      8  C   UNL     1      -1.402  -9.113  -0.829  0.00  0.00    -0.030 C 
ATOM      9  C   UNL     1      -2.384  -8.521   0.139  0.00  0.00    +0.038 C 
ATOM     10  C   UNL     1      -2.440  -7.001  -0.026  0.00  0.00    +0.061 C 
BRANCH  10  11
ATOM     11  C   UNL     1      -3.211  -6.392   1.116  0.00  0.00    +0.084 A 
ATOM     12  N   UNL     1      -2.946  -6.468   2.388  0.00  0.00    -0.244 NA
ATOM     13  C   UNL     1      -3.720  -5.873   3.320  0.00  0.00    +0.078 A 
ATOM     14  C   UNL     1      -3.588  -5.849   4.724  0.00  0.00    +0.029 A 
ATOM     15  C   UNL     1      -4.492  -5.182   5.493  0.00  0.00    +0.002 A 
ATOM     16  C   UNL     1      -5.566  -4.506   4.931  0.00  0.00    +0.001 A 
ATOM     17  C   UNL     1      -5.728  -4.506   3.558  0.00  0.00    +0.017 A 
ATOM     18  C   UNL     1      -4.822  -5.177   2.774  0.00  0.00    +0.039 A 
ATOM     19  S   UNL     1      -4.606  -5.454   1.035  0.00  0.00    -0.072 S 
ENDBRANCH  10  11
ENDBRANCH   2   5
BRANCH   1  22
ATOM     20  C   UNL     1       1.250  -2.160  -0.023  0.00  0.00    +0.262 C 
ATOM     21  O   UNL     1       2.313  -2.748  -0.037  0.00  0.00    -0.269 OA
ATOM     22  N   UNL     1       0.095  -2.856  -0.015  0.00  0.00    -0.230 N 
ATOM     23  H   UNL     1      -0.754  -2.386  -0.004  0.00  0.00    +0.173 HD
BRANCH  20  28
ATOM     24  C   UNL     1      -0.017   1.375   0.010  0.00  0.00    +0.001 A 
ATOM     25  C   UNL     1       1.170   2.087   0.002  0.00  0.00    +0.001 A 
ATOM     26  C   UNL     1       2.383   1.423  -0.013  0.00  0.00    +0.021 A 
ATOM     27  C   UNL     1       2.417   0.041  -0.021  0.00  0.00    +0.053 A 
ATOM     28  C   UNL     1       1.222  -0.683  -0.014  0.00  0.00    +0.056 A 
ATOM     29  C   UNL     1       0.002  -0.004   0.002  0.00  0.00    +0.014 A 
ATOM     30 CL   UNL     1       3.940  -0.792  -0.041  0.00  0.00    -0.083 Cl
ENDBRANCH  20  28
ENDBRANCH   1  22
TORSDOF 4
