REMARK  Name = ZINC14274980
REMARK  8 active torsions:
REMARK  status: ('A' for Active; 'I' for Inactive)
REMARK    1  A    between atoms: C_1  and  C_2
REMARK    2  A    between atoms: C_5  and  N_29
REMARK    3  A    between atoms: C_7  and  N_8
REMARK    4  A    between atoms: N_8  and  C_9
REMARK    5  A    between atoms: C_9  and  N_11
REMARK    6  A    between atoms: C_12  and  C_14
REMARK    7  A    between atoms: C_15  and  C_16
REMARK    8  A    between atoms: C_19  and  C_21
REMARK                            x       y       z     vdW  Elec       q    Type
REMARK                         _______ _______ _______ _____ _____    ______ ____
ROOT
ATOM      1  N   UNL     1       0.025   0.969   0.392  0.00  0.00    -0.264 N 
ATOM      2  C   UNL     1      -1.098   1.599   0.791  0.00  0.00    +0.242 C 
ATOM      3  O   UNL     1      -1.049   2.760   1.152  0.00  0.00    -0.270 OA
ATOM      4  H   UNL     1      -0.015   0.043   0.105  0.00  0.00    +0.157 HD
ENDROOT
BRANCH   1   5
ATOM      5  C   UNL     1       1.201   1.626   0.389  0.00  0.00    +0.141 C 
ATOM      6  S   UNL     1       1.270   3.260   0.897  0.00  0.00    -0.018 S 
BRANCH   5   7
ATOM      7  N   UNL     1       2.323   0.998  -0.015  0.00  0.00    -0.296 N 
ATOM      8  H   UNL     1       2.299   0.051  -0.227  0.00  0.00    +0.154 HD
BRANCH   7  15
ATOM      9  C   UNL     1       4.697  -0.198   1.000  0.00  0.00    +0.045 C 
ATOM     10  C   UNL     1       4.704   1.164   0.354  0.00  0.00    -0.029 A 
ATOM     11  C   UNL     1       5.886   1.869   0.240  0.00  0.00    +0.007 A 
ATOM     12  C   UNL     1       5.892   3.119  -0.353  0.00  0.00    +0.033 A 
ATOM     13  C   UNL     1       4.716   3.665  -0.834  0.00  0.00    +0.128 A 
ATOM     14  C   UNL     1       3.532   2.963  -0.728  0.00  0.00    +0.056 A 
ATOM     15  C   UNL     1       3.522   1.710  -0.128  0.00  0.00    +0.038 A 
BRANCH  13  16
ATOM     16  N   UNL     1       4.728   5.003  -1.468  0.00  0.00    +0.056 N 
ATOM     17  O   UNL     1       5.773   5.621  -1.566  0.00  0.00    -0.126 OA
ATOM     18  O   UNL     1       3.693   5.485  -1.892  0.00  0.00    -0.126 OA
ENDBRANCH  13  16
ENDBRANCH   7  15
ENDBRANCH   5   7
ENDBRANCH   1   5
BRANCH   2  19
ATOM     19  C   UNL     1      -2.333   0.911   0.789  0.00  0.00    +0.071 C 
ATOM     20  C   UNL     1      -3.465   1.546   1.190  0.00  0.00    +0.051 C 
BRANCH  20  21
ATOM     21  C   UNL     1      -4.699   0.859   1.189  0.00  0.00    +0.129 A 
ATOM     22  C   UNL     1      -5.919   1.382   1.576  0.00  0.00    +0.050 A 
ATOM     23  C   UNL     1      -6.864   0.366   1.414  0.00  0.00    +0.050 A 
ATOM     24  C   UNL     1      -6.191  -0.739   0.944  0.00  0.00    +0.136 A 
ATOM     25  O   UNL     1      -4.890  -0.424   0.815  0.00  0.00    -0.455 OA
BRANCH  24  26
ATOM     26  C   UNL     1      -6.795  -2.049   0.633  0.00  0.00    +0.020 A 
ATOM     27  C   UNL     1      -8.165  -2.250   0.817  0.00  0.00    +0.031 A 
ATOM     28  C   UNL     1      -8.726  -3.477   0.519  0.00  0.00    +0.043 A 
ATOM     29  C   UNL     1      -7.931  -4.509   0.050  0.00  0.00    +0.040 A 
ATOM     30  C   UNL     1      -6.571  -4.317  -0.128  0.00  0.00    +0.043 A 
ATOM     31  C   UNL     1      -5.999  -3.095   0.161  0.00  0.00    +0.031 A 
ATOM     32 CL   UNL     1      -5.583  -5.618  -0.716  0.00  0.00    -0.083 Cl
ATOM     33 CL   UNL     1     -10.429  -3.727   0.741  0.00  0.00    -0.083 Cl
ENDBRANCH  24  26
ENDBRANCH  20  21
ENDBRANCH   2  19
TORSDOF 7
