REMARK  Name = ZINC05698280
REMARK  7 active torsions:
REMARK  status: ('A' for Active; 'I' for Inactive)
REMARK    1  A    between atoms: C_1  and  C_2
REMARK    2  A    between atoms: C_5  and  C_23
REMARK    3  A    between atoms: C_6  and  O_8
REMARK    4  A    between atoms: O_8  and  C_9
REMARK    5  A    between atoms: C_9  and  C_10
REMARK    6  A    between atoms: N_12  and  C_13
REMARK    7  A    between atoms: C_16  and  N_20
REMARK                            x       y       z     vdW  Elec       q    Type
REMARK                         _______ _______ _______ _____ _____    ______ ____
ROOT
ATOM      1  C   UNL     1       3.610   5.889  -0.006  0.00  0.00    +0.255 C 
ATOM      2  O   UNL     1       4.583   5.165  -0.015  0.00  0.00    -0.272 OA
ATOM      3  N   UNL     1       3.766   7.228   0.006  0.00  0.00    -0.282 N 
ATOM      4  H   UNL     1       2.990   7.807  -0.053  0.00  0.00    +0.155 HD
ENDROOT
BRANCH   3   5
ATOM      5  C   UNL     1       5.047   7.782   0.103  0.00  0.00    +0.048 A 
ATOM      6  C   UNL     1       6.126   7.151  -0.502  0.00  0.00    +0.026 A 
ATOM      7  C   UNL     1       7.389   7.700  -0.404  0.00  0.00    +0.034 A 
ATOM      8  C   UNL     1       7.581   8.878   0.294  0.00  0.00    +0.127 A 
ATOM      9  C   UNL     1       6.510   9.510   0.897  0.00  0.00    +0.049 A 
ATOM     10  C   UNL     1       5.242   8.968   0.799  0.00  0.00    +0.041 A 
ATOM     11 BR   UNL     1       3.775   9.837   1.618  0.00  0.00    -0.048 Br
BRANCH   8  12
ATOM     12  N   UNL     1       8.937   9.464   0.395  0.00  0.00    +0.056 N 
ATOM     13  O   UNL     1       9.882   8.909  -0.136  0.00  0.00    -0.126 OA
ATOM     14  O   UNL     1       9.107  10.502   1.010  0.00  0.00    -0.126 OA
ENDBRANCH   8  12
ENDBRANCH   3   5
BRANCH   1  15
ATOM     15  C   UNL     1       2.226   5.292  -0.008  0.00  0.00    +0.324 C 
BRANCH  15  16
ATOM     16  O   UNL     1       2.323   3.866  -0.021  0.00  0.00    -0.482 OA
BRANCH  16  22
ATOM     17  C   UNL     1      -2.558   3.863  -0.009  0.00  0.00    +0.044 C 
ATOM     18  C   UNL     1      -1.240   3.131  -0.018  0.00  0.00    -0.047 A 
ATOM     19  C   UNL     1      -1.218   1.749  -0.037  0.00  0.00    +0.004 A 
ATOM     20  C   UNL     1      -0.011   1.075  -0.041  0.00  0.00    +0.007 A 
ATOM     21  C   UNL     1       1.177   1.782  -0.037  0.00  0.00    -0.009 A 
ATOM     22  C   UNL     1       1.157   3.168  -0.025  0.00  0.00    +0.124 A 
ATOM     23  C   UNL     1      -0.056   3.842  -0.015  0.00  0.00    +0.049 A 
ATOM     24  C   UNL     1       2.492   1.046  -0.048  0.00  0.00    +0.047 C 
ENDBRANCH  16  22
ENDBRANCH  15  16
ENDBRANCH   1  15
TORSDOF 5
