REMARK  Name = ZINC45149226
REMARK  8 active torsions:
REMARK  status: ('A' for Active; 'I' for Inactive)
REMARK    1  A    between atoms: C_1  and  C_2
REMARK    2  A    between atoms: N_15  and  C_16
REMARK    3  A    between atoms: C_16  and  C_18
REMARK    4  A    between atoms: C_16  and  C_26
REMARK    5  A    between atoms: C_21  and  O_24
REMARK    6  A    between atoms: O_24  and  C_25
REMARK    7  A    between atoms: C_26  and  C_27
REMARK    8  A    between atoms: C_26  and  C_28
REMARK                            x       y       z     vdW  Elec       q    Type
REMARK                         _______ _______ _______ _____ _____    ______ ____
ROOT
ATOM      1  C   UNL     1      -0.025   1.506   0.013  0.00  0.00    +0.066 C 
ATOM      2  C   UNL     1       0.000  -0.001   0.005  0.00  0.00    +0.047 A 
ATOM      3  C   UNL     1       0.010  -0.702  -1.154  0.00  0.00    +0.071 A 
ATOM      4  S   UNL     1       0.039  -2.375  -0.532  0.00  0.00    -0.060 S 
ATOM      5  C   UNL     1       0.036  -2.013   1.112  0.00  0.00    +0.161 A 
ATOM      6  N   UNL     1       0.019  -0.697   1.128  0.00  0.00    -0.230 NA
ATOM      7  N   UNL     1       0.053  -2.887   2.187  0.00  0.00    -0.307 N 
ATOM      8  C   UNL     1       0.041  -2.379   3.565  0.00  0.00    +0.126 C 
ATOM      9  C   UNL     1      -1.141  -3.011   4.310  0.00  0.00    +0.128 C 
ATOM     10  N   UNL     1      -1.111  -4.464   4.092  0.00  0.00    -0.283 N 
ATOM     11  C   UNL     1      -1.099  -4.973   2.713  0.00  0.00    +0.128 C 
ATOM     12  C   UNL     1       0.078  -4.340   1.968  0.00  0.00    +0.126 C 
ATOM     13  C   UNL     1      -1.095  -5.315   5.137  0.00  0.00    +0.303 C 
ATOM     14  O   UNL     1      -1.009  -4.883   6.271  0.00  0.00    -0.253 OA
ATOM     15  N   UNL     1      -1.173  -6.644   4.926  0.00  0.00    -0.292 N 
ATOM     16  H   UNL     1      -1.168  -6.992   4.020  0.00  0.00    +0.151 HD
ENDROOT
BRANCH  15  17
ATOM     17  C   UNL     1      -1.265  -7.562   6.063  0.00  0.00    +0.107 C 
BRANCH  17  18
ATOM     18  C   UNL     1      -1.936  -8.838   5.625  0.00  0.00    -0.027 A 
ATOM     19  C   UNL     1      -1.635  -9.388   4.392  0.00  0.00    +0.009 A 
ATOM     20  C   UNL     1      -2.249 -10.558   3.988  0.00  0.00    +0.046 A 
ATOM     21  C   UNL     1      -3.167 -11.182   4.821  0.00  0.00    +0.120 A 
ATOM     22  C   UNL     1      -3.466 -10.629   6.057  0.00  0.00    +0.046 A 
ATOM     23  C   UNL     1      -2.846  -9.461   6.459  0.00  0.00    +0.009 A 
BRANCH  21  24
ATOM     24  O   UNL     1      -3.772 -12.332   4.425  0.00  0.00    -0.495 OA
ATOM     25  C   UNL     1      -4.706 -12.919   5.333  0.00  0.00    +0.277 C 
ENDBRANCH  21  24
ENDBRANCH  17  18
BRANCH  17  26
ATOM     26  C   UNL     1       0.140  -7.875   6.581  0.00  0.00    +0.008 C 
ATOM     27  C   UNL     1       0.043  -8.835   7.769  0.00  0.00    +0.009 C 
ATOM     28  C   UNL     1       0.961  -8.526   5.466  0.00  0.00    +0.009 C 
ENDBRANCH  17  26
ENDBRANCH  15  17
TORSDOF 4
