REMARK  Name = ZINC64182133
REMARK  8 active torsions:
REMARK  status: ('A' for Active; 'I' for Inactive)
REMARK    1  A    between atoms: C_1  and  C_2
REMARK    2  A    between atoms: C_2  and  C_3
REMARK    3  A    between atoms: C_2  and  C_4
REMARK    4  A    between atoms: C_4  and  C_6
REMARK    5  A    between atoms: C_4  and  N_23
REMARK    6  A    between atoms: C_11  and  C_14
REMARK    7  A    between atoms: N_23  and  S_24
REMARK    8  A    between atoms: S_24  and  C_27
REMARK                            x       y       z     vdW  Elec       q    Type
REMARK                         _______ _______ _______ _____ _____    ______ ____
ROOT
ATOM      1  C   UNL     1      -2.759  -0.413  -0.951  0.00  0.00    +0.235 C 
ATOM      2  O   UNL     1      -3.233  -1.297  -1.633  0.00  0.00    -0.274 OA
ATOM      3  N   UNL     1      -3.288   0.826  -0.991  0.00  0.00    -0.296 N 
ATOM      4  C   UNL     1      -4.509   1.112  -1.764  0.00  0.00    +0.113 C 
ATOM      5  C   UNL     1      -5.594   1.568  -0.784  0.00  0.00    +0.054 C 
ATOM      6  C   UNL     1      -5.039   2.576   0.178  0.00  0.00    -0.043 C 
ATOM      7  C   UNL     1      -3.744   2.743   0.419  0.00  0.00    -0.004 C 
ATOM      8  C   UNL     1      -2.673   1.943  -0.261  0.00  0.00    +0.135 C 
ENDROOT
BRANCH   6   9
ATOM      9  C   UNL     1      -5.951   3.398   0.871  0.00  0.00    -0.016 C 
ATOM     10  C   UNL     1      -7.337   3.307   0.864  0.00  0.00    +0.003 A 
ATOM     11  C   UNL     1      -8.233   2.429   0.211  0.00  0.00    +0.010 A 
ATOM     12  C   UNL     1      -9.569   2.577   0.390  0.00  0.00    +0.001 A 
ATOM     13  C   UNL     1     -10.092   3.582   1.209  0.00  0.00    +0.002 A 
ATOM     14  C   UNL     1      -9.295   4.458   1.865  0.00  0.00    +0.026 A 
ATOM     15  C   UNL     1      -7.884   4.368   1.728  0.00  0.00    +0.043 A 
ATOM     16  N   UNL     1      -6.911   5.084   2.249  0.00  0.00    -0.380 N 
ATOM     17  C   UNL     1      -5.623   4.560   1.783  0.00  0.00    +0.149 C 
ATOM     18  H   UNL     1      -7.027   5.837   2.850  0.00  0.00    +0.160 HD
ENDBRANCH   6   9
BRANCH   1  19
ATOM     19  C   UNL     1      -1.580  -0.700  -0.058  0.00  0.00    +0.164 C 
BRANCH  19  21
ATOM     20  C   UNL     1       0.902  -0.514   0.164  0.00  0.00    +0.009 C 
ATOM     21  C   UNL     1      -0.290  -0.282  -0.767  0.00  0.00    +0.010 C 
ATOM     22  C   UNL     1      -0.114  -1.116  -2.038  0.00  0.00    +0.009 C 
ENDBRANCH  19  21
BRANCH  19  23
ATOM     23  N   UNL     1      -1.531  -2.134   0.240  0.00  0.00    -0.181 NA
ATOM     24  H   UNL     1      -1.446  -2.777  -0.481  0.00  0.00    +0.149 HD
BRANCH  23  25
ATOM     25  S   UNL     1      -1.619  -2.656   1.809  0.00  0.00    +0.043 S 
ATOM     26  O   UNL     1      -1.553  -4.073   1.724  0.00  0.00    -0.157 OA
ATOM     27  O   UNL     1      -0.611  -1.925   2.493  0.00  0.00    -0.157 OA
BRANCH  25  28
ATOM     28  C   UNL     1      -3.261  -2.140   2.381  0.00  0.00    +0.213 C 
ATOM     29  C   UNL     1      -3.553  -2.656   3.814  0.00  0.00    +0.066 C 
ATOM     30  C   UNL     1      -4.979  -3.086   3.943  0.00  0.00    -0.017 C 
ATOM     31  C   UNL     1      -5.689  -3.337   2.860  0.00  0.00    +0.038 C 
ATOM     32  S   UNL     1      -4.600  -3.029   1.479  0.00  0.00    -0.105 S 
ENDBRANCH  25  28
ENDBRANCH  23  25
ENDBRANCH  19  23
ENDBRANCH   1  19
TORSDOF 6
