REMARK  Name = ZINC62707789
REMARK  7 active torsions:
REMARK  status: ('A' for Active; 'I' for Inactive)
REMARK    1  A    between atoms: C_1  and  N_2
REMARK    2  A    between atoms: N_2  and  C_3
REMARK    3  A    between atoms: N_2  and  C_4
REMARK    4  A    between atoms: C_4  and  C_5
REMARK    5  A    between atoms: C_5  and  C_6
REMARK    6  A    between atoms: C_6  and  C_7
REMARK    7  A    between atoms: C_7  and  C_19
REMARK                            x       y       z     vdW  Elec       q    Type
REMARK                         _______ _______ _______ _____ _____    ______ ____
ROOT
ATOM      1  C   UNL     1       4.371  -0.226  -2.432  0.00  0.00    +0.086 C 
ATOM      2  C   UNL     1       4.981  -0.737  -3.737  0.00  0.00    +0.030 C 
ATOM      3  C   UNL     1       6.443  -1.128  -3.483  0.00  0.00    +0.043 C 
ATOM      4  C   UNL     1       7.184   0.109  -2.962  0.00  0.00    +0.229 C 
ATOM      5  O   UNL     1       6.592   1.263  -3.564  0.00  0.00    -0.490 OA
ATOM      6  C   UNL     1       5.635   1.922  -2.863  0.00  0.00    +0.143 A 
ATOM      7  C   UNL     1       4.561   1.262  -2.299  0.00  0.00    +0.016 A 
ATOM      8  C   UNL     1       3.614   1.982  -1.583  0.00  0.00    +0.009 A 
ATOM      9  C   UNL     1       3.737   3.349  -1.437  0.00  0.00    +0.002 A 
ATOM     10  C   UNL     1       4.809   4.011  -2.007  0.00  0.00    +0.024 A 
ATOM     11  C   UNL     1       5.756   3.302  -2.717  0.00  0.00    +0.083 A 
ATOM     12 CL   UNL     1       7.103   4.132  -3.432  0.00  0.00    -0.080 Cl
ENDROOT
BRANCH   1  13
ATOM     13  C   UNL     1       5.023  -0.901  -1.298  0.00  0.00    +0.074 C 
ATOM     14  N   UNL     1       5.526  -1.421  -0.422  0.00  0.00    -0.196 NA
ENDBRANCH   1  13
BRANCH   1  15
ATOM     15  C   UNL     1       2.875  -0.547  -2.416  0.00  0.00    +0.025 C 
BRANCH  15  16
ATOM     16  C   UNL     1       2.196   0.127  -3.610  0.00  0.00    -0.017 C 
BRANCH  16  17
ATOM     17  C   UNL     1       0.684  -0.089  -3.526  0.00  0.00    -0.080 C 
BRANCH  17  19
ATOM     18  C   UNL     1       0.451  -0.108  -5.913  0.00  0.00    -0.097 C 
ATOM     19  N   UNL     1       0.032   0.558  -4.673  0.00  0.00    +0.376 N 
ATOM     20  C   UNL     1      -1.426   0.455  -4.529  0.00  0.00    -0.097 C 
ATOM     21  H   UNL     1       0.299   1.530  -4.707  0.00  0.00    -0.083 HD
ENDBRANCH  17  19
ENDBRANCH  16  17
ENDBRANCH  15  16
ENDBRANCH   1  15
TORSDOF 5
