REMARK  Name = ZINC35013438
REMARK  7 active torsions:
REMARK  status: ('A' for Active; 'I' for Inactive)
REMARK    1  A    between atoms: C_1  and  C_2
REMARK    2  A    between atoms: C_5  and  C_7
REMARK    3  A    between atoms: C_7  and  C_9
REMARK    4  A    between atoms: C_7  and  N_10
REMARK    5  A    between atoms: N_10  and  C_11
REMARK    6  A    between atoms: C_11  and  C_12
REMARK    7  A    between atoms: C_16  and  N_18
REMARK                            x       y       z     vdW  Elec       q    Type
REMARK                         _______ _______ _______ _____ _____    ______ ____
ROOT
ATOM      1  N   UNL     1       2.822  -2.969   0.864  0.00  0.00    +0.388 N 
ATOM      2  H   UNL     1       3.356  -2.196   0.495  0.00  0.00    -0.084 HD
ATOM      3  H   UNL     1       2.482  -2.733   1.784  0.00  0.00    -0.084 HD
ENDROOT
BRANCH   1   4
ATOM      4  C   UNL     1       1.684  -3.245  -0.023  0.00  0.00    -0.007 C 
ATOM      5  C   UNL     1       2.192  -3.480  -1.447  0.00  0.00    -0.006 C 
BRANCH   4  10
ATOM      6  C   UNL     1      -0.018   1.503   0.010  0.00  0.00    +0.086 C 
ATOM      7  C   UNL     1       0.002  -0.004   0.002  0.00  0.00    +0.102 A 
ATOM      8  C   UNL     1      -1.078  -0.805   0.003  0.00  0.00    +0.044 A 
ATOM      9  C   UNL     1      -0.601  -2.136  -0.007  0.00  0.00    +0.043 A 
ATOM     10  C   UNL     1       0.742  -2.069  -0.013  0.00  0.00    +0.091 A 
ATOM     11  O   UNL     1       1.102  -0.775  -0.013  0.00  0.00    -0.467 OA
ENDBRANCH   4  10
ENDBRANCH   1   4
BRANCH   1  12
ATOM     12  C   UNL     1       3.678  -4.160   0.948  0.00  0.00    -0.046 C 
BRANCH  12  13
ATOM     13  C   UNL     1       4.846  -3.876   1.857  0.00  0.00    -0.062 A 
ATOM     14  C   UNL     1       6.014  -3.350   1.338  0.00  0.00    +0.003 A 
ATOM     15  C   UNL     1       7.086  -3.090   2.171  0.00  0.00    +0.018 A 
ATOM     16  C   UNL     1       6.988  -3.355   3.526  0.00  0.00    +0.048 A 
ATOM     17  C   UNL     1       5.819  -3.881   4.045  0.00  0.00    +0.140 A 
ATOM     18  C   UNL     1       4.747  -4.136   3.211  0.00  0.00    +0.035 A 
ATOM     19 BR   UNL     1       8.454  -2.999   4.667  0.00  0.00    -0.048 Br
BRANCH  17  20
ATOM     20  N   UNL     1       5.715  -4.165   5.493  0.00  0.00    +0.058 N 
ATOM     21  O   UNL     1       4.693  -4.625   5.947  0.00  0.00    -0.126 OA
ATOM     22  O   UNL     1       6.651  -3.938   6.223  0.00  0.00    -0.126 OA
ENDBRANCH  17  20
ENDBRANCH  12  13
ENDBRANCH   1  12
TORSDOF 5
