REMARK  Name = ZINC02267696
REMARK  7 active torsions:
REMARK  status: ('A' for Active; 'I' for Inactive)
REMARK    1  A    between atoms: C_1  and  C_2
REMARK    2  A    between atoms: C_3  and  N_15
REMARK    3  A    between atoms: N_6  and  C_9
REMARK    4  A    between atoms: N_7  and  C_8
REMARK    5  A    between atoms: N_15  and  N_16
REMARK    6  A    between atoms: N_20  and  C_32
REMARK    7  A    between atoms: N_23  and  C_26
REMARK                            x       y       z     vdW  Elec       q    Type
REMARK                         _______ _______ _______ _____ _____    ______ ____
ROOT
ATOM      1  N   UNL     1      -4.055   1.317   0.555  0.00  0.00    -0.172 NA
ATOM      2  C   UNL     1      -5.290   1.447   0.100  0.00  0.00    +0.206 C 
ATOM      3  C   UNL     1      -6.032   0.292  -0.441  0.00  0.00    +0.282 C 
ATOM      4  O   UNL     1      -5.628  -0.843  -0.273  0.00  0.00    -0.267 OA
ATOM      5  N   UNL     1      -7.172   0.527  -1.122  0.00  0.00    -0.206 N 
ATOM      6  C   UNL     1      -7.611   1.816  -1.328  0.00  0.00    +0.200 C 
ATOM      7  N   UNL     1      -8.517   2.038  -2.236  0.00  0.00    -0.271 NA
ATOM      8  N   UNL     1      -7.117   2.878  -0.603  0.00  0.00    -0.206 N 
ATOM      9  C   UNL     1      -5.976   2.752   0.108  0.00  0.00    +0.282 C 
ATOM     10  O   UNL     1      -5.525   3.691   0.738  0.00  0.00    -0.267 OA
ATOM     11  H   UNL     1      -8.912   1.295  -2.719  0.00  0.00    +0.189 HD
ENDROOT
BRANCH   8  12
ATOM     12  C   UNL     1      -7.805   4.098  -0.602  0.00  0.00    +0.044 A 
ATOM     13  C   UNL     1      -9.025   4.208   0.052  0.00  0.00    +0.024 A 
ATOM     14  C   UNL     1      -9.698   5.414   0.056  0.00  0.00    +0.002 A 
ATOM     15  C   UNL     1      -9.164   6.508  -0.601  0.00  0.00    +0.000 A 
ATOM     16  C   UNL     1      -7.952   6.400  -1.258  0.00  0.00    +0.002 A 
ATOM     17  C   UNL     1      -7.271   5.198  -1.260  0.00  0.00    +0.024 A 
ENDBRANCH   8  12
BRANCH   5  18
ATOM     18  C   UNL     1      -7.914  -0.548  -1.627  0.00  0.00    +0.044 A 
ATOM     19  C   UNL     1      -7.434  -1.277  -2.708  0.00  0.00    +0.024 A 
ATOM     20  C   UNL     1      -8.165  -2.340  -3.200  0.00  0.00    +0.002 A 
ATOM     21  C   UNL     1      -9.379  -2.672  -2.627  0.00  0.00    +0.000 A 
ATOM     22  C   UNL     1      -9.862  -1.944  -1.554  0.00  0.00    +0.002 A 
ATOM     23  C   UNL     1      -9.133  -0.884  -1.053  0.00  0.00    +0.024 A 
ENDBRANCH   5  18
BRANCH   1  24
ATOM     24  N   UNL     1      -3.429   0.198   0.412  0.00  0.00    -0.230 N 
ATOM     25  H   UNL     1      -3.825  -0.515  -0.113  0.00  0.00    +0.175 HD
BRANCH  24  28
ATOM     26  C   UNL     1      -1.992   2.302   2.121  0.00  0.00    +0.067 C 
ATOM     27  C   UNL     1      -1.513   0.915   1.776  0.00  0.00    +0.061 A 
ATOM     28  C   UNL     1      -2.181   0.014   1.015  0.00  0.00    +0.135 A 
ATOM     29  C   UNL     1      -1.351  -1.192   0.946  0.00  0.00    +0.295 A 
ATOM     30  O   UNL     1      -1.615  -2.222   0.354  0.00  0.00    -0.264 OA
ATOM     31  N   UNL     1      -0.234  -0.939   1.660  0.00  0.00    -0.216 N 
ATOM     32  N   UNL     1      -0.330   0.359   2.174  0.00  0.00    -0.282 N 
ATOM     33  C   UNL     1       0.679   1.018   3.006  0.00  0.00    +0.171 C 
BRANCH  31  34
ATOM     34  C   UNL     1       0.834  -1.821   1.853  0.00  0.00    +0.067 A 
ATOM     35  C   UNL     1       2.132  -1.413   1.575  0.00  0.00    +0.028 A 
ATOM     36  C   UNL     1       3.185  -2.284   1.773  0.00  0.00    +0.002 A 
ATOM     37  C   UNL     1       2.947  -3.566   2.235  0.00  0.00    +0.000 A 
ATOM     38  C   UNL     1       1.655  -3.977   2.506  0.00  0.00    +0.002 A 
ATOM     39  C   UNL     1       0.598  -3.108   2.316  0.00  0.00    +0.028 A 
ENDBRANCH  31  34
ENDBRANCH  24  28
ENDBRANCH   1  24
TORSDOF 5
