REMARK  Name = ZINC12524650
REMARK  5 active torsions:
REMARK  status: ('A' for Active; 'I' for Inactive)
REMARK    1  A    between atoms: C_1  and  C_2
REMARK    2  A    between atoms: C_2  and  C_29
REMARK    3  A    between atoms: N_9  and  C_28
REMARK    4  A    between atoms: N_14  and  C_22
REMARK    5  A    between atoms: P_15  and  N_17
REMARK                            x       y       z     vdW  Elec       q    Type
REMARK                         _______ _______ _______ _____ _____    ______ ____
ROOT
ATOM      1  C   UNL     1      -1.431   0.891   4.263  0.00  0.00    +0.022 C 
ATOM      2  C   UNL     1      -1.210   2.119   3.377  0.00  0.00    +0.031 C 
ATOM      3  C   UNL     1      -2.467   2.446   2.604  0.00  0.00    -0.015 A 
ATOM      4  C   UNL     1      -3.739   2.796   3.004  0.00  0.00    +0.006 A 
ATOM      5  C   UNL     1      -4.712   3.063   2.057  0.00  0.00    +0.000 A 
ATOM      6  C   UNL     1      -4.410   2.960   0.711  0.00  0.00    +0.002 A 
ATOM      7  C   UNL     1      -3.141   2.603   0.307  0.00  0.00    +0.024 A 
ATOM      8  C   UNL     1      -2.151   2.343   1.256  0.00  0.00    +0.038 A 
ATOM      9  N   UNL     1      -0.817   1.973   1.093  0.00  0.00    -0.305 N 
ATOM     10  C   UNL     1      -0.181   1.822   2.308  0.00  0.00    +0.033 C 
ATOM     11  C   UNL     1       1.102   1.478   2.503  0.00  0.00    +0.052 C 
ATOM     12  C   UNL     1       2.199   1.320   1.527  0.00  0.00    +0.144 C 
ATOM     13  N   UNL     1       3.322   0.980   2.033  0.00  0.00    -0.182 NA
ATOM     14  N   UNL     1       3.489   0.775   3.405  0.00  0.00    -0.180 N 
ATOM     15  P   UNL     1       1.991   1.079   4.063  0.00  0.00    +0.128 P 
ATOM     16  S   UNL     1       2.029   2.535   5.224  0.00  0.00    -0.023 S 
ATOM     17  C   UNL     1      -0.170   1.776  -0.206  0.00  0.00    +0.135 C 
ATOM     18  C   UNL     1      -0.774   3.318   4.221  0.00  0.00    +0.022 C 
ENDROOT
BRANCH  14  19
ATOM     19  C   UNL     1       4.654   0.405   4.076  0.00  0.00    +0.058 A 
ATOM     20  C   UNL     1       5.286   1.306   4.924  0.00  0.00    +0.025 A 
ATOM     21  C   UNL     1       6.437   0.934   5.590  0.00  0.00    +0.002 A 
ATOM     22  C   UNL     1       6.966  -0.330   5.406  0.00  0.00    +0.000 A 
ATOM     23  C   UNL     1       6.343  -1.228   4.559  0.00  0.00    +0.002 A 
ATOM     24  C   UNL     1       5.189  -0.865   3.893  0.00  0.00    +0.025 A 
ENDBRANCH  14  19
BRANCH  15  25
ATOM     25  N   UNL     1       1.353  -0.288   4.809  0.00  0.00    -0.258 NA
ATOM     26  C   UNL     1       1.422  -1.467   3.907  0.00  0.00    +0.091 C 
ATOM     27  C   UNL     1       1.312  -2.666   4.883  0.00  0.00    +0.017 C 
ATOM     28  C   UNL     1       2.122  -2.188   6.110  0.00  0.00    +0.017 C 
ATOM     29  C   UNL     1       2.138  -0.652   6.008  0.00  0.00    +0.091 C 
ENDBRANCH  15  25
TORSDOF 2
