REMARK  Name = ZINC41169359
REMARK  5 active torsions:
REMARK  status: ('A' for Active; 'I' for Inactive)
REMARK    1  A    between atoms: C_8  and  C_13
REMARK    2  A    between atoms: C_13  and  C_14
REMARK    3  A    between atoms: C_14  and  N_15
REMARK    4  A    between atoms: N_15  and  S_16
REMARK    5  A    between atoms: S_16  and  C_19
REMARK                            x       y       z     vdW  Elec       q    Type
REMARK                         _______ _______ _______ _____ _____    ______ ____
ROOT
ATOM      1  N   UNL     1       2.825  -6.205  -1.496  0.00  0.00    -0.190 NA
ATOM      2  H   UNL     1       3.009  -6.684  -0.673  0.00  0.00    +0.148 HD
ENDROOT
BRANCH   1   3
ATOM      3  S   UNL     1       2.614  -7.039  -2.911  0.00  0.00    +0.058 S 
ATOM      4  O   UNL     1       2.786  -8.415  -2.600  0.00  0.00    -0.153 OA
ATOM      5  O   UNL     1       1.426  -6.536  -3.506  0.00  0.00    -0.153 OA
BRANCH   3   6
ATOM      6  C   UNL     1       3.941  -6.594  -3.981  0.00  0.00    +0.106 A 
ATOM      7  C   UNL     1       3.812  -5.513  -4.833  0.00  0.00    +0.029 A 
ATOM      8  C   UNL     1       4.854  -5.173  -5.670  0.00  0.00    +0.006 A 
ATOM      9  C   UNL     1       6.033  -5.907  -5.663  0.00  0.00    -0.044 A 
ATOM     10  C   UNL     1       6.164  -6.980  -4.811  0.00  0.00    -0.042 A 
ATOM     11  C   UNL     1       5.114  -7.320  -3.968  0.00  0.00    +0.032 A 
ATOM     12  C   UNL     1       7.418  -7.810  -4.739  0.00  0.00    +0.035 C 
ATOM     13  C   UNL     1       8.279  -7.592  -5.982  0.00  0.00    +0.005 C 
ATOM     14  C   UNL     1       8.466  -6.083  -6.182  0.00  0.00    +0.005 C 
ATOM     15  C   UNL     1       7.127  -5.484  -6.609  0.00  0.00    +0.035 C 
ENDBRANCH   3   6
ENDBRANCH   1   3
BRANCH   1  16
ATOM     16  C   UNL     1       2.734  -4.743  -1.487  0.00  0.00    +0.110 C 
BRANCH  16  17
ATOM     17  C   UNL     1       2.591  -4.249  -0.046  0.00  0.00    +0.057 C 
BRANCH  17  25
ATOM     18  C   UNL     1      -0.016   1.362   0.009  0.00  0.00    +0.001 A 
ATOM     19  C   UNL     1       1.169   2.084   0.002  0.00  0.00    +0.002 A 
ATOM     20  C   UNL     1       2.386   1.439  -0.013  0.00  0.00    +0.026 A 
ATOM     21  C   UNL     1       2.430   0.048  -0.021  0.00  0.00    +0.049 A 
ATOM     22  C   UNL     1       1.226  -0.681  -0.013  0.00  0.00    -0.001 A 
ATOM     23  C   UNL     1       0.002  -0.004   0.002  0.00  0.00    +0.010 A 
ATOM     24  C   UNL     1       1.283  -2.144  -0.022  0.00  0.00    +0.019 A 
ATOM     25  C   UNL     1       2.498  -2.745  -0.037  0.00  0.00    +0.019 A 
ATOM     26  C   UNL     1       3.676  -1.967  -0.044  0.00  0.00    +0.252 A 
ATOM     27  O   UNL     1       4.758  -2.528  -0.058  0.00  0.00    -0.268 OA
ATOM     28  N   UNL     1       3.634  -0.624  -0.036  0.00  0.00    -0.322 N 
ATOM     29  H   UNL     1       4.463  -0.119  -0.042  0.00  0.00    +0.169 HD
ENDBRANCH  17  25
ENDBRANCH  16  17
ENDBRANCH   1  16
TORSDOF 5
