REMARK  Name = ZINC35018577
REMARK  9 active torsions:
REMARK  status: ('A' for Active; 'I' for Inactive)
REMARK    1  A    between atoms: C_1  and  C_2
REMARK    2  A    between atoms: C_2  and  C_3
REMARK    3  A    between atoms: N_9  and  C_10
REMARK    4  A    between atoms: C_10  and  C_11
REMARK    5  A    between atoms: C_11  and  C_13
REMARK    6  A    between atoms: C_15  and  C_21
REMARK    7  A    between atoms: N_16  and  C_19
REMARK    8  A    between atoms: C_17  and  C_18
REMARK    9  A    between atoms: C_19  and  C_20
REMARK                            x       y       z     vdW  Elec       q    Type
REMARK                         _______ _______ _______ _____ _____    ______ ____
ROOT
ATOM      1  C   UNL     1       3.825   1.465  -0.900  0.00  0.00    +0.149 C 
ATOM      2  O   UNL     1       4.639   0.565  -0.900  0.00  0.00    -0.294 OA
ENDROOT
BRANCH   1   3
ATOM      3  C   UNL     1       4.272   2.856  -0.797  0.00  0.00    +0.036 A 
ATOM      4  C   UNL     1       3.428   4.058  -0.775  0.00  0.00    +0.034 A 
ATOM      5  C   UNL     1       4.263   5.105  -0.670  0.00  0.00    +0.017 A 
ATOM      6  N   UNL     1       5.549   4.650  -0.626  0.00  0.00    -0.348 N 
ATOM      7  C   UNL     1       5.575   3.307  -0.695  0.00  0.00    +0.026 A 
ATOM      8  C   UNL     1       6.810   2.444  -0.668  0.00  0.00    +0.064 C 
ATOM      9  C   UNL     1       3.846   6.552  -0.612  0.00  0.00    +0.063 C 
BRANCH   6  10
ATOM     10  C   UNL     1       6.734   5.504  -0.514  0.00  0.00    +0.118 C 
ATOM     11  C   UNL     1       7.069   5.719   0.963  0.00  0.00    +0.027 C 
ENDBRANCH   6  10
ENDBRANCH   1   3
BRANCH   1  12
ATOM     12  C   UNL     1       2.355   1.151  -1.004  0.00  0.00    +0.003 C 
BRANCH  12  18
ATOM     13  C   UNL     1       0.737  -0.616  -1.038  0.00  0.00    -0.068 C 
ATOM     14  C   UNL     1       0.543  -2.134  -1.050  0.00  0.00    -0.015 C 
ATOM     15  C   UNL     1       1.142  -2.710  -2.337  0.00  0.00    -0.003 C 
ATOM     16  C   UNL     1       2.619  -2.313  -2.422  0.00  0.00    -0.019 C 
ATOM     17  C   UNL     1       2.736  -0.788  -2.359  0.00  0.00    -0.078 C 
ATOM     18  N   UNL     1       2.170  -0.303  -1.095  0.00  0.00    +0.386 N 
ATOM     19  H   UNL     1       2.641  -0.749  -0.323  0.00  0.00    -0.081 HD
BRANCH  13  21
ATOM     20  C   UNL     1      -1.367  -0.304   0.272  0.00  0.00    +0.002 C 
ATOM     21  C   UNL     1       0.139  -0.037   0.245  0.00  0.00    -0.019 C 
ENDBRANCH  13  21
ENDBRANCH  12  18
ENDBRANCH   1  12
TORSDOF 5
