REMARK  Name = ZINC22828466
REMARK  8 active torsions:
REMARK  status: ('A' for Active; 'I' for Inactive)
REMARK    1  A    between atoms: C_1  and  C_2
REMARK    2  A    between atoms: C_2  and  O_3
REMARK    3  A    between atoms: O_3  and  C_4
REMARK    4  A    between atoms: C_4  and  C_6
REMARK    5  A    between atoms: C_7  and  N_38
REMARK    6  A    between atoms: C_28  and  C_30
REMARK    7  A    between atoms: C_34  and  C_36
REMARK    8  A    between atoms: C_34  and  C_37
REMARK                            x       y       z     vdW  Elec       q    Type
REMARK                         _______ _______ _______ _____ _____    ______ ____
ROOT
ATOM      1  C   UNL     1       1.496  -2.087  -2.518  0.00  0.00    +0.117 C 
ATOM      2  C   UNL     1       1.578  -3.433  -2.694  0.00  0.00    +0.195 C 
ATOM      3  O   UNL     1       2.171  -3.959  -3.774  0.00  0.00    -0.446 OA
ATOM      4  C   UNL     1       2.964  -3.217  -4.569  0.00  0.00    +0.116 C 
ATOM      5  C   UNL     1       2.959  -1.872  -4.511  0.00  0.00    +0.057 C 
ATOM      6  C   UNL     1       2.071  -1.146  -3.535  0.00  0.00    +0.141 C 
ATOM      7  C   UNL     1       0.992  -0.391  -4.239  0.00  0.00    -0.001 A 
ATOM      8  C   UNL     1      -0.065  -0.762  -5.042  0.00  0.00    +0.007 A 
ATOM      9  C   UNL     1      -0.891   0.256  -5.510  0.00  0.00    +0.001 A 
ATOM     10  C   UNL     1      -0.672   1.590  -5.196  0.00  0.00    +0.006 A 
ATOM     11  C   UNL     1       0.393   1.963  -4.414  0.00  0.00    -0.023 A 
ATOM     12  C   UNL     1       1.222   0.945  -3.938  0.00  0.00    +0.045 A 
ATOM     13  N   UNL     1       2.346   1.122  -3.126  0.00  0.00    -0.263 N 
ATOM     14  C   UNL     1       2.885  -0.069  -2.829  0.00  0.00    +0.240 C 
ATOM     15  O   UNL     1       3.849  -0.292  -2.128  0.00  0.00    -0.274 OA
ATOM     16  C   UNL     1       2.760   2.477  -2.728  0.00  0.00    +0.043 C 
ATOM     17  C   UNL     1       4.273   2.612  -2.669  0.00  0.00    +0.026 C 
ATOM     18  C   UNL     1       4.916   2.119  -1.385  0.00  0.00    +0.002 C 
ATOM     19  C   UNL     1       4.190   2.672  -0.158  0.00  0.00    +0.000 C 
ATOM     20  C   UNL     1       2.731   2.209  -0.223  0.00  0.00    +0.002 C 
ATOM     21  C   UNL     1       2.070   2.872  -1.429  0.00  0.00    +0.026 C 
ATOM     22  C   UNL     1       2.271   3.449  -3.827  0.00  0.00    +0.034 C 
ATOM     23  C   UNL     1       0.755   3.364  -4.017  0.00  0.00    +0.020 C 
ATOM     24  C   UNL     1       0.330   4.345  -5.111  0.00  0.00    +0.012 C 
ATOM     25  C   UNL     1       3.791  -1.110  -5.355  0.00  0.00    +0.165 C 
ATOM     26  O   UNL     1       3.716   0.103  -5.333  0.00  0.00    -0.292 OA
ATOM     27  C   UNL     1       4.779  -1.757  -6.285  0.00  0.00    +0.086 C 
ATOM     28  C   UNL     1       5.151  -3.146  -5.761  0.00  0.00    -0.021 C 
ATOM     29  C   UNL     1       3.868  -3.945  -5.535  0.00  0.00    +0.081 C 
ATOM     30  C   UNL     1       6.020  -3.864  -6.799  0.00  0.00    +0.012 C 
ATOM     31  C   UNL     1       5.930  -3.022  -4.451  0.00  0.00    +0.012 C 
ENDROOT
BRANCH   2  32
ATOM     32  N   UNL     1       1.042  -4.266  -1.748  0.00  0.00    -0.329 N 
ATOM     33  H   UNL     1       0.542  -3.896  -1.004  0.00  0.00    +0.145 HD
ATOM     34  H   UNL     1       1.163  -5.225  -1.822  0.00  0.00    +0.145 HD
ENDBRANCH   2  32
BRANCH   1  35
ATOM     35  C   UNL     1       0.862  -1.579  -1.372  0.00  0.00    +0.342 C 
ATOM     36  O   UNL     1      -0.262  -1.115  -1.452  0.00  0.00    -0.245 OA
BRANCH  35  37
ATOM     37  O   UNL     1       1.498  -1.605  -0.181  0.00  0.00    -0.462 OA
BRANCH  37  39
ATOM     38  C   UNL     1       1.664  -1.170   2.191  0.00  0.00    +0.048 C 
ATOM     39  C   UNL     1       0.752  -1.182   0.963  0.00  0.00    +0.229 C 
ENDBRANCH  37  39
ENDBRANCH  35  37
ENDBRANCH   1  35
TORSDOF 4
