REMARK  Name = ZINC64242865
REMARK  8 active torsions:
REMARK  status: ('A' for Active; 'I' for Inactive)
REMARK    1  A    between atoms: C_1  and  C_2
REMARK    2  A    between atoms: C_2  and  C_3
REMARK    3  A    between atoms: C_2  and  C_4
REMARK    4  A    between atoms: C_2  and  N_5
REMARK    5  A    between atoms: C_6  and  C_8
REMARK    6  A    between atoms: C_8  and  N_9
REMARK    7  A    between atoms: C_18  and  O_22
REMARK    8  A    between atoms: O_22  and  C_23
REMARK                            x       y       z     vdW  Elec       q    Type
REMARK                         _______ _______ _______ _____ _____    ______ ____
ROOT
ATOM      1  N   UNL     1       4.052  -0.112  -2.676  0.00  0.00    -0.291 N 
ATOM      2  C   UNL     1       4.876  -0.420  -3.698  0.00  0.00    +0.303 C 
ATOM      3  O   UNL     1       4.509  -1.191  -4.563  0.00  0.00    -0.253 OA
ATOM      4  N   UNL     1       6.106   0.127  -3.759  0.00  0.00    -0.281 N 
ATOM      5  C   UNL     1       6.987  -0.098  -4.917  0.00  0.00    +0.114 C 
ATOM      6  C   UNL     1       7.213   1.248  -5.604  0.00  0.00    +0.054 C 
ATOM      7  C   UNL     1       7.571   2.310  -4.599  0.00  0.00    -0.041 A 
ATOM      8  C   UNL     1       8.213   3.450  -5.068  0.00  0.00    +0.007 A 
ATOM      9  C   UNL     1       8.561   4.466  -4.205  0.00  0.00    +0.046 A 
ATOM     10  C   UNL     1       8.268   4.353  -2.853  0.00  0.00    +0.120 A 
ATOM     11  C   UNL     1       7.631   3.217  -2.385  0.00  0.00    +0.051 A 
ATOM     12  C   UNL     1       7.288   2.193  -3.256  0.00  0.00    -0.023 A 
ATOM     13  C   UNL     1       6.618   0.976  -2.678  0.00  0.00    +0.144 C 
ATOM     14  H   UNL     1       4.369   0.444  -1.948  0.00  0.00    +0.151 HD
ENDROOT
BRANCH  10  15
ATOM     15  O   UNL     1       8.603   5.352  -1.995  0.00  0.00    -0.495 OA
ATOM     16  C   UNL     1       9.258   6.493  -2.552  0.00  0.00    +0.277 C 
ENDBRANCH  10  15
BRANCH   1  17
ATOM     17  C   UNL     1       2.677  -0.618  -2.667  0.00  0.00    +0.201 C 
BRANCH  17  19
ATOM     18  N   UNL     1       0.688  -0.476  -1.203  0.00  0.00    -0.309 N 
ATOM     19  C   UNL     1       1.972  -0.133  -1.426  0.00  0.00    +0.231 C 
ATOM     20  O   UNL     1       2.561   0.565  -0.628  0.00  0.00    -0.274 OA
ATOM     21  H   UNL     1       0.217  -1.035  -1.841  0.00  0.00    +0.149 HD
BRANCH  18  23
ATOM     22  C   UNL     1      -0.016   1.524   0.015  0.00  0.00    +0.031 C 
ATOM     23  C   UNL     1       0.003  -0.006   0.004  0.00  0.00    +0.026 C 
ATOM     24  C   UNL     1       0.743  -0.516   1.242  0.00  0.00    +0.031 C 
ATOM     25  C   UNL     1      -1.433  -0.533   0.014  0.00  0.00    +0.031 C 
ENDBRANCH  18  23
ENDBRANCH  17  19
ENDBRANCH   1  17
TORSDOF 4
