REMARK  Name = ZINC59446933
REMARK  7 active torsions:
REMARK  status: ('A' for Active; 'I' for Inactive)
REMARK    1  A    between atoms: C_2  and  C_3
REMARK    2  A    between atoms: C_3  and  C_4
REMARK    3  A    between atoms: C_8  and  C_11
REMARK    4  A    between atoms: C_9  and  O_10
REMARK    5  A    between atoms: N_22  and  O_23
REMARK    6  A    between atoms: O_23  and  C_24
REMARK    7  A    between atoms: N_26  and  C_27
REMARK                            x       y       z     vdW  Elec       q    Type
REMARK                         _______ _______ _______ _____ _____    ______ ____
ROOT
ATOM      1  C   UNL     1      -0.111  -5.216  -2.010  0.00  0.00    +0.236 C 
ATOM      2  N   UNL     1       1.149  -5.104  -1.265  0.00  0.00    -0.319 N 
ATOM      3  C   UNL     1       2.257  -4.569  -1.911  0.00  0.00    +0.041 A 
ATOM      4  C   UNL     1       3.243  -3.879  -1.227  0.00  0.00    +0.024 A 
ATOM      5  C   UNL     1       4.323  -3.365  -1.919  0.00  0.00    +0.002 A 
ATOM      6  C   UNL     1       4.427  -3.534  -3.290  0.00  0.00    +0.001 A 
ATOM      7  C   UNL     1       3.454  -4.220  -3.987  0.00  0.00    +0.015 A 
ATOM      8  C   UNL     1       2.361  -4.745  -3.302  0.00  0.00    +0.061 A 
ATOM      9  C   UNL     1       1.297  -5.494  -3.996  0.00  0.00    +0.282 C 
ATOM     10  O   UNL     1       1.462  -5.884  -5.137  0.00  0.00    -0.267 OA
ATOM     11  N   UNL     1       0.142  -5.742  -3.351  0.00  0.00    -0.100 N 
ATOM     12  H   UNL     1       1.206  -5.396  -0.341  0.00  0.00    +0.148 HD
ENDROOT
BRANCH   1  17
ATOM     13  C   UNL     1      -1.245  -1.706  -1.169  0.00  0.00    -0.002 A 
ATOM     14  C   UNL     1      -1.921  -1.356  -2.321  0.00  0.00    +0.007 A 
ATOM     15  C   UNL     1      -2.012  -2.251  -3.370  0.00  0.00    +0.001 A 
ATOM     16  C   UNL     1      -1.427  -3.500  -3.269  0.00  0.00    +0.011 A 
ATOM     17  C   UNL     1      -0.749  -3.855  -2.119  0.00  0.00    +0.035 A 
ATOM     18  C   UNL     1      -0.652  -2.956  -1.067  0.00  0.00    +0.127 A 
BRANCH  18  19
ATOM     19  O   UNL     1       0.019  -3.301   0.064  0.00  0.00    -0.506 OA
ATOM     20  H   UNL     1      -0.533  -3.727   0.734  0.00  0.00    +0.292 HD
ENDBRANCH  18  19
BRANCH  13  21
ATOM     21  C   UNL     1      -1.147  -0.730  -0.025  0.00  0.00    +0.065 C 
BRANCH  21  23
ATOM     22  C   UNL     1       0.133   1.346  -0.150  0.00  0.00    +0.004 C 
ATOM     23  C   UNL     1       0.147   0.036  -0.128  0.00  0.00    -0.030 C 
ENDBRANCH  21  23
ENDBRANCH  13  21
ENDBRANCH   1  17
BRANCH  11  24
ATOM     24  O   UNL     1      -0.849  -6.528  -3.988  0.00  0.00    -0.326 OA
BRANCH  24  25
ATOM     25  C   UNL     1      -0.806  -7.831  -3.662  0.00  0.00    +0.427 C 
ATOM     26  O   UNL     1      -0.025  -8.220  -2.815  0.00  0.00    -0.224 OA
ATOM     27  N   UNL     1      -1.627  -8.706  -4.274  0.00  0.00    -0.250 N 
ATOM     28  H   UNL     1      -2.296  -8.387  -4.900  0.00  0.00    +0.158 HD
BRANCH  27  29
ATOM     29  C   UNL     1      -1.516 -10.076  -4.006  0.00  0.00    +0.037 A 
ATOM     30  C   UNL     1      -1.736 -11.002  -5.016  0.00  0.00    +0.025 A 
ATOM     31  C   UNL     1      -1.625 -12.353  -4.750  0.00  0.00    +0.022 A 
ATOM     32  C   UNL     1      -1.296 -12.783  -3.476  0.00  0.00    +0.041 A 
ATOM     33  C   UNL     1      -1.076 -11.862  -2.467  0.00  0.00    +0.022 A 
ATOM     34  C   UNL     1      -1.179 -10.510  -2.731  0.00  0.00    +0.025 A 
ATOM     35 CL   UNL     1      -1.159 -14.481  -3.144  0.00  0.00    -0.084 Cl
ENDBRANCH  27  29
ENDBRANCH  24  25
ENDBRANCH  11  24
TORSDOF 7
