REMARK  Name = ZINC00937475
REMARK  6 active torsions:
REMARK  status: ('A' for Active; 'I' for Inactive)
REMARK    1  A    between atoms: C_1  and  C_2
REMARK    2  A    between atoms: C_5  and  N_8
REMARK    3  A    between atoms: C_9  and  C_11
REMARK    4  A    between atoms: C_11  and  S_12
REMARK    5  A    between atoms: S_12  and  C_13
REMARK    6  A    between atoms: C_18  and  C_21
REMARK                            x       y       z     vdW  Elec       q    Type
REMARK                         _______ _______ _______ _____ _____    ______ ____
ROOT
ATOM      1  C   UNL     1       0.593  -8.709   2.636  0.00  0.00    +0.197 A 
ATOM      2  N   UNL     1       0.603  -9.365   1.504  0.00  0.00    -0.121 NA
ATOM      3  N   UNL     1       0.724 -10.627   1.726  0.00  0.00    -0.121 NA
ATOM      4  C   UNL     1       0.798 -10.839   3.003  0.00  0.00    +0.201 A 
ATOM      5  N   UNL     1       0.725  -9.631   3.661  0.00  0.00    -0.264 N 
ATOM      6  C   UNL     1       0.795  -9.665   5.042  0.00  0.00    +0.065 A 
ATOM      7  C   UNL     1       0.931 -10.841   5.685  0.00  0.00    +0.075 A 
ATOM      8  S   UNL     1       0.959 -12.006   4.331  0.00  0.00    -0.055 S 
ENDROOT
BRANCH   6   9
ATOM      9  C   UNL     1       0.720  -8.407   5.815  0.00  0.00    -0.000 A 
ATOM     10  C   UNL     1      -0.451  -7.647   5.804  0.00  0.00    +0.011 A 
ATOM     11  C   UNL     1      -0.515  -6.474   6.528  0.00  0.00    +0.020 A 
ATOM     12  C   UNL     1       0.579  -6.051   7.264  0.00  0.00    +0.041 A 
ATOM     13  C   UNL     1       1.743  -6.801   7.278  0.00  0.00    +0.020 A 
ATOM     14  C   UNL     1       1.817  -7.978   6.563  0.00  0.00    +0.011 A 
ATOM     15 CL   UNL     1       0.491  -4.574   8.172  0.00  0.00    -0.084 Cl
ENDBRANCH   6   9
BRANCH   1  16
ATOM     16  S   UNL     1       0.446  -6.963   2.823  0.00  0.00    -0.076 S 
BRANCH  16  17
ATOM     17  C   UNL     1       0.309  -6.349   1.121  0.00  0.00    +0.173 C 
BRANCH  17  19
ATOM     18  N   UNL     1       0.059  -4.170  -0.021  0.00  0.00    -0.285 N 
ATOM     19  C   UNL     1       0.175  -4.848   1.138  0.00  0.00    +0.227 C 
ATOM     20  O   UNL     1       0.173  -4.251   2.193  0.00  0.00    -0.275 OA
ATOM     21  H   UNL     1      -0.017  -4.651  -0.860  0.00  0.00    +0.155 HD
BRANCH  18  26
ATOM     22  C   UNL     1       0.008   1.503   0.007  0.00  0.00    +0.044 C 
ATOM     23  C   UNL     1       0.022  -0.004  -0.001  0.00  0.00    -0.050 A 
ATOM     24  C   UNL     1       0.777  -0.692   0.931  0.00  0.00    +0.005 A 
ATOM     25  C   UNL     1       0.791  -2.073   0.927  0.00  0.00    +0.023 A 
ATOM     26  C   UNL     1       0.046  -2.771  -0.014  0.00  0.00    +0.033 A 
ATOM     27  C   UNL     1      -0.712  -2.077  -0.948  0.00  0.00    +0.023 A 
ATOM     28  C   UNL     1      -0.726  -0.696  -0.936  0.00  0.00    +0.005 A 
ENDBRANCH  18  26
ENDBRANCH  17  19
ENDBRANCH  16  17
ENDBRANCH   1  16
TORSDOF 5
