REMARK  Name = ZINC27016435
REMARK  5 active torsions:
REMARK  status: ('A' for Active; 'I' for Inactive)
REMARK    1  A    between atoms: C_10  and  C_24
REMARK    2  A    between atoms: C_13  and  C_15
REMARK    3  A    between atoms: C_18  and  N_21
REMARK    4  A    between atoms: C_24  and  C_25
REMARK    5  A    between atoms: N_27  and  C_28
REMARK                            x       y       z     vdW  Elec       q    Type
REMARK                         _______ _______ _______ _____ _____    ______ ____
ROOT
ATOM      1  C   UNL     1      -1.567   6.866  -0.737  0.00  0.00    +0.002 A 
ATOM      2  C   UNL     1      -1.679   5.658  -0.073  0.00  0.00    +0.002 A 
ATOM      3  C   UNL     1      -2.924   5.087   0.124  0.00  0.00    +0.025 A 
ATOM      4  C   UNL     1      -4.056   5.728  -0.346  0.00  0.00    +0.059 A 
ATOM      5  C   UNL     1      -3.944   6.945  -1.020  0.00  0.00    +0.055 A 
ATOM      6  C   UNL     1      -2.694   7.511  -1.212  0.00  0.00    +0.025 A 
ATOM      7  N   UNL     1      -5.097   7.576  -1.501  0.00  0.00    -0.282 N 
ATOM      8  C   UNL     1      -6.317   7.187  -1.086  0.00  0.00    +0.239 C 
ATOM      9  O   UNL     1      -7.305   7.719  -1.548  0.00  0.00    -0.273 OA
ATOM     10  C   UNL     1      -6.472   6.099  -0.060  0.00  0.00    +0.176 C 
ATOM     11  N   UNL     1      -5.332   5.176  -0.158  0.00  0.00    -0.253 N 
ATOM     12  C   UNL     1      -5.507   3.842  -0.074  0.00  0.00    +0.252 C 
ATOM     13  O   UNL     1      -4.578   3.126   0.243  0.00  0.00    -0.270 OA
ATOM     14  H   UNL     1      -5.012   8.400  -2.225  0.00  0.00    +0.155 HD
ENDROOT
BRANCH  12  15
ATOM     15  C   UNL     1      -6.830   3.251  -0.367  0.00  0.00    +0.037 A 
ATOM     16  C   UNL     1      -6.920   2.046  -1.066  0.00  0.00    +0.015 A 
ATOM     17  C   UNL     1      -8.157   1.500  -1.337  0.00  0.00    +0.033 A 
ATOM     18  C   UNL     1      -9.307   2.143  -0.916  0.00  0.00    +0.126 A 
ATOM     19  C   UNL     1      -9.226   3.340  -0.227  0.00  0.00    +0.033 A 
ATOM     20  C   UNL     1      -7.995   3.895   0.054  0.00  0.00    +0.015 A 
BRANCH  18  21
ATOM     21  N   UNL     1     -10.632   1.550  -1.210  0.00  0.00    +0.056 N 
ATOM     22  O   UNL     1     -10.707   0.499  -1.820  0.00  0.00    -0.126 OA
ATOM     23  O   UNL     1     -11.646   2.112  -0.836  0.00  0.00    -0.126 OA
ENDBRANCH  18  21
ENDBRANCH  12  15
BRANCH  10  24
ATOM     24  C   UNL     1      -6.510   6.721   1.337  0.00  0.00    +0.128 C 
BRANCH  24  25
ATOM     25  C   UNL     1      -6.569   5.627   2.372  0.00  0.00    +0.219 C 
ATOM     26  O   UNL     1      -6.515   4.465   2.030  0.00  0.00    -0.275 OA
ATOM     27  N   UNL     1      -6.681   5.941   3.678  0.00  0.00    -0.285 N 
ATOM     28  H   UNL     1      -6.812   6.989   3.983  0.00  0.00    +0.155 HD
BRANCH  27  29
ATOM     29  C   UNL     1      -6.631   4.932   4.647  0.00  0.00    +0.033 A 
ATOM     30  C   UNL     1      -7.388   5.042   5.806  0.00  0.00    +0.024 A 
ATOM     31  C   UNL     1      -7.341   4.043   6.758  0.00  0.00    +0.017 A 
ATOM     32  C   UNL     1      -6.533   2.937   6.562  0.00  0.00    +0.018 A 
ATOM     33  C   UNL     1      -5.774   2.826   5.410  0.00  0.00    +0.017 A 
ATOM     34  C   UNL     1      -5.821   3.821   4.453  0.00  0.00    +0.024 A 
ATOM     35 BR   UNL     1      -6.465   1.573   7.871  0.00  0.00    -0.050 Br
ENDBRANCH  27  29
ENDBRANCH  24  25
ENDBRANCH  10  24
TORSDOF 5
