REMARK  Name = ZINC10188438
REMARK  9 active torsions:
REMARK  status: ('A' for Active; 'I' for Inactive)
REMARK    1  A    between atoms: C_1  and  C_2
REMARK    2  A    between atoms: C_10  and  C_12
REMARK    3  A    between atoms: N_14  and  C_15
REMARK    4  A    between atoms: C_15  and  C_16
REMARK    5  A    between atoms: C_16  and  C_18
REMARK    6  A    between atoms: C_16  and  N_27
REMARK    7  A    between atoms: C_21  and  N_24
REMARK    8  A    between atoms: N_24  and  C_25
REMARK    9  A    between atoms: N_24  and  C_26
REMARK                            x       y       z     vdW  Elec       q    Type
REMARK                         _______ _______ _______ _____ _____    ______ ____
ROOT
ATOM      1  C   UNL     1       2.111  -2.325  -2.015  0.00  0.00    +0.121 C 
ENDROOT
BRANCH   1   2
ATOM      2  N   UNL     1       1.316  -1.548  -1.055  0.00  0.00    -0.321 N 
ATOM      3  C   UNL     1       1.053  -0.184  -1.565  0.00  0.00    +0.110 C 
ATOM      4  C   UNL     1       0.983   0.654  -0.268  0.00  0.00    +0.056 C 
ATOM      5  C   UNL     1       1.823  -0.153   0.701  0.00  0.00    -0.025 A 
ATOM      6  C   UNL     1       1.986  -1.427   0.169  0.00  0.00    +0.033 A 
ATOM      7  C   UNL     1       2.741  -2.364   0.872  0.00  0.00    +0.023 A 
ATOM      8  C   UNL     1       3.313  -2.027   2.081  0.00  0.00    +0.002 A 
ATOM      9  C   UNL     1       3.141  -0.759   2.605  0.00  0.00    +0.000 A 
ATOM     10  C   UNL     1       2.394   0.177   1.912  0.00  0.00    +0.005 A 
ENDBRANCH   1   2
BRANCH   1  11
ATOM     11  C   UNL     1       3.568  -1.972  -1.864  0.00  0.00    -0.025 A 
ATOM     12  C   UNL     1       3.936  -0.675  -1.558  0.00  0.00    +0.007 A 
ATOM     13  C   UNL     1       5.270  -0.350  -1.413  0.00  0.00    +0.023 A 
ATOM     14  C   UNL     1       6.244  -1.325  -1.585  0.00  0.00    +0.029 A 
ATOM     15  C   UNL     1       5.871  -2.626  -1.898  0.00  0.00    +0.023 A 
ATOM     16  C   UNL     1       4.535  -2.946  -2.037  0.00  0.00    +0.007 A 
BRANCH  14  17
ATOM     17  N   UNL     1       7.594  -0.998  -1.445  0.00  0.00    -0.336 N 
ATOM     18  C   UNL     1       8.620  -2.028  -1.628  0.00  0.00    +0.129 C 
ATOM     19  C   UNL     1       7.985   0.374  -1.115  0.00  0.00    +0.129 C 
ENDBRANCH  14  17
ENDBRANCH   1  11
BRANCH   1  20
ATOM     20  C   UNL     1       1.652  -1.999  -3.438  0.00  0.00    +0.131 C 
BRANCH  20  23
ATOM     21  C   UNL     1      -0.437  -1.901  -4.689  0.00  0.00    +0.299 C 
ATOM     22  O   UNL     1       0.178  -1.429  -5.622  0.00  0.00    -0.265 OA
ATOM     23  N   UNL     1       0.208  -2.220  -3.549  0.00  0.00    -0.305 N 
ATOM     24  H   UNL     1      -0.283  -2.597  -2.803  0.00  0.00    +0.149 HD
BRANCH  21  34
ATOM     25  C   UNL     1      -5.736  -2.501  -9.598  0.00  0.00    +0.109 C 
ATOM     26  C   UNL     1      -4.231  -2.534  -9.539  0.00  0.00    +0.213 C 
ATOM     27  O   UNL     1      -3.580  -2.382 -10.551  0.00  0.00    -0.276 OA
ATOM     28  N   UNL     1      -3.607  -2.733  -8.361  0.00  0.00    -0.299 N 
ATOM     29  C   UNL     1      -4.380  -3.018  -7.144  0.00  0.00    +0.126 C 
ATOM     30  C   UNL     1      -3.999  -1.991  -6.070  0.00  0.00    +0.127 C 
ATOM     31  N   UNL     1      -2.534  -1.927  -5.980  0.00  0.00    -0.291 N 
ATOM     32  C   UNL     1      -1.761  -1.637  -7.196  0.00  0.00    +0.127 C 
ATOM     33  C   UNL     1      -2.141  -2.670  -8.270  0.00  0.00    +0.126 C 
ATOM     34  C   UNL     1      -1.910  -2.126  -4.802  0.00  0.00    +0.302 C 
ATOM     35  O   UNL     1      -2.544  -2.489  -3.833  0.00  0.00    -0.265 OA
ENDBRANCH  21  34
ENDBRANCH  20  23
ENDBRANCH   1  20
TORSDOF 6
