REMARK  Name = ZINC25191110
REMARK  8 active torsions:
REMARK  status: ('A' for Active; 'I' for Inactive)
REMARK    1  A    between atoms: C_1  and  C_2
REMARK    2  A    between atoms: C_3  and  C_23
REMARK    3  A    between atoms: N_9  and  C_22
REMARK    4  A    between atoms: C_10  and  S_12
REMARK    5  A    between atoms: S_12  and  C_13
REMARK    6  A    between atoms: C_13  and  C_14
REMARK    7  A    between atoms: C_17  and  S_20
REMARK    8  A    between atoms: S_20  and  C_21
REMARK                            x       y       z     vdW  Elec       q    Type
REMARK                         _______ _______ _______ _____ _____    ______ ____
ROOT
ATOM      1  C   UNL     1      -0.888  -5.150  -0.020  0.00  0.00    +0.045 C 
ATOM      2  C   UNL     1       0.274  -4.189  -0.025  0.00  0.00    -0.026 A 
ATOM      3  C   UNL     1       1.534  -4.648  -0.039  0.00  0.00    -0.008 A 
ATOM      4  S   UNL     1       2.516  -3.161  -0.040  0.00  0.00    -0.073 S 
ATOM      5  C   UNL     1       1.206  -1.965  -0.021  0.00  0.00    +0.117 A 
ATOM      6  C   UNL     1       0.041  -2.755  -0.015  0.00  0.00    +0.075 A 
ATOM      7  C   UNL     1      -1.197  -2.039   0.002  0.00  0.00    +0.263 A 
ATOM      8  O   UNL     1      -2.258  -2.640   0.008  0.00  0.00    -0.267 OA
ATOM      9  N   UNL     1      -1.176  -0.694   0.010  0.00  0.00    -0.290 N 
ATOM     10  C   UNL     1       0.002  -0.004   0.002  0.00  0.00    +0.173 A 
ATOM     11  N   UNL     1       1.157  -0.638  -0.018  0.00  0.00    -0.216 NA
ATOM     12  C   UNL     1      -2.441   0.045   0.026  0.00  0.00    +0.154 C 
ATOM     13  C   UNL     1       2.006  -6.080  -0.052  0.00  0.00    +0.052 C 
ENDROOT
BRANCH  10  14
ATOM     14  S   UNL     1      -0.022   1.758   0.012  0.00  0.00    -0.083 S 
BRANCH  14  15
ATOM     15  C   UNL     1       1.756   2.096  -0.004  0.00  0.00    +0.112 C 
BRANCH  15  16
ATOM     16  C   UNL     1       1.984   3.586   0.002  0.00  0.00    -0.037 A 
ATOM     17  C   UNL     1       2.082   4.273  -1.194  0.00  0.00    +0.005 A 
ATOM     18  C   UNL     1       2.285   5.639  -1.192  0.00  0.00    +0.015 A 
ATOM     19  C   UNL     1       2.402   6.321   0.013  0.00  0.00    +0.008 A 
ATOM     20  C   UNL     1       2.308   5.626   1.213  0.00  0.00    +0.015 A 
ATOM     21  C   UNL     1       2.100   4.261   1.204  0.00  0.00    +0.005 A 
BRANCH  19  22
ATOM     22  S   UNL     1       2.668   8.063   0.020  0.00  0.00    -0.129 S 
ATOM     23  C   UNL     1       2.718   8.506  -1.738  0.00  0.00    +0.090 C 
ENDBRANCH  19  22
ENDBRANCH  15  16
ENDBRANCH  14  15
ENDBRANCH  10  14
TORSDOF 4
