REMARK  Name = ZINC58307662
REMARK  6 active torsions:
REMARK  status: ('A' for Active; 'I' for Inactive)
REMARK    1  A    between atoms: C_6  and  O_7
REMARK    2  A    between atoms: O_7  and  C_8
REMARK    3  A    between atoms: C_11  and  C_14
REMARK    4  A    between atoms: C_14  and  N_15
REMARK    5  A    between atoms: N_15  and  C_16
REMARK    6  A    between atoms: C_16  and  C_17
REMARK                            x       y       z     vdW  Elec       q    Type
REMARK                         _______ _______ _______ _____ _____    ______ ____
ROOT
ATOM      1  C   UNL     1      -0.808  -6.255  -0.448  0.00  0.00    -0.045 C 
ENDROOT
BRANCH   1   5
ATOM      2  C   UNL     1      -1.102  -2.051  -0.102  0.00  0.00    +0.220 A 
ATOM      3  C   UNL     1      -2.275  -2.788  -0.209  0.00  0.00    +0.068 A 
ATOM      4  C   UNL     1      -2.197  -4.165  -0.323  0.00  0.00    +0.008 A 
ATOM      5  C   UNL     1      -0.942  -4.759  -0.326  0.00  0.00    -0.046 A 
ATOM      6  C   UNL     1       0.182  -3.964  -0.217  0.00  0.00    +0.116 A 
ATOM      7  N   UNL     1       0.075  -2.653  -0.115  0.00  0.00    -0.221 NA
BRANCH   2   8
ATOM      8  O   UNL     1      -1.165  -0.700   0.010  0.00  0.00    -0.438 OA
BRANCH   8  14
ATOM      9  C   UNL     1       0.677   0.209  -1.188  0.00  0.00    +0.049 A 
ATOM     10  C   UNL     1       1.864   0.917  -1.193  0.00  0.00    +0.042 A 
ATOM     11  C   UNL     1       2.379   1.413  -0.007  0.00  0.00    +0.124 A 
ATOM     12  C   UNL     1       1.706   1.200   1.184  0.00  0.00    +0.042 A 
ATOM     13  C   UNL     1       0.520   0.493   1.192  0.00  0.00    +0.049 A 
ATOM     14  C   UNL     1       0.002  -0.004   0.004  0.00  0.00    +0.131 A 
ATOM     15  F   UNL     1       3.539   2.105  -0.012  0.00  0.00    -0.205 F 
ENDBRANCH   8  14
ENDBRANCH   2   8
ENDBRANCH   1   5
BRANCH   1  16
ATOM     16  N   UNL     1      -0.713  -6.624  -1.866  0.00  0.00    +0.382 N 
ATOM     17  H   UNL     1      -1.545  -6.321  -2.349  0.00  0.00    -0.085 HD
ATOM     18  H   UNL     1       0.095  -6.180  -2.276  0.00  0.00    -0.085 HD
BRANCH  16  19
ATOM     19  C   UNL     1      -0.582  -8.083  -1.985  0.00  0.00    -0.075 C 
BRANCH  19  20
ATOM     20  C   UNL     1      -0.483  -8.468  -3.462  0.00  0.00    +0.010 C 
ATOM     21  C   UNL     1      -1.796  -8.115  -4.169  0.00  0.00    +0.106 C 
ATOM     22  N   UNL     1      -1.655  -8.429  -5.605  0.00  0.00    -0.329 N 
ATOM     23  C   UNL     1      -1.032  -9.641  -5.910  0.00  0.00    +0.117 A 
ATOM     24  C   UNL     1      -0.962 -10.300  -7.088  0.00  0.00    +0.064 A 
ATOM     25  C   UNL     1      -0.227 -11.473  -6.875  0.00  0.00    +0.136 A 
ATOM     26  N   UNL     1       0.131 -11.514  -5.614  0.00  0.00    -0.178 NA
ATOM     27  N   UNL     1      -0.361 -10.372  -4.982  0.00  0.00    -0.251 N 
ATOM     28  C   UNL     1      -0.218  -9.973  -3.580  0.00  0.00    +0.148 C 
ATOM     29  H   UNL     1      -1.976  -7.829  -6.296  0.00  0.00    +0.147 HD
ENDBRANCH  19  20
ENDBRANCH  16  19
ENDBRANCH   1  16
TORSDOF 6
