REMARK  Name = ZINC19877677
REMARK  12 active torsions:
REMARK  status: ('A' for Active; 'I' for Inactive)
REMARK    1  A    between atoms: C_1  and  N_2
REMARK    2  A    between atoms: C_7  and  O_37
REMARK    3  A    between atoms: C_8  and  O_29
REMARK    4  A    between atoms: C_11  and  C_13
REMARK    5  A    between atoms: C_13  and  C_14
REMARK    6  A    between atoms: C_17  and  O_28
REMARK    7  A    between atoms: C_18  and  O_20
REMARK    8  A    between atoms: O_20  and  C_21
REMARK    9  A    between atoms: C_21  and  C_22
REMARK   10  A    between atoms: O_29  and  C_30
REMARK   11  A    between atoms: C_30  and  C_31
REMARK   12  A    between atoms: O_37  and  C_38
REMARK                            x       y       z     vdW  Elec       q    Type
REMARK                         _______ _______ _______ _____ _____    ______ ____
ROOT
ATOM      1  C   UNL     1       4.216  -2.626   0.207  0.00  0.00    -0.095 C 
ATOM      2  N   UNL     1       5.108  -2.912   1.338  0.00  0.00    +0.383 N 
ATOM      3  C   UNL     1       4.769  -4.198   1.967  0.00  0.00    -0.074 C 
ATOM      4  C   UNL     1       5.462  -4.271   3.328  0.00  0.00    +0.017 C 
ATOM      5  C   UNL     1       6.924  -3.937   3.180  0.00  0.00    -0.044 A 
ATOM      6  C   UNL     1       7.787  -4.283   4.209  0.00  0.00    +0.053 A 
ATOM      7  C   UNL     1       9.136  -3.988   4.121  0.00  0.00    +0.162 A 
ATOM      8  C   UNL     1       9.627  -3.340   2.991  0.00  0.00    +0.163 A 
ATOM      9  C   UNL     1       8.762  -2.999   1.966  0.00  0.00    +0.051 A 
ATOM     10  C   UNL     1       7.410  -3.298   2.059  0.00  0.00    -0.054 A 
ATOM     11  C   UNL     1       6.512  -2.908   0.914  0.00  0.00    -0.033 C 
ATOM     12  H   UNL     1       4.971  -2.112   2.081  0.00  0.00    -0.081 HD
ENDROOT
BRANCH   7  13
ATOM     13  O   UNL     1       9.978  -4.329   5.133  0.00  0.00    -0.491 OA
ATOM     14  C   UNL     1       9.402  -4.992   6.260  0.00  0.00    +0.277 C 
ENDBRANCH   7  13
BRANCH  11  15
ATOM     15  C   UNL     1       6.890  -1.507   0.430  0.00  0.00    +0.024 C 
BRANCH  15  16
ATOM     16  C   UNL     1       6.636  -0.510   1.531  0.00  0.00    -0.045 A 
ATOM     17  C   UNL     1       5.370   0.021   1.702  0.00  0.00    +0.007 A 
ATOM     18  C   UNL     1       5.132   0.936   2.711  0.00  0.00    +0.049 A 
ATOM     19  C   UNL     1       6.161   1.319   3.556  0.00  0.00    +0.158 A 
ATOM     20  C   UNL     1       7.436   0.789   3.380  0.00  0.00    +0.162 A 
ATOM     21  C   UNL     1       7.668  -0.128   2.367  0.00  0.00    +0.053 A 
BRANCH  19  22
ATOM     22  O   UNL     1       5.927   2.214   4.552  0.00  0.00    -0.503 OA
ATOM     23  H   UNL     1       6.745   2.517   5.223  0.00  0.00    +0.292 HD
ENDBRANCH  19  22
BRANCH  20  24
ATOM     24  O   UNL     1       8.450   1.166   4.204  0.00  0.00    -0.484 OA
BRANCH  24  25
ATOM     25  C   UNL     1       9.730   0.577   3.968  0.00  0.00    +0.264 C 
BRANCH  25  26
ATOM     26  C   UNL     1      10.721   1.110   4.970  0.00  0.00    -0.010 A 
ATOM     27  C   UNL     1      10.902   0.460   6.176  0.00  0.00    +0.007 A 
ATOM     28  C   UNL     1      11.807   0.953   7.098  0.00  0.00    +0.000 A 
ATOM     29  C   UNL     1      12.539   2.089   6.809  0.00  0.00    +0.000 A 
ATOM     30  C   UNL     1      12.358   2.739   5.602  0.00  0.00    +0.000 A 
ATOM     31  C   UNL     1      11.450   2.249   4.683  0.00  0.00    +0.007 A 
ENDBRANCH  25  26
ENDBRANCH  24  25
ENDBRANCH  20  24
ENDBRANCH  15  16
ENDBRANCH  11  15
BRANCH   8  32
ATOM     32  O   UNL     1      10.950  -3.043   2.895  0.00  0.00    -0.484 OA
BRANCH  32  33
ATOM     33  C   UNL     1      11.381  -2.377   1.706  0.00  0.00    +0.264 C 
BRANCH  33  34
ATOM     34  C   UNL     1      12.867  -2.132   1.778  0.00  0.00    -0.010 A 
ATOM     35  C   UNL     1      13.348  -0.958   2.327  0.00  0.00    +0.007 A 
ATOM     36  C   UNL     1      14.710  -0.735   2.397  0.00  0.00    +0.000 A 
ATOM     37  C   UNL     1      15.591  -1.683   1.909  0.00  0.00    +0.000 A 
ATOM     38  C   UNL     1      15.110  -2.854   1.356  0.00  0.00    +0.000 A 
ATOM     39  C   UNL     1      13.748  -3.079   1.290  0.00  0.00    +0.007 A 
ENDBRANCH  33  34
ENDBRANCH  32  33
ENDBRANCH   8  32
TORSDOF 10
