REMARK  Name = ZINC20899124
REMARK  5 active torsions:
REMARK  status: ('A' for Active; 'I' for Inactive)
REMARK    1  A    between atoms: C_1  and  C_2
REMARK    2  A    between atoms: C_2  and  C_3
REMARK    3  A    between atoms: C_3  and  C_4
REMARK    4  A    between atoms: C_4  and  N_5
REMARK    5  A    between atoms: C_24  and  C_27
REMARK                            x       y       z     vdW  Elec       q    Type
REMARK                         _______ _______ _______ _____ _____    ______ ____
ROOT
ATOM      1  N   UNL     1      -2.702  -3.049  -0.041  0.00  0.00    -0.222 N 
ATOM      2  C   UNL     1      -3.305  -3.309   1.137  0.00  0.00    +0.261 C 
ATOM      3  O   UNL     1      -2.651  -3.537   2.137  0.00  0.00    -0.269 OA
ATOM      4  C   UNL     1      -4.778  -3.310   1.180  0.00  0.00    +0.116 C 
ATOM      5  C   UNL     1      -5.487  -3.023  -0.080  0.00  0.00    +0.258 C 
ATOM      6  N   UNL     1      -4.751  -2.780  -1.184  0.00  0.00    -0.235 N 
ATOM      7  H   UNL     1      -5.202  -2.590  -2.021  0.00  0.00    +0.159 HD
ATOM      8  C   UNL     1      -3.411  -2.791  -1.149  0.00  0.00    +0.315 C 
ATOM      9  O   UNL     1      -2.807  -2.559  -2.178  0.00  0.00    -0.252 OA
ATOM     10  O   UNL     1      -6.702  -3.006  -0.123  0.00  0.00    -0.270 OA
ATOM     11  C   UNL     1      -5.466  -3.568   2.353  0.00  0.00    +0.027 C 
ATOM     12  N   UNL     1      -4.782  -3.424   3.433  0.00  0.00    -0.316 N 
ATOM     13  C   UNL     1      -4.819  -3.713   4.769  0.00  0.00    +0.045 A 
ATOM     14  C   UNL     1      -3.600  -3.522   5.442  0.00  0.00    +0.024 A 
ATOM     15  C   UNL     1      -3.469  -3.767   6.787  0.00  0.00    +0.002 A 
ATOM     16  C   UNL     1      -4.561  -4.214   7.511  0.00  0.00    +0.001 A 
ATOM     17  C   UNL     1      -5.761  -4.405   6.870  0.00  0.00    +0.016 A 
ATOM     18  C   UNL     1      -5.912  -4.160   5.497  0.00  0.00    +0.030 A 
ATOM     19  S   UNL     1      -7.499  -4.447   4.826  0.00  0.00    -0.115 S 
ATOM     20  C   UNL     1      -7.303  -5.037   3.152  0.00  0.00    +0.087 C 
ATOM     21  C   UNL     1      -6.888  -3.967   2.178  0.00  0.00    +0.071 C 
ATOM     22  H   UNL     1      -3.961  -2.948   3.231  0.00  0.00    +0.152 HD
ENDROOT
BRANCH  20  23
ATOM     23  C   UNL     1      -8.614  -5.620   2.691  0.00  0.00    -0.034 A 
ATOM     24  C   UNL     1      -9.745  -4.827   2.644  0.00  0.00    +0.006 A 
ATOM     25  C   UNL     1     -10.948  -5.361   2.221  0.00  0.00    +0.020 A 
ATOM     26  C   UNL     1     -11.020  -6.691   1.846  0.00  0.00    +0.041 A 
ATOM     27  C   UNL     1      -9.887  -7.485   1.893  0.00  0.00    +0.020 A 
ATOM     28  C   UNL     1      -8.684  -6.948   2.310  0.00  0.00    +0.006 A 
ATOM     29 CL   UNL     1     -12.530  -7.363   1.315  0.00  0.00    -0.084 Cl
ENDBRANCH  20  23
BRANCH   1  30
ATOM     30  C   UNL     1      -1.239  -3.042  -0.110  0.00  0.00    +0.118 C 
BRANCH  30  31
ATOM     31  C   UNL     1      -0.720  -1.634   0.188  0.00  0.00    +0.019 C 
BRANCH  31  33
ATOM     32  C   UNL     1       1.326  -0.219   0.414  0.00  0.00    +0.004 C 
ATOM     33  C   UNL     1       0.808  -1.627   0.117  0.00  0.00    -0.002 C 
ENDBRANCH  31  33
ENDBRANCH  30  31
ENDBRANCH   1  30
TORSDOF 4
