REMARK  Name = ZINC00831626
REMARK  5 active torsions:
REMARK  status: ('A' for Active; 'I' for Inactive)
REMARK    1  A    between atoms: C_1  and  O_2
REMARK    2  A    between atoms: O_2  and  C_3
REMARK    3  A    between atoms: C_7  and  C_10
REMARK    4  A    between atoms: C_8  and  O_9
REMARK    5  A    between atoms: N_15  and  C_18
REMARK                            x       y       z     vdW  Elec       q    Type
REMARK                         _______ _______ _______ _____ _____    ______ ____
ROOT
ATOM      1  C   UNL     1       3.683  -0.691  -0.036  0.00  0.00    +0.030 C 
ATOM      2  C   UNL     1       3.702  -2.067   0.061  0.00  0.00    +0.102 C 
ATOM      3  C   UNL     1       2.543  -2.981   0.083  0.00  0.00    +0.266 C 
ATOM      4  O   UNL     1       1.370  -2.666   0.020  0.00  0.00    -0.268 OA
ATOM      5  N   UNL     1       3.034  -4.231   0.188  0.00  0.00    -0.223 N 
ATOM      6  N   UNL     1       4.428  -4.208   0.235  0.00  0.00    -0.184 N 
ATOM      7  C   UNL     1       4.884  -2.944   0.158  0.00  0.00    +0.272 C 
ATOM      8  O   UNL     1       6.049  -2.592   0.168  0.00  0.00    -0.268 OA
ATOM      9  H   UNL     1       2.493  -5.035   0.225  0.00  0.00    +0.174 HD
ENDROOT
BRANCH   6  10
ATOM     10  C   UNL     1       5.239  -5.343   0.342  0.00  0.00    +0.056 A 
ATOM     11  C   UNL     1       6.621  -5.209   0.376  0.00  0.00    +0.026 A 
ATOM     12  C   UNL     1       7.419  -6.330   0.486  0.00  0.00    +0.017 A 
ATOM     13  C   UNL     1       6.844  -7.587   0.553  0.00  0.00    +0.018 A 
ATOM     14  C   UNL     1       5.468  -7.724   0.515  0.00  0.00    +0.017 A 
ATOM     15  C   UNL     1       4.664  -6.605   0.410  0.00  0.00    +0.026 A 
ATOM     16 BR   UNL     1       7.941  -9.121   0.696  0.00  0.00    -0.050 Br
ENDBRANCH   6  10
BRANCH   1  21
ATOM     17  C   UNL     1       0.954   1.792  -0.746  0.00  0.00    +0.162 A 
ATOM     18  C   UNL     1      -0.003   1.396   0.173  0.00  0.00    +0.049 A 
ATOM     19  C   UNL     1       0.237   0.325   1.020  0.00  0.00    +0.004 A 
ATOM     20  C   UNL     1       1.431  -0.357   0.959  0.00  0.00    +0.012 A 
ATOM     21  C   UNL     1       2.412   0.030   0.034  0.00  0.00    +0.021 A 
ATOM     22  C   UNL     1       2.166   1.116  -0.824  0.00  0.00    +0.166 A 
BRANCH  17  24
ATOM     23  C   UNL     1      -0.558   3.493  -1.438  0.00  0.00    +0.277 C 
ATOM     24  O   UNL     1       0.708   2.844  -1.573  0.00  0.00    -0.491 OA
ENDBRANCH  17  24
BRANCH  22  25
ATOM     25  O   UNL     1       3.107   1.502  -1.723  0.00  0.00    -0.503 OA
ATOM     26  H   UNL     1       3.033   1.063  -2.582  0.00  0.00    +0.292 HD
ENDBRANCH  22  25
ENDBRANCH   1  21
TORSDOF 4
