REMARK  Name = ZINC05142660
REMARK  8 active torsions:
REMARK  status: ('A' for Active; 'I' for Inactive)
REMARK    1  A    between atoms: C_1  and  C_2
REMARK    2  A    between atoms: C_2  and  C_3
REMARK    3  A    between atoms: C_3  and  C_4
REMARK    4  A    between atoms: C_4  and  C_5
REMARK    5  A    between atoms: N_13  and  C_14
REMARK    6  A    between atoms: C_14  and  C_16
REMARK    7  A    between atoms: N_22  and  C_23
REMARK    8  A    between atoms: C_23  and  C_24
REMARK                            x       y       z     vdW  Elec       q    Type
REMARK                         _______ _______ _______ _____ _____    ______ ____
ROOT
ATOM      1  C   UNL     1       0.001  -2.330  -3.486  0.00  0.00    -0.046 A 
ATOM      2  C   UNL     1      -0.019  -0.950  -3.605  0.00  0.00    +0.006 A 
ATOM      3  C   UNL     1      -0.019  -0.139  -2.496  0.00  0.00    +0.027 A 
ATOM      4  C   UNL     1      -0.005  -0.686  -1.201  0.00  0.00    +0.058 A 
ATOM      5  C   UNL     1       0.019  -2.086  -1.115  0.00  0.00    +0.039 A 
ATOM      6  C   UNL     1       0.020  -2.897  -2.225  0.00  0.00    +0.020 A 
ATOM      7  S   UNL     1       0.040  -2.389   0.636  0.00  0.00    -0.052 S 
ATOM      8  C   UNL     1       0.022  -0.689   1.181  0.00  0.00    +0.168 A 
ATOM      9  N   UNL     1       0.027  -0.213   2.419  0.00  0.00    -0.149 NA
ATOM     10  N   UNL     1       0.002  -0.004   0.002  0.00  0.00    -0.310 N 
ENDROOT
BRANCH   9  11
ATOM     11  C   UNL     1       0.048  -1.057   3.462  0.00  0.00    +0.307 C 
ATOM     12  O   UNL     1       0.062  -2.262   3.271  0.00  0.00    -0.265 OA
BRANCH  11  13
ATOM     13  C   UNL     1       0.054  -0.530   4.832  0.00  0.00    +0.219 C 
ATOM     14  C   UNL     1       0.043   0.794   5.023  0.00  0.00    +0.238 C 
ATOM     15  O   UNL     1       0.051   1.333   6.262  0.00  0.00    -0.492 OA
ATOM     16  C   UNL     1      -0.297   0.465   7.347  0.00  0.00    +0.269 C 
ATOM     17  C   UNL     1       0.451  -0.862   7.153  0.00  0.00    +0.270 C 
ATOM     18  O   UNL     1       0.075  -1.400   5.879  0.00  0.00    -0.481 OA
ENDBRANCH  11  13
ENDBRANCH   9  11
BRANCH   1  19
ATOM     19  C   UNL     1       0.000  -3.201  -4.716  0.00  0.00    +0.035 C 
BRANCH  19  20
ATOM     20  C   UNL     1      -1.442  -3.515  -5.118  0.00  0.00    +0.004 C 
BRANCH  20  22
ATOM     21  C   UNL     1      -2.885  -4.714  -6.768  0.00  0.00    +0.004 C 
ATOM     22  C   UNL     1      -1.442  -4.400  -6.366  0.00  0.00    -0.003 C 
ENDBRANCH  20  22
ENDBRANCH  19  20
ENDBRANCH   1  19
BRANCH  10  23
ATOM     23  C   UNL     1      -0.018   1.461   0.010  0.00  0.00    +0.212 C 
BRANCH  23  24
ATOM     24  C   UNL     1       1.363   1.970  -0.000  0.00  0.00    -0.084 C 
ATOM     25  C   UNL     1       2.465   2.377  -0.009  0.00  0.00    +0.005 C 
ENDBRANCH  23  24
ENDBRANCH  10  23
TORSDOF 7
