REMARK  Name = ZINC41512746
REMARK  12 active torsions:
REMARK  status: ('A' for Active; 'I' for Inactive)
REMARK    1  A    between atoms: C_1  and  C_2
REMARK    2  A    between atoms: C_4  and  O_33
REMARK    3  A    between atoms: C_5  and  C_25
REMARK    4  A    between atoms: C_11  and  C_12
REMARK    5  A    between atoms: C_14  and  O_22
REMARK    6  A    between atoms: C_15  and  O_20
REMARK    7  A    between atoms: C_16  and  O_18
REMARK    8  A    between atoms: O_18  and  C_19
REMARK    9  A    between atoms: O_20  and  C_21
REMARK   10  A    between atoms: O_22  and  C_23
REMARK   11  A    between atoms: C_25  and  N_26
REMARK   12  A    between atoms: C_29  and  C_32
REMARK                            x       y       z     vdW  Elec       q    Type
REMARK                         _______ _______ _______ _____ _____    ______ ____
ROOT
ATOM      1  C   UNL     1       0.500   1.453  -0.004  0.00  0.00    +0.045 C 
ATOM      2  C   UNL     1       0.700  -0.041   0.031  0.00  0.00    -0.033 A 
ATOM      3  C   UNL     1       1.009  -0.717  -1.115  0.00  0.00    +0.050 A 
ATOM      4  C   UNL     1       1.194  -2.096  -1.085  0.00  0.00    +0.122 A 
ATOM      5  C   UNL     1       1.069  -2.799   0.103  0.00  0.00    +0.020 A 
ATOM      6  C   UNL     1       0.755  -2.126   1.278  0.00  0.00    +0.145 A 
ATOM      7  C   UNL     1       0.577  -0.734   1.236  0.00  0.00    +0.071 A 
ATOM      8  C   UNL     1       0.267  -0.313   2.614  0.00  0.00    +0.232 C 
ATOM      9  O   UNL     1       0.037   0.815   3.016  0.00  0.00    -0.283 OA
ATOM     10  C   UNL     1       0.296  -1.558   3.395  0.00  0.00    +0.176 C 
ATOM     11  C   UNL     1       0.068  -1.674   4.728  0.00  0.00    +0.058 C 
ATOM     12  O   UNL     1       0.580  -2.570   2.541  0.00  0.00    -0.451 OA
ENDROOT
BRANCH  11  13
ATOM     13  C   UNL     1      -0.019  -3.003   5.345  0.00  0.00    -0.014 A 
ATOM     14  C   UNL     1      -0.005  -4.151   4.544  0.00  0.00    +0.057 A 
ATOM     15  C   UNL     1      -0.086  -5.401   5.128  0.00  0.00    +0.166 A 
ATOM     16  C   UNL     1      -0.183  -5.519   6.513  0.00  0.00    +0.204 A 
ATOM     17  C   UNL     1      -0.197  -4.379   7.314  0.00  0.00    +0.166 A 
ATOM     18  C   UNL     1      -0.111  -3.126   6.737  0.00  0.00    +0.057 A 
BRANCH  17  19
ATOM     19  O   UNL     1      -0.292  -4.500   8.665  0.00  0.00    -0.491 OA
ATOM     20  C   UNL     1      -0.301  -3.290   9.425  0.00  0.00    +0.277 C 
ENDBRANCH  17  19
BRANCH  16  21
ATOM     21  O   UNL     1      -0.263  -6.749   7.084  0.00  0.00    -0.488 OA
ATOM     22  C   UNL     1       0.968  -7.381   7.441  0.00  0.00    +0.277 C 
ENDBRANCH  16  21
BRANCH  15  23
ATOM     23  O   UNL     1      -0.073  -6.516   4.351  0.00  0.00    -0.491 OA
ATOM     24  C   UNL     1       0.027  -6.322   2.939  0.00  0.00    +0.277 C 
ENDBRANCH  15  23
ENDBRANCH  11  13
BRANCH   4  25
ATOM     25  O   UNL     1       1.500  -2.759  -2.229  0.00  0.00    -0.506 OA
ATOM     26  H   UNL     1       2.449  -2.832  -2.400  0.00  0.00    +0.292 HD
ENDBRANCH   4  25
BRANCH   5  27
ATOM     27  C   UNL     1       1.271  -4.292   0.120  0.00  0.00    -0.036 C 
BRANCH  27  28
ATOM     28  N   UNL     1       2.686  -4.591   0.379  0.00  0.00    +0.383 N 
ATOM     29  C   UNL     1       3.501  -4.093  -0.736  0.00  0.00    -0.078 C 
ATOM     30  C   UNL     1       4.983  -4.329  -0.435  0.00  0.00    -0.016 C 
ATOM     31  C   UNL     1       5.228  -5.830  -0.252  0.00  0.00    -0.018 C 
ATOM     32  C   UNL     1       4.318  -6.353   0.864  0.00  0.00    -0.016 C 
ATOM     33  C   UNL     1       2.861  -6.042   0.514  0.00  0.00    -0.078 C 
ATOM     34  C   UNL     1       6.691  -6.067   0.128  0.00  0.00    +0.007 C 
ATOM     35  H   UNL     1       2.974  -4.137   1.232  0.00  0.00    -0.081 HD
ENDBRANCH  27  28
ENDBRANCH   5  27
TORSDOF 7
