REMARK  Name = ZINC27688285
REMARK  9 active torsions:
REMARK  status: ('A' for Active; 'I' for Inactive)
REMARK    1  A    between atoms: C_1  and  C_2
REMARK    2  A    between atoms: C_2  and  C_4
REMARK    3  A    between atoms: C_2  and  N_19
REMARK    4  A    between atoms: C_4  and  C_5
REMARK    5  A    between atoms: C_5  and  C_6
REMARK    6  A    between atoms: N_9  and  C_16
REMARK    7  A    between atoms: C_16  and  C_17
REMARK    8  A    between atoms: C_20  and  C_22
REMARK    9  A    between atoms: C_22  and  C_27
REMARK                            x       y       z     vdW  Elec       q    Type
REMARK                         _______ _______ _______ _____ _____    ______ ____
ROOT
ATOM      1  C   UNL     1       6.501  -0.781   1.292  0.00  0.00    +0.028 C 
ATOM      2  C   UNL     1       6.046   0.535   1.925  0.00  0.00    +0.070 C 
ENDROOT
BRANCH   2   3
ATOM      3  N   UNL     1       5.331   0.256   3.173  0.00  0.00    -0.312 N 
ATOM      4  C   UNL     1       6.019   0.091   4.320  0.00  0.00    +0.224 C 
ATOM      5  O   UNL     1       7.220   0.260   4.338  0.00  0.00    -0.275 OA
ATOM      6  H   UNL     1       4.234   0.180   3.173  0.00  0.00    +0.149 HD
BRANCH   4   7
ATOM      7  C   UNL     1       5.295  -0.302   5.582  0.00  0.00    +0.072 C 
ATOM      8  C   UNL     1       4.176   0.710   5.886  0.00  0.00    +0.021 C 
ATOM      9  C   UNL     1       4.505   1.331   7.260  0.00  0.00    +0.001 C 
ATOM     10  C   UNL     1       6.035   1.137   7.408  0.00  0.00    +0.001 C 
ATOM     11  C   UNL     1       6.264  -0.261   6.782  0.00  0.00    +0.021 C 
BRANCH   7  12
ATOM     12  C   UNL     1       4.715  -1.685   5.434  0.00  0.00    -0.032 A 
ATOM     13  C   UNL     1       4.996  -2.436   4.309  0.00  0.00    +0.004 A 
ATOM     14  C   UNL     1       4.468  -3.707   4.175  0.00  0.00    +0.000 A 
ATOM     15  C   UNL     1       3.650  -4.222   5.163  0.00  0.00    +0.000 A 
ATOM     16  C   UNL     1       3.364  -3.469   6.287  0.00  0.00    +0.000 A 
ATOM     17  C   UNL     1       3.897  -2.201   6.422  0.00  0.00    +0.004 A 
ENDBRANCH   7  12
ENDBRANCH   4   7
ENDBRANCH   2   3
BRANCH   2  18
ATOM     18  C   UNL     1       5.115   1.271   0.958  0.00  0.00    +0.022 C 
BRANCH  18  19
ATOM     19  C   UNL     1       4.760   2.642   1.537  0.00  0.00    +0.011 C 
BRANCH  19  20
ATOM     20  C   UNL     1       3.737   3.329   0.629  0.00  0.00    +0.038 C 
ATOM     21  C   UNL     1       4.393   3.772  -0.698  0.00  0.00    +0.113 C 
ATOM     22  N   UNL     1       3.706   5.049  -0.988  0.00  0.00    -0.325 N 
ATOM     23  C   UNL     1       3.298   5.604   0.232  0.00  0.00    +0.033 A 
ATOM     24  C   UNL     1       3.279   4.641   1.234  0.00  0.00    -0.022 A 
ATOM     25  C   UNL     1       2.890   4.972   2.514  0.00  0.00    +0.006 A 
ATOM     26  C   UNL     1       2.519   6.271   2.812  0.00  0.00    +0.000 A 
ATOM     27  C   UNL     1       2.540   7.238   1.824  0.00  0.00    +0.002 A 
ATOM     28  C   UNL     1       2.927   6.911   0.540  0.00  0.00    +0.023 A 
BRANCH  22  29
ATOM     29  C   UNL     1       4.591   5.970  -1.715  0.00  0.00    +0.131 C 
BRANCH  29  30
ATOM     30  C   UNL     1       5.759   6.341  -0.839  0.00  0.00    -0.016 C 
ATOM     31  C   UNL     1       6.984   6.155  -1.267  0.00  0.00    +0.005 C 
ENDBRANCH  29  30
ENDBRANCH  22  29
ENDBRANCH  19  20
ENDBRANCH  18  19
ENDBRANCH   2  18
TORSDOF 8
