REMARK  Name = ZINC12534840
REMARK  5 active torsions:
REMARK  status: ('A' for Active; 'I' for Inactive)
REMARK    1  A    between atoms: C_1  and  C_2
REMARK    2  A    between atoms: C_5  and  N_8
REMARK    3  A    between atoms: C_12  and  S_14
REMARK    4  A    between atoms: S_14  and  C_15
REMARK    5  A    between atoms: C_15  and  C_16
REMARK                            x       y       z     vdW  Elec       q    Type
REMARK                         _______ _______ _______ _____ _____    ______ ____
ROOT
ATOM      1  C   UNL     1       1.422   3.146   1.836  0.00  0.00    +0.172 C 
ENDROOT
BRANCH   1   2
ATOM      2  C   UNL     1      -0.083   3.224   1.816  0.00  0.00    +0.227 C 
ATOM      3  O   UNL     1      -0.679   3.681   2.768  0.00  0.00    -0.275 OA
ATOM      4  N   UNL     1      -0.767   2.786   0.741  0.00  0.00    -0.278 N 
ATOM      5  C   UNL     1      -0.194   2.862  -0.614  0.00  0.00    +0.204 C 
ATOM      6  C   UNL     1      -1.216   3.488  -1.528  0.00  0.00    +0.237 C 
ATOM      7  O   UNL     1      -0.845   4.050  -2.537  0.00  0.00    -0.274 OA
ATOM      8  N   UNL     1      -2.526   3.437  -1.250  0.00  0.00    -0.253 N 
ATOM      9  C   UNL     1      -3.019   2.877  -0.135  0.00  0.00    +0.243 C 
ATOM     10  O   UNL     1      -4.214   2.905   0.066  0.00  0.00    -0.273 OA
ATOM     11  C   UNL     1      -2.116   2.214   0.871  0.00  0.00    +0.114 C 
ATOM     12  C   UNL     1      -2.057   0.710   0.602  0.00  0.00    +0.035 C 
ATOM     13  C   UNL     1      -1.125   0.047   1.618  0.00  0.00    +0.003 C 
ATOM     14  C   UNL     1      -1.654   0.296   3.033  0.00  0.00    +0.000 C 
ATOM     15  C   UNL     1      -1.709   1.801   3.300  0.00  0.00    +0.003 C 
ATOM     16  C   UNL     1      -2.641   2.466   2.284  0.00  0.00    +0.035 C 
ATOM     17  H   UNL     1      -3.148   3.825  -1.885  0.00  0.00    +0.158 HD
ENDBRANCH   1   2
BRANCH   1  18
ATOM     18  S   UNL     1       2.041   3.807   3.407  0.00  0.00    -0.088 S 
BRANCH  18  23
ATOM     19  N   UNL     1       7.824   3.648   3.797  0.00  0.00    -0.292 N 
ATOM     20  C   UNL     1       6.471   3.586   3.482  0.00  0.00    +0.187 A 
ATOM     21  N   UNL     1       5.886   3.135   2.390  0.00  0.00    -0.125 NA
ATOM     22  N   UNL     1       4.515   3.166   2.284  0.00  0.00    -0.133 NA
ATOM     23  C   UNL     1       3.791   3.648   3.276  0.00  0.00    +0.160 A 
ATOM     24  S   UNL     1       5.060   4.103   4.448  0.00  0.00    -0.024 S 
ATOM     25  H   UNL     1       8.104   3.921   4.684  0.00  0.00    +0.154 HD
BRANCH  19  30
ATOM     26  C   UNL     1      11.707   2.301  -0.111  0.00  0.00    +0.044 C 
ATOM     27  C   UNL     1      10.675   2.659   0.927  0.00  0.00    -0.050 A 
ATOM     28  C   UNL     1       9.431   3.118   0.534  0.00  0.00    +0.005 A 
ATOM     29  C   UNL     1       8.483   3.447   1.483  0.00  0.00    +0.023 A 
ATOM     30  C   UNL     1       8.780   3.316   2.834  0.00  0.00    +0.033 A 
ATOM     31  C   UNL     1      10.033   2.859   3.225  0.00  0.00    +0.023 A 
ATOM     32  C   UNL     1      10.974   2.526   2.271  0.00  0.00    +0.005 A 
ENDBRANCH  19  30
ENDBRANCH  18  23
ENDBRANCH   1  18
TORSDOF 4
