REMARK  Name = ZINC14466636
REMARK  4 active torsions:
REMARK  status: ('A' for Active; 'I' for Inactive)
REMARK    1  A    between atoms: C_5  and  C_7
REMARK    2  A    between atoms: C_20  and  O_23
REMARK    3  A    between atoms: O_23  and  C_24
REMARK    4  A    between atoms: C_24  and  C_25
REMARK                            x       y       z     vdW  Elec       q    Type
REMARK                         _______ _______ _______ _____ _____    ______ ____
ROOT
ATOM      1  C   UNL     1       0.643   3.233  -2.061  0.00  0.00    +0.106 C 
ATOM      2  C   UNL     1       0.695   3.476  -0.550  0.00  0.00    +0.029 C 
ATOM      3  C   UNL     1       1.278   2.198   0.117  0.00  0.00    +0.033 C 
ATOM      4  C   UNL     1       0.081   1.275   0.222  0.00  0.00    -0.030 C 
ATOM      5  C   UNL     1      -1.034   1.960   0.164  0.00  0.00    -0.023 C 
ATOM      6  C   UNL     1      -0.741   3.435   0.013  0.00  0.00    +0.049 C 
ATOM      7  C   UNL     1      -1.721   4.072  -0.928  0.00  0.00    -0.016 A 
ATOM      8  C   UNL     1      -3.027   4.250  -0.486  0.00  0.00    +0.006 A 
ATOM      9  C   UNL     1      -3.976   4.824  -1.306  0.00  0.00    +0.004 A 
ATOM     10  C   UNL     1      -3.635   5.229  -2.584  0.00  0.00    +0.047 A 
ATOM     11  C   UNL     1      -2.339   5.058  -3.033  0.00  0.00    +0.142 A 
ATOM     12  C   UNL     1      -1.375   4.478  -2.203  0.00  0.00    +0.074 A 
ATOM     13  N   UNL     1      -0.079   4.330  -2.705  0.00  0.00    -0.334 N 
ATOM     14  H   UNL     1      -0.091   4.216  -3.708  0.00  0.00    +0.147 HD
ENDROOT
BRANCH   1  19
ATOM     15  C   UNL     1       3.866   1.884  -3.491  0.00  0.00    +0.000 A 
ATOM     16  C   UNL     1       4.619   3.038  -3.610  0.00  0.00    +0.001 A 
ATOM     17  C   UNL     1       4.087   4.254  -3.228  0.00  0.00    +0.020 A 
ATOM     18  C   UNL     1       2.799   4.318  -2.726  0.00  0.00    +0.046 A 
ATOM     19  C   UNL     1       2.045   3.164  -2.607  0.00  0.00    -0.009 A 
ATOM     20  C   UNL     1       2.581   1.947  -2.985  0.00  0.00    +0.007 A 
ATOM     21 CL   UNL     1       2.129   5.846  -2.247  0.00  0.00    -0.083 Cl
ENDBRANCH   1  19
BRANCH  11  22
ATOM     22  O   UNL     1      -2.000   5.457  -4.289  0.00  0.00    -0.488 OA
BRANCH  22  23
ATOM     23  C   UNL     1      -3.032   6.042  -5.085  0.00  0.00    +0.260 C 
BRANCH  23  24
ATOM     24  C   UNL     1      -2.466   6.424  -6.454  0.00  0.00    +0.156 C 
ATOM     25  C   UNL     1      -3.543   7.161  -7.279  0.00  0.00    +0.037 C 
ATOM     26  C   UNL     1      -3.312   6.591  -8.705  0.00  0.00    +0.031 C 
ATOM     27  C   UNL     1      -2.883   5.139  -8.376  0.00  0.00    +0.160 C 
ATOM     28  O   UNL     1      -2.101   5.242  -7.176  0.00  0.00    -0.373 OA
ENDBRANCH  23  24
ENDBRANCH  22  23
ENDBRANCH  11  22
TORSDOF 4
