REMARK  Name = ZINC39356732
REMARK  7 active torsions:
REMARK  status: ('A' for Active; 'I' for Inactive)
REMARK    1  A    between atoms: C_1  and  C_2
REMARK    2  A    between atoms: C_4  and  C_10
REMARK    3  A    between atoms: C_7  and  O_8
REMARK    4  A    between atoms: O_8  and  C_9
REMARK    5  A    between atoms: N_24  and  C_25
REMARK    6  A    between atoms: C_25  and  C_26
REMARK    7  A    between atoms: C_30  and  C_32
REMARK                            x       y       z     vdW  Elec       q    Type
REMARK                         _______ _______ _______ _____ _____    ______ ____
ROOT
ATOM      1  C   UNL     1       0.091  -3.181  -2.700  0.00  0.00    +0.011 C 
ATOM      2  C   UNL     1       1.407  -3.760  -3.160  0.00  0.00    +0.011 A 
ATOM      3  N   UNL     1       2.421  -3.105  -3.806  0.00  0.00    -0.359 N 
ATOM      4  C   UNL     1       3.445  -3.974  -4.057  0.00  0.00    +0.047 A 
ATOM      5  C   UNL     1       4.679  -3.804  -4.679  0.00  0.00    +0.026 A 
ATOM      6  C   UNL     1       5.495  -4.919  -4.769  0.00  0.00    +0.002 A 
ATOM      7  C   UNL     1       5.117  -6.154  -4.267  0.00  0.00    +0.001 A 
ATOM      8  C   UNL     1       3.906  -6.350  -3.649  0.00  0.00    +0.010 A 
ATOM      9  C   UNL     1       3.061  -5.241  -3.544  0.00  0.00    +0.003 A 
ATOM     10  C   UNL     1       1.746  -5.057  -2.976  0.00  0.00    -0.022 A 
ATOM     11  H   UNL     1       2.413  -2.166  -4.048  0.00  0.00    +0.166 HD
ATOM     12  C   UNL     1       0.848  -6.054  -2.287  0.00  0.00    +0.019 C 
ATOM     13  C   UNL     1      -0.241  -5.270  -1.542  0.00  0.00    -0.073 C 
ATOM     14  N   UNL     1      -0.850  -4.285  -2.452  0.00  0.00    +0.391 N 
ATOM     15  H   UNL     1      -1.077  -4.734  -3.327  0.00  0.00    -0.080 HD
ENDROOT
BRANCH   1  19
ATOM     16  C   UNL     1       2.212  -2.732   1.810  0.00  0.00    +0.047 C 
ATOM     17  C   UNL     1       1.314  -2.185   0.729  0.00  0.00    -0.009 A 
ATOM     18  C   UNL     1       1.121  -2.901  -0.437  0.00  0.00    +0.009 A 
ATOM     19  C   UNL     1       0.299  -2.399  -1.429  0.00  0.00    -0.055 A 
ATOM     20  C   UNL     1      -0.333  -1.181  -1.256  0.00  0.00    +0.006 A 
ATOM     21  C   UNL     1      -0.143  -0.462  -0.092  0.00  0.00    +0.046 A 
ATOM     22  C   UNL     1       0.677  -0.966   0.907  0.00  0.00    +0.123 A 
BRANCH  22  23
ATOM     23  O   UNL     1       0.861  -0.263   2.055  0.00  0.00    -0.495 OA
ATOM     24  C   UNL     1       0.173   0.985   2.170  0.00  0.00    +0.277 C 
ENDBRANCH  22  23
ENDBRANCH   1  19
BRANCH  14  25
ATOM     25  C   UNL     1      -2.079  -3.751  -1.849  0.00  0.00    -0.026 C 
BRANCH  25  26
ATOM     26  C   UNL     1      -2.892  -3.015  -2.916  0.00  0.00    +0.204 C 
ATOM     27  N   UNL     1      -3.085  -3.877  -4.089  0.00  0.00    -0.265 NA
ATOM     28  C   UNL     1      -2.537  -3.283  -5.094  0.00  0.00    +0.130 C 
ATOM     29  C   UNL     1      -1.952  -2.005  -4.659  0.00  0.00    +0.053 C 
ATOM     30  N   UNL     1      -2.154  -1.839  -3.393  0.00  0.00    -0.263 NA
ATOM     31  C   UNL     1      -1.226  -1.034  -5.554  0.00  0.00    +0.067 C 
ENDBRANCH  25  26
ENDBRANCH  14  25
TORSDOF 4
