REMARK  Name = ZINC58070482
REMARK  7 active torsions:
REMARK  status: ('A' for Active; 'I' for Inactive)
REMARK    1  A    between atoms: C_1  and  C_2
REMARK    2  A    between atoms: C_2  and  C_3
REMARK    3  A    between atoms: N_12  and  C_13
REMARK    4  A    between atoms: C_13  and  C_14
REMARK    5  A    between atoms: N_16  and  C_17
REMARK    6  A    between atoms: C_22  and  C_23
REMARK    7  A    between atoms: C_23  and  C_25
REMARK                            x       y       z     vdW  Elec       q    Type
REMARK                         _______ _______ _______ _____ _____    ______ ____
ROOT
ATOM      1  C   UNL     1       3.727   1.866  -0.825  0.00  0.00    +0.201 C 
ATOM      2  O   UNL     1       4.596   1.021  -0.805  0.00  0.00    -0.278 OA
ATOM      3  N   UNL     1       4.051   3.169  -0.708  0.00  0.00    -0.286 N 
ATOM      4  H   UNL     1       3.366   3.850  -0.803  0.00  0.00    +0.155 HD
ENDROOT
BRANCH   3   5
ATOM      5  C   UNL     1       5.369   3.539  -0.451  0.00  0.00    +0.048 A 
ATOM      6  C   UNL     1       6.223   2.660   0.195  0.00  0.00    +0.073 A 
ATOM      7  C   UNL     1       7.535   3.026   0.453  0.00  0.00    +0.168 A 
ATOM      8  C   UNL     1       8.005   4.285   0.062  0.00  0.00    +0.167 A 
ATOM      9  C   UNL     1       7.165   5.168  -0.582  0.00  0.00    +0.062 A 
ATOM     10  C   UNL     1       5.838   4.803  -0.851  0.00  0.00    +0.042 A 
ATOM     11  O   UNL     1       9.316   4.392   0.430  0.00  0.00    -0.453 OA
ATOM     12  C   UNL     1       9.525   3.357   1.409  0.00  0.00    +0.466 C 
ATOM     13  O   UNL     1       8.553   2.354   1.062  0.00  0.00    -0.453 OA
BRANCH  10  14
ATOM     14  C   UNL     1       4.944   5.736  -1.539  0.00  0.00    +0.162 C 
ATOM     15  O   UNL     1       3.772   5.456  -1.688  0.00  0.00    -0.292 OA
ATOM     16  C   UNL     1       5.478   7.045  -2.062  0.00  0.00    +0.091 C 
ENDBRANCH  10  14
ENDBRANCH   3   5
BRANCH   1  17
ATOM     17  C   UNL     1       2.284   1.459  -0.981  0.00  0.00    +0.020 C 
BRANCH  17  26
ATOM     18  C   UNL     1       0.785  -0.405  -1.065  0.00  0.00    -0.036 C 
ATOM     19  C   UNL     1       0.699  -1.913  -1.280  0.00  0.00    -0.051 A 
ATOM     20  C   UNL     1      -0.408  -2.687  -0.939  0.00  0.00    +0.010 A 
ATOM     21  C   UNL     1      -0.397  -4.021  -1.164  0.00  0.00    +0.045 A 
ATOM     22  S   UNL     1       1.221  -4.260  -1.887  0.00  0.00    -0.101 S 
ATOM     23  C   UNL     1       1.753  -2.573  -1.837  0.00  0.00    -0.010 A 
ATOM     24  C   UNL     1       3.042  -1.965  -2.287  0.00  0.00    +0.024 C 
ATOM     25  C   UNL     1       2.843  -0.440  -2.334  0.00  0.00    -0.072 C 
ATOM     26  N   UNL     1       2.197  -0.003  -1.088  0.00  0.00    +0.390 N 
ATOM     27  H   UNL     1       2.674  -0.422  -0.304  0.00  0.00    -0.080 HD
BRANCH  18  29
ATOM     28  C   UNL     1       0.983  -0.699   1.409  0.00  0.00    +0.002 C 
ATOM     29  C   UNL     1       0.171  -0.044   0.289  0.00  0.00    -0.014 C 
ENDBRANCH  18  29
ENDBRANCH  17  26
ENDBRANCH   1  17
TORSDOF 5
