REMARK  Name = ZINC20562063
REMARK  15 active torsions:
REMARK  status: ('A' for Active; 'I' for Inactive)
REMARK    1  A    between atoms: C_1  and  C_2
REMARK    2  A    between atoms: C_2  and  C_3
REMARK    3  A    between atoms: C_3  and  C_5
REMARK    4  A    between atoms: C_3  and  O_6
REMARK    5  A    between atoms: O_6  and  C_7
REMARK    6  A    between atoms: C_7  and  C_9
REMARK    7  A    between atoms: C_10  and  C_38
REMARK    8  A    between atoms: C_14  and  C_16
REMARK    9  A    between atoms: C_18  and  O_24
REMARK   10  A    between atoms: C_19  and  O_23
REMARK   11  A    between atoms: O_24  and  C_25
REMARK   12  A    between atoms: C_28  and  C_34
REMARK   13  A    between atoms: C_30  and  C_33
REMARK   14  A    between atoms: C_34  and  O_36
REMARK   15  A    between atoms: O_36  and  C_37
REMARK                            x       y       z     vdW  Elec       q    Type
REMARK                         _______ _______ _______ _____ _____    ______ ____
ROOT
ATOM      1  C   UNL     1       2.463  -2.119   4.371  0.00  0.00    +0.065 C 
ATOM      2  C   UNL     1       2.837  -2.341   5.643  0.00  0.00    +0.016 C 
ATOM      3  N   UNL     1       3.524  -1.385   6.339  0.00  0.00    -0.321 N 
ATOM      4  C   UNL     1       4.186  -0.385   5.681  0.00  0.00    +0.016 C 
ATOM      5  C   UNL     1       3.867  -0.075   4.406  0.00  0.00    +0.025 C 
ATOM      6  C   UNL     1       2.777  -0.824   3.681  0.00  0.00    +0.092 C 
ATOM      7  C   UNL     1       4.537   0.953   3.719  0.00  0.00    +0.176 C 
ATOM      8  O   UNL     1       4.234   1.197   2.568  0.00  0.00    -0.291 OA
ATOM      9  C   UNL     1       5.622   1.755   4.384  0.00  0.00    +0.171 C 
ATOM     10  C   UNL     1       5.359   1.795   5.893  0.00  0.00    +0.013 C 
ATOM     11  C   UNL     1       5.279   0.356   6.410  0.00  0.00    +0.055 C 
ATOM     12  C   UNL     1       4.037   2.514   6.171  0.00  0.00    +0.009 C 
ATOM     13  C   UNL     1       2.496  -3.650   6.307  0.00  0.00    +0.061 C 
ATOM     14  H   UNL     1       3.548  -1.416   7.439  0.00  0.00    +0.152 HD
ENDROOT
BRANCH   6  15
ATOM     15  C   UNL     1       1.535   0.028   3.639  0.00  0.00    -0.030 A 
ATOM     16  C   UNL     1       0.993   0.398   2.422  0.00  0.00    +0.054 A 
ATOM     17  C   UNL     1      -0.148   1.182   2.380  0.00  0.00    +0.163 A 
ATOM     18  C   UNL     1      -0.745   1.600   3.566  0.00  0.00    +0.177 A 
ATOM     19  C   UNL     1      -0.201   1.221   4.783  0.00  0.00    +0.086 A 
ATOM     20  C   UNL     1       0.940   0.438   4.817  0.00  0.00    +0.028 A 
ATOM     21 CL   UNL     1      -0.945   1.736   6.265  0.00  0.00    -0.080 Cl
BRANCH  18  22
ATOM     22  O   UNL     1      -1.862   2.375   3.530  0.00  0.00    -0.502 OA
ATOM     23  H   UNL     1      -2.333   2.705   4.468  0.00  0.00    +0.292 HD
ENDBRANCH  18  22
BRANCH  17  24
ATOM     24  O   UNL     1      -0.682   1.547   1.184  0.00  0.00    -0.491 OA
ATOM     25  C   UNL     1      -0.013   1.086   0.008  0.00  0.00    +0.277 C 
ENDBRANCH  17  24
ENDBRANCH   6  15
BRANCH   1  26
ATOM     26  C   UNL     1       1.760  -3.127   3.670  0.00  0.00    +0.338 C 
ATOM     27  O   UNL     1       1.499  -4.181   4.218  0.00  0.00    -0.245 OA
BRANCH  26  28
ATOM     28  O   UNL     1       1.379  -2.918   2.392  0.00  0.00    -0.458 OA
BRANCH  28  29
ATOM     29  C   UNL     1       0.673  -3.978   1.744  0.00  0.00    +0.173 C 
ATOM     30  C   UNL     1      -0.829  -3.807   1.976  0.00  0.00    +0.052 C 
BRANCH  29  32
ATOM     31  C   UNL     1       2.447  -4.238   0.004  0.00  0.00    +0.007 C 
ATOM     32  C   UNL     1       0.965  -3.943   0.243  0.00  0.00    +0.041 C 
ENDBRANCH  29  32
ENDBRANCH  28  29
ENDBRANCH  26  28
ENDBRANCH   1  26
BRANCH   9  33
ATOM     33  C   UNL     1       5.619   3.159   3.835  0.00  0.00    +0.318 C 
ATOM     34  O   UNL     1       5.427   4.096   4.573  0.00  0.00    -0.250 OA
BRANCH  33  35
ATOM     35  O   UNL     1       5.830   3.368   2.526  0.00  0.00    -0.467 OA
ATOM     36  C   UNL     1       5.814   4.745   2.067  0.00  0.00    +0.280 C 
ENDBRANCH  33  35
ENDBRANCH   9  33
TORSDOF 9
