REMARK  Name = ZINC64365071
REMARK  9 active torsions:
REMARK  status: ('A' for Active; 'I' for Inactive)
REMARK    1  A    between atoms: C_1  and  O_2
REMARK    2  A    between atoms: O_2  and  C_3
REMARK    3  A    between atoms: C_5  and  C_12
REMARK    4  A    between atoms: C_7  and  O_10
REMARK    5  A    between atoms: C_8  and  O_9
REMARK    6  A    between atoms: O_10  and  C_11
REMARK    7  A    between atoms: C_13  and  C_14
REMARK    8  A    between atoms: C_13  and  C_16
REMARK    9  A    between atoms: C_16  and  C_18
REMARK                            x       y       z     vdW  Elec       q    Type
REMARK                         _______ _______ _______ _____ _____    ______ ____
ROOT
ATOM      1  C   UNL     1      -4.848   0.220   0.038  0.00  0.00    +0.031 C 
ATOM      2  C   UNL     1      -6.067  -0.423  -0.058  0.00  0.00    +0.099 C 
ENDROOT
BRANCH   1   5
ATOM      3  C   UNL     1      -2.380  -2.475  -0.787  0.00  0.00    +0.166 A 
ATOM      4  C   UNL     1      -3.553  -1.750  -0.742  0.00  0.00    +0.057 A 
ATOM      5  C   UNL     1      -3.608  -0.553  -0.012  0.00  0.00    -0.017 A 
ATOM      6  C   UNL     1      -2.468  -0.099   0.670  0.00  0.00    +0.057 A 
ATOM      7  C   UNL     1      -1.299  -0.832   0.620  0.00  0.00    +0.166 A 
ATOM      8  C   UNL     1      -1.252  -2.024  -0.103  0.00  0.00    +0.201 A 
BRANCH   3  10
ATOM      9  C   UNL     1      -3.518  -4.039  -2.171  0.00  0.00    +0.277 C 
ATOM     10  O   UNL     1      -2.325  -3.635  -1.494  0.00  0.00    -0.491 OA
ENDBRANCH   3  10
BRANCH   8  11
ATOM     11  O   UNL     1      -0.101  -2.744  -0.145  0.00  0.00    -0.501 OA
ATOM     12  H   UNL     1       0.487  -2.504  -0.874  0.00  0.00    +0.292 HD
ENDBRANCH   8  11
BRANCH   7  13
ATOM     13  O   UNL     1      -0.194  -0.393   1.280  0.00  0.00    -0.491 OA
ATOM     14  C   UNL     1      -0.315   0.832   2.005  0.00  0.00    +0.277 C 
ENDBRANCH   7  13
ENDBRANCH   1   5
BRANCH   2  15
ATOM     15  C   UNL     1      -6.123  -1.854  -0.060  0.00  0.00    +0.103 C 
ATOM     16  N   UNL     1      -6.168  -2.989  -0.061  0.00  0.00    -0.191 NA
ENDBRANCH   2  15
BRANCH   2  17
ATOM     17  C   UNL     1      -7.306   0.361  -0.158  0.00  0.00    +0.202 C 
ATOM     18  O   UNL     1      -7.258   1.579  -0.156  0.00  0.00    -0.286 OA
BRANCH  17  19
ATOM     19  C   UNL     1      -8.599  -0.321  -0.260  0.00  0.00    +0.029 C 
ATOM     20  C   UNL     1      -9.844   0.264  -0.366  0.00  0.00    +0.007 A 
ATOM     21  C   UNL     1     -10.271   1.615  -0.409  0.00  0.00    +0.013 A 
ATOM     22  C   UNL     1     -11.585   1.909  -0.519  0.00  0.00    +0.039 A 
ATOM     23  C   UNL     1     -12.577   0.915  -0.594  0.00  0.00    +0.125 A 
ATOM     24  C   UNL     1     -12.271  -0.404  -0.560  0.00  0.00    +0.064 A 
ATOM     25  C   UNL     1     -10.864  -0.808  -0.443  0.00  0.00    +0.046 A 
ATOM     26  N   UNL     1     -10.298  -1.983  -0.389  0.00  0.00    -0.380 N 
ATOM     27  C   UNL     1      -8.845  -1.813  -0.278  0.00  0.00    +0.153 C 
ATOM     28  F   UNL     1     -13.871   1.287  -0.701  0.00  0.00    -0.205 F 
ATOM     29  H   UNL     1     -10.763  -2.834  -0.422  0.00  0.00    +0.160 HD
ENDBRANCH  17  19
ENDBRANCH   2  17
TORSDOF 7
