REMARK  Name = ZINC41092314
REMARK  3 active torsions:
REMARK  status: ('A' for Active; 'I' for Inactive)
REMARK    1  A    between atoms: C_4  and  N_18
REMARK    2  A    between atoms: C_5  and  N_7
REMARK    3  A    between atoms: N_7  and  C_8
REMARK                            x       y       z     vdW  Elec       q    Type
REMARK                         _______ _______ _______ _____ _____    ______ ____
ROOT
ATOM      1  C   UNL     1      -0.001   1.357   0.409  0.00  0.00    +0.002 A 
ATOM      2  C   UNL     1       1.184   2.068   0.402  0.00  0.00    +0.002 A 
ATOM      3  C   UNL     1       2.390   1.409   0.255  0.00  0.00    +0.025 A 
ATOM      4  C   UNL     1       2.413   0.030   0.114  0.00  0.00    +0.057 A 
ATOM      5  C   UNL     1       1.218  -0.688   0.121  0.00  0.00    +0.049 A 
ATOM      6  C   UNL     1       0.012  -0.018   0.269  0.00  0.00    +0.025 A 
ENDROOT
BRANCH   4   7
ATOM      7  N   UNL     1       3.635  -0.641  -0.036  0.00  0.00    -0.270 N 
ATOM      8  C   UNL     1       4.279  -0.911  -1.327  0.00  0.00    +0.114 C 
ATOM      9  C   UNL     1       5.747  -1.253  -0.992  0.00  0.00    +0.029 C 
ATOM     10  C   UNL     1       5.626  -1.774   0.459  0.00  0.00    +0.098 C 
ATOM     11  C   UNL     1       4.370  -1.115   0.985  0.00  0.00    +0.220 C 
ATOM     12  O   UNL     1       4.069  -1.029   2.156  0.00  0.00    -0.275 OA
ENDBRANCH   4   7
BRANCH   5  13
ATOM     13  N   UNL     1       1.234  -2.080  -0.021  0.00  0.00    -0.339 N 
ATOM     14  H   UNL     1       2.078  -2.547  -0.125  0.00  0.00    +0.146 HD
BRANCH  13  15
ATOM     15  C   UNL     1      -0.023  -2.832  -0.013  0.00  0.00    +0.074 C 
ATOM     16  C   UNL     1       0.180  -4.229  -0.643  0.00  0.00    +0.026 C 
ATOM     17  C   UNL     1      -0.166  -5.231   0.499  0.00  0.00    -0.009 C 
ATOM     18  C   UNL     1       1.016  -5.099   1.507  0.00  0.00    +0.004 C 
ATOM     19  C   UNL     1       0.833  -3.702   2.143  0.00  0.00    +0.005 C 
ATOM     20  C   UNL     1      -0.475  -3.119   1.451  0.00  0.00    +0.009 C 
ATOM     21  C   UNL     1      -1.299  -4.441   1.245  0.00  0.00    +0.009 C 
ENDBRANCH  13  15
ENDBRANCH   5  13
TORSDOF 3
