REMARK  Name = ZINC33289456
REMARK  10 active torsions:
REMARK  status: ('A' for Active; 'I' for Inactive)
REMARK    1  A    between atoms: C_1  and  C_2
REMARK    2  A    between atoms: C_2  and  O_3
REMARK    3  A    between atoms: O_3  and  C_4
REMARK    4  A    between atoms: C_9  and  N_10
REMARK    5  A    between atoms: C_11  and  C_13
REMARK    6  A    between atoms: C_13  and  N_14
REMARK    7  A    between atoms: C_28  and  C_32
REMARK    8  A    between atoms: C_32  and  C_33
REMARK    9  A    between atoms: C_32  and  C_34
REMARK   10  A    between atoms: C_32  and  C_35
REMARK                            x       y       z     vdW  Elec       q    Type
REMARK                         _______ _______ _______ _____ _____    ______ ____
ROOT
ATOM      1  N   UNL     1       1.069  -7.123   2.125  0.00  0.00    -0.217 N 
ATOM      2  C   UNL     1       2.062  -6.224   2.289  0.00  0.00    +0.366 A 
ATOM      3  O   UNL     1       3.178  -6.470   2.712  0.00  0.00    -0.243 OA
ATOM      4  N   UNL     1       1.623  -5.022   1.912  0.00  0.00    -0.172 NA
ATOM      5  C   UNL     1       0.363  -5.115   1.504  0.00  0.00    +0.169 A 
ATOM      6  N   UNL     1      -0.034  -6.418   1.619  0.00  0.00    -0.218 N 
ATOM      7  C   UNL     1      -1.288  -6.798   1.268  0.00  0.00    +0.224 A 
ATOM      8  N   UNL     1      -2.152  -5.931   0.810  0.00  0.00    -0.228 NA
ATOM      9  C   UNL     1      -1.835  -4.647   0.671  0.00  0.00    +0.114 A 
ATOM     10  C   UNL     1      -0.563  -4.149   1.006  0.00  0.00    +0.055 A 
ATOM     11  C   UNL     1      -0.364  -2.715   0.799  0.00  0.00    -0.024 A 
ATOM     12  C   UNL     1      -1.409  -2.016   0.310  0.00  0.00    -0.004 A 
ATOM     13  S   UNL     1      -2.704  -3.208   0.101  0.00  0.00    -0.073 S 
ATOM     14  C   UNL     1      -1.459  -0.548   0.010  0.00  0.00    +0.046 C 
ATOM     15  C   UNL     1      -0.021  -0.009  -0.010  0.00  0.00    -0.000 C 
ATOM     16  C   UNL     1       0.711  -0.518   1.235  0.00  0.00    +0.009 C 
ATOM     17  C   UNL     1       0.959  -2.022   1.114  0.00  0.00    +0.037 C 
ENDROOT
BRANCH  15  18
ATOM     18  C   UNL     1      -0.047   1.520  -0.001  0.00  0.00    -0.035 C 
ATOM     19  C   UNL     1       1.387   2.054  -0.001  0.00  0.00    +0.011 C 
ATOM     20  C   UNL     1      -0.779   2.025  -1.246  0.00  0.00    +0.011 C 
ATOM     21  C   UNL     1      -0.774   2.011   1.252  0.00  0.00    +0.011 C 
ENDBRANCH  15  18
BRANCH   1  22
ATOM     22  C   UNL     1       1.130  -8.557   2.418  0.00  0.00    +0.243 C 
BRANCH  22  24
ATOM     23  N   UNL     1       1.731 -10.641   1.229  0.00  0.00    -0.281 N 
ATOM     24  C   UNL     1       1.598  -9.300   1.194  0.00  0.00    +0.239 C 
ATOM     25  O   UNL     1       1.856  -8.692   0.176  0.00  0.00    -0.273 OA
ATOM     26  H   UNL     1       1.586 -11.184   2.175  0.00  0.00    +0.155 HD
BRANCH  23  32
ATOM     27  C   UNL     1       2.681 -12.586   0.144  0.00  0.00    +0.142 A 
ATOM     28  C   UNL     1       2.998 -13.276  -1.015  0.00  0.00    +0.047 A 
ATOM     29  C   UNL     1       2.692 -12.734  -2.249  0.00  0.00    +0.004 A 
ATOM     30  C   UNL     1       2.070 -11.502  -2.332  0.00  0.00    +0.002 A 
ATOM     31  C   UNL     1       1.745 -10.809  -1.181  0.00  0.00    +0.027 A 
ATOM     32  C   UNL     1       2.054 -11.344   0.061  0.00  0.00    +0.076 A 
BRANCH  27  33
ATOM     33  O   UNL     1       2.980 -13.118   1.359  0.00  0.00    -0.490 OA
BRANCH  33  35
ATOM     34  C   UNL     1       3.878 -14.828   2.812  0.00  0.00    +0.048 C 
ATOM     35  C   UNL     1       3.623 -14.395   1.367  0.00  0.00    +0.226 C 
ENDBRANCH  33  35
ENDBRANCH  27  33
ENDBRANCH  23  32
ENDBRANCH  22  24
ENDBRANCH   1  22
TORSDOF 6
