REMARK  Name = ZINC14885693
REMARK  12 active torsions:
REMARK  status: ('A' for Active; 'I' for Inactive)
REMARK    1  A    between atoms: C_1  and  C_2
REMARK    2  A    between atoms: C_2  and  O_3
REMARK    3  A    between atoms: O_3  and  C_4
REMARK    4  A    between atoms: C_7  and  C_10
REMARK    5  A    between atoms: C_10  and  N_70
REMARK    6  A    between atoms: C_13  and  C_16
REMARK    7  A    between atoms: C_16  and  C_27
REMARK    8  A    between atoms: N_19  and  C_23
REMARK    9  A    between atoms: C_23  and  C_24
REMARK   10  A    between atoms: C_25  and  C_26
REMARK   11  A    between atoms: C_27  and  C_28
REMARK   12  A    between atoms: C_28  and  C_29
REMARK                            x       y       z     vdW  Elec       q    Type
REMARK                         _______ _______ _______ _____ _____    ______ ____
ROOT
ATOM      1  C   UNL     1       0.946  -6.392  -5.258  0.00  0.00    +0.115 C 
ATOM      2  C   UNL     1       1.065  -7.899  -5.374  0.00  0.00    +0.248 C 
ATOM      3  O   UNL     1       2.033  -8.579  -5.112  0.00  0.00    -0.273 OA
ATOM      4  N   UNL     1      -0.130  -8.324  -5.831  0.00  0.00    -0.212 N 
ATOM      5  C   UNL     1      -0.978  -7.306  -6.017  0.00  0.00    +0.310 C 
ATOM      6  O   UNL     1      -2.115  -7.441  -6.424  0.00  0.00    -0.252 OA
ATOM      7  N   UNL     1      -0.431  -6.118  -5.704  0.00  0.00    -0.285 N 
ATOM      8  H   UNL     1      -0.860  -5.250  -5.762  0.00  0.00    +0.151 HD
ENDROOT
BRANCH   1  11
ATOM      9  C   UNL     1       1.018  -4.016  -2.229  0.00  0.00    -0.078 C 
ATOM     10  C   UNL     1       0.882  -4.442  -3.692  0.00  0.00    -0.013 C 
ATOM     11  C   UNL     1       1.139  -5.947  -3.806  0.00  0.00    +0.018 C 
ATOM     12  C   UNL     1       0.153  -6.696  -2.906  0.00  0.00    -0.013 C 
ATOM     13  C   UNL     1       0.311  -6.204  -1.465  0.00  0.00    -0.078 C 
ATOM     14  N   UNL     1       0.026  -4.754  -1.419  0.00  0.00    +0.382 N 
ATOM     15  H   UNL     1      -0.910  -4.586  -1.806  0.00  0.00    -0.081 HD
BRANCH  14  16
ATOM     16  C   UNL     1       0.060  -4.277  -0.021  0.00  0.00    -0.043 C 
BRANCH  16  20
ATOM     17  C   UNL     1       0.002  -0.004   0.002  0.00  0.00    +0.121 A 
ATOM     18  C   UNL     1       1.212  -0.682  -0.019  0.00  0.00    +0.046 A 
ATOM     19  C   UNL     1       1.228  -2.064  -0.021  0.00  0.00    +0.005 A 
ATOM     20  C   UNL     1       0.040  -2.770  -0.013  0.00  0.00    -0.064 A 
ATOM     21  C   UNL     1      -1.168  -2.096   0.002  0.00  0.00    +0.005 A 
ATOM     22  C   UNL     1      -1.189  -0.715   0.010  0.00  0.00    +0.046 A 
BRANCH  17  23
ATOM     23  O   UNL     1      -0.016   1.355   0.009  0.00  0.00    -0.492 OA
BRANCH  23  25
ATOM     24  C   UNL     1       1.027   3.535   0.011  0.00  0.00    +0.048 C 
ATOM     25  C   UNL     1       1.248   2.021   0.001  0.00  0.00    +0.225 C 
ENDBRANCH  23  25
ENDBRANCH  17  23
ENDBRANCH  16  20
ENDBRANCH  14  16
ENDBRANCH   1  11
BRANCH   4  26
ATOM     26  C   UNL     1      -0.459  -9.728  -6.092  0.00  0.00    +0.206 C 
BRANCH  26  27
ATOM     27  C   UNL     1      -0.118 -10.061  -7.485  0.00  0.00    -0.083 C 
ATOM     28  C   UNL     1       0.154 -10.326  -8.595  0.00  0.00    -0.104 C 
ATOM     29  C   UNL     1       0.494 -10.659  -9.988  0.00  0.00    +0.106 C 
ENDBRANCH  26  27
ENDBRANCH   4  26
BRANCH   1  30
ATOM     30  C   UNL     1       1.956  -5.697  -6.171  0.00  0.00    +0.040 C 
BRANCH  30  31
ATOM     31  C   UNL     1       1.662  -6.061  -7.628  0.00  0.00    +0.038 C 
BRANCH  31  32
ATOM     32  C   UNL     1       2.658  -5.376  -8.528  0.00  0.00    -0.047 A 
ATOM     33  C   UNL     1       2.382  -4.120  -9.035  0.00  0.00    +0.003 A 
ATOM     34  C   UNL     1       3.297  -3.490  -9.857  0.00  0.00    +0.000 A 
ATOM     35  C   UNL     1       4.484  -4.120 -10.181  0.00  0.00    +0.000 A 
ATOM     36  C   UNL     1       4.758  -5.378  -9.678  0.00  0.00    +0.000 A 
ATOM     37  C   UNL     1       3.845  -6.007  -8.852  0.00  0.00    +0.003 A 
ENDBRANCH  31  32
ENDBRANCH  30  31
ENDBRANCH   1  30
TORSDOF 10
