REMARK  Name = ZINC21084516
REMARK  6 active torsions:
REMARK  status: ('A' for Active; 'I' for Inactive)
REMARK    1  A    between atoms: C_4  and  N_8
REMARK    2  A    between atoms: C_9  and  C_11
REMARK    3  A    between atoms: C_11  and  C_12
REMARK    4  A    between atoms: C_12  and  S_13
REMARK    5  A    between atoms: S_13  and  C_14
REMARK    6  A    between atoms: N_20  and  N_21
REMARK                            x       y       z     vdW  Elec       q    Type
REMARK                         _______ _______ _______ _____ _____    ______ ____
ROOT
ATOM      1  S   UNL     1       6.407  -4.922   1.027  0.00  0.00    -0.086 S 
ENDROOT
BRANCH   1   2
ATOM      2  C   UNL     1       5.996  -6.549   1.567  0.00  0.00    +0.190 A 
ATOM      3  N   UNL     1       6.879  -7.567   1.792  0.00  0.00    -0.303 N 
ATOM      4  H   UNL     1       7.842  -7.521   1.684  0.00  0.00    +0.171 HD
ATOM      5  C   UNL     1       6.168  -8.661   2.199  0.00  0.00    +0.235 A 
ATOM      6  N   UNL     1       4.899  -8.333   2.223  0.00  0.00    -0.111 NA
ATOM      7  N   UNL     1       4.790  -6.993   1.828  0.00  0.00    -0.121 NA
ATOM      8  N   UNL     1       6.696  -9.902   2.527  0.00  0.00    -0.205 N 
ATOM      9  H   UNL     1       7.654 -10.050   2.479  0.00  0.00    +0.177 HD
BRANCH   8  10
ATOM     10  N   UNL     1       5.847 -10.941   2.930  0.00  0.00    -0.189 NA
ATOM     11  C   UNL     1       6.340 -12.052   3.332  0.00  0.00    +0.037 C 
ATOM     12  C   UNL     1       7.831 -12.301   3.284  0.00  0.00    +0.052 C 
ATOM     13  C   UNL     1       8.289 -12.784   4.665  0.00  0.00    +0.006 C 
ATOM     14  C   UNL     1       7.459 -14.001   5.077  0.00  0.00    +0.001 C 
ATOM     15  C   UNL     1       5.990 -13.602   5.225  0.00  0.00    +0.006 C 
ATOM     16  C   UNL     1       5.447 -13.147   3.871  0.00  0.00    +0.052 C 
ENDBRANCH   8  10
ENDBRANCH   1   2
BRANCH   1  17
ATOM     17  C   UNL     1       4.806  -4.074   0.934  0.00  0.00    +0.086 C 
BRANCH  17  18
ATOM     18  C   UNL     1       5.019  -2.632   0.471  0.00  0.00    +0.107 C 
BRANCH  18  20
ATOM     19  N   UNL     1       3.632  -0.638   0.005  0.00  0.00    -0.283 N 
ATOM     20  C   UNL     1       3.689  -1.927   0.393  0.00  0.00    +0.218 C 
ATOM     21  O   UNL     1       2.671  -2.520   0.680  0.00  0.00    -0.275 OA
ATOM     22  H   UNL     1       4.439  -0.178  -0.274  0.00  0.00    +0.155 HD
BRANCH  19  26
ATOM     23  C   UNL     1      -0.018   1.378   0.002  0.00  0.00    +0.003 A 
ATOM     24  C   UNL     1       0.311   0.548   1.058  0.00  0.00    +0.022 A 
ATOM     25  C   UNL     1       1.521  -0.122   1.062  0.00  0.00    +0.064 A 
ATOM     26  C   UNL     1       2.406   0.039   0.004  0.00  0.00    +0.070 A 
ATOM     27  C   UNL     1       2.071   0.873  -1.056  0.00  0.00    +0.064 A 
ATOM     28  C   UNL     1       0.861   1.540  -1.053  0.00  0.00    +0.022 A 
ATOM     29 CL   UNL     1       3.174   1.078  -2.381  0.00  0.00    -0.082 Cl
ATOM     30 CL   UNL     1       1.933  -1.163   2.389  0.00  0.00    -0.082 Cl
ENDBRANCH  19  26
ENDBRANCH  18  20
ENDBRANCH  17  18
ENDBRANCH   1  17
TORSDOF 6
