REMARK  Name = ZINC28537610
REMARK  10 active torsions:
REMARK  status: ('A' for Active; 'I' for Inactive)
REMARK    1  A    between atoms: C_1  and  C_2
REMARK    2  A    between atoms: C_6  and  N_9
REMARK    3  A    between atoms: C_7  and  C_8
REMARK    4  A    between atoms: C_10  and  C_12
REMARK    5  A    between atoms: C_12  and  S_13
REMARK    6  A    between atoms: S_13  and  C_14
REMARK    7  A    between atoms: N_16  and  C_28
REMARK    8  A    between atoms: C_18  and  O_20
REMARK    9  A    between atoms: O_20  and  C_21
REMARK   10  A    between atoms: C_28  and  C_29
REMARK                            x       y       z     vdW  Elec       q    Type
REMARK                         _______ _______ _______ _____ _____    ______ ____
ROOT
ATOM      1  C   UNL     1       0.982  -0.707  -2.953  0.00  0.00    +0.178 C 
ATOM      2  N   UNL     1       0.392  -0.777  -1.789  0.00  0.00    -0.157 NA
ATOM      3  N   UNL     1       1.116  -0.399  -0.642  0.00  0.00    -0.221 N 
ATOM      4  C   UNL     1       2.577  -0.581  -0.675  0.00  0.00    +0.158 C 
ATOM      5  C   UNL     1       3.062  -0.188  -2.050  0.00  0.00    +0.208 C 
ATOM      6  N   UNL     1       2.264  -0.273  -3.071  0.00  0.00    -0.263 N 
ATOM      7  H   UNL     1       2.658   0.019  -4.056  0.00  0.00    +0.157 HD
ENDROOT
BRANCH   1   8
ATOM      8  S   UNL     1       0.097  -1.189  -4.398  0.00  0.00    -0.079 S 
BRANCH   8   9
ATOM      9  C   UNL     1      -1.532  -1.682  -3.771  0.00  0.00    +0.173 C 
BRANCH   9  11
ATOM     10  N   UNL     1      -3.663  -2.537  -4.692  0.00  0.00    -0.285 N 
ATOM     11  C   UNL     1      -2.401  -2.124  -4.921  0.00  0.00    +0.227 C 
ATOM     12  O   UNL     1      -1.964  -2.107  -6.052  0.00  0.00    -0.275 OA
ATOM     13  H   UNL     1      -4.080  -2.493  -3.675  0.00  0.00    +0.155 HD
BRANCH  10  19
ATOM     14  C   UNL     1      -7.374  -5.349  -6.270  0.00  0.00    +0.044 C 
ATOM     15  C   UNL     1      -6.248  -4.385  -6.542  0.00  0.00    -0.046 A 
ATOM     16  C   UNL     1      -5.986  -3.977  -7.837  0.00  0.00    +0.004 A 
ATOM     17  C   UNL     1      -4.954  -3.093  -8.090  0.00  0.00    +0.002 A 
ATOM     18  C   UNL     1      -4.182  -2.613  -7.050  0.00  0.00    +0.023 A 
ATOM     19  C   UNL     1      -4.443  -3.021  -5.748  0.00  0.00    +0.037 A 
ATOM     20  C   UNL     1      -5.476  -3.914  -5.498  0.00  0.00    -0.026 A 
ATOM     21  C   UNL     1      -5.759  -4.364  -4.088  0.00  0.00    +0.046 C 
ENDBRANCH  10  19
ENDBRANCH   9  11
ENDBRANCH   8   9
ENDBRANCH   1   8
BRANCH   5  22
ATOM     22  O   UNL     1       4.326   0.253  -2.217  0.00  0.00    -0.440 OA
BRANCH  22  23
ATOM     23  C   UNL     1       4.732   0.493  -3.492  0.00  0.00    +0.130 A 
ATOM     24  C   UNL     1       5.737  -0.279  -4.058  0.00  0.00    +0.048 A 
ATOM     25  C   UNL     1       6.143  -0.038  -5.356  0.00  0.00    +0.023 A 
ATOM     26  C   UNL     1       5.559   0.981  -6.087  0.00  0.00    +0.041 A 
ATOM     27  C   UNL     1       4.561   1.756  -5.522  0.00  0.00    +0.023 A 
ATOM     28  C   UNL     1       4.147   1.514  -4.227  0.00  0.00    +0.048 A 
ATOM     29 CL   UNL     1       6.077   1.287  -7.715  0.00  0.00    -0.084 Cl
ENDBRANCH  22  23
ENDBRANCH   5  22
BRANCH   3  30
ATOM     30  C   UNL     1       0.443   0.150   0.538  0.00  0.00    +0.158 C 
BRANCH  30  31
ATOM     31  C   UNL     1       0.365   1.650   0.420  0.00  0.00    -0.014 C 
ATOM     32  C   UNL     1      -0.795   2.254   0.505  0.00  0.00    +0.005 C 
ENDBRANCH  30  31
ENDBRANCH   3  30
TORSDOF 8
