REMARK  Name = ZINC09684884
REMARK  11 active torsions:
REMARK  status: ('A' for Active; 'I' for Inactive)
REMARK    1  A    between atoms: C_1  and  C_2
REMARK    2  A    between atoms: C_3  and  C_24
REMARK    3  A    between atoms: C_4  and  S_9
REMARK    4  A    between atoms: C_5  and  C_8
REMARK    5  A    between atoms: N_6  and  C_7
REMARK    6  A    between atoms: S_9  and  N_12
REMARK    7  A    between atoms: N_12  and  C_13
REMARK    8  A    between atoms: C_14  and  O_22
REMARK    9  A    between atoms: C_16  and  O_20
REMARK   10  A    between atoms: O_20  and  C_21
REMARK   11  A    between atoms: O_22  and  C_23
REMARK                            x       y       z     vdW  Elec       q    Type
REMARK                         _______ _______ _______ _____ _____    ______ ____
ROOT
ATOM      1  S   UNL     1       0.250  -3.417  -1.802  0.00  0.00    +0.075 S 
ATOM      2  O   UNL     1      -0.116  -4.595  -1.096  0.00  0.00    -0.150 OA
ATOM      3  O   UNL     1      -0.474  -2.950  -2.932  0.00  0.00    -0.150 OA
ENDROOT
BRANCH   1   7
ATOM      4  C   UNL     1       0.108   1.451   0.524  0.00  0.00    +0.064 C 
ATOM      5  C   UNL     1       0.185  -0.038   0.302  0.00  0.00    +0.030 A 
ATOM      6  C   UNL     1       0.141  -0.669  -0.910  0.00  0.00    +0.084 A 
ATOM      7  C   UNL     1       0.249  -2.104  -0.626  0.00  0.00    +0.141 A 
ATOM      8  C   UNL     1       0.347  -2.219   0.710  0.00  0.00    +0.043 A 
ATOM      9  N   UNL     1       0.314  -0.972   1.263  0.00  0.00    -0.349 N 
ATOM     10  C   UNL     1       0.402  -0.690   2.698  0.00  0.00    +0.149 C 
ATOM     11  C   UNL     1       0.479  -3.513   1.472  0.00  0.00    +0.065 C 
BRANCH   6  12
ATOM     12  C   UNL     1       0.013  -0.036  -2.234  0.00  0.00    +0.250 C 
ATOM     13  O   UNL     1       1.008   0.290  -2.852  0.00  0.00    -0.270 OA
ATOM     14  N   UNL     1      -1.209   0.182  -2.760  0.00  0.00    -0.297 N 
ATOM     15  C   UNL     1      -2.490  -0.155  -2.122  0.00  0.00    +0.108 C 
ATOM     16  C   UNL     1      -3.611   0.253  -3.102  0.00  0.00    +0.020 C 
ATOM     17  C   UNL     1      -2.883   0.275  -4.472  0.00  0.00    +0.020 C 
ATOM     18  C   UNL     1      -1.482   0.804  -4.069  0.00  0.00    +0.108 C 
ENDBRANCH   6  12
ENDBRANCH   1   7
BRANCH   1  19
ATOM     19  N   UNL     1       1.816  -3.629  -2.298  0.00  0.00    -0.211 N 
ATOM     20  H   UNL     1       2.054  -3.484  -3.227  0.00  0.00    +0.174 HD
BRANCH  19  21
ATOM     21  C   UNL     1       2.798  -4.018  -1.375  0.00  0.00    +0.108 A 
ATOM     22  C   UNL     1       2.677  -5.229  -0.698  0.00  0.00    +0.147 A 
ATOM     23  C   UNL     1       3.648  -5.610   0.213  0.00  0.00    +0.093 A 
ATOM     24  C   UNL     1       4.739  -4.786   0.450  0.00  0.00    +0.125 A 
ATOM     25  C   UNL     1       4.858  -3.580  -0.225  0.00  0.00    +0.067 A 
ATOM     26  C   UNL     1       3.893  -3.199  -1.139  0.00  0.00    +0.070 A 
ATOM     27 CL   UNL     1       4.048  -1.692  -1.987  0.00  0.00    -0.081 Cl
BRANCH  24  28
ATOM     28  O   UNL     1       5.692  -5.161   1.345  0.00  0.00    -0.495 OA
ATOM     29  C   UNL     1       6.788  -4.264   1.539  0.00  0.00    +0.277 C 
ENDBRANCH  24  28
BRANCH  22  30
ATOM     30  O   UNL     1       1.607  -6.036  -0.930  0.00  0.00    -0.493 OA
ATOM     31  C   UNL     1       1.549  -7.263  -0.200  0.00  0.00    +0.277 C 
ENDBRANCH  22  30
ENDBRANCH  19  21
ENDBRANCH   1  19
TORSDOF 6
