REMARK  Name = ZINC12363923
REMARK  9 active torsions:
REMARK  status: ('A' for Active; 'I' for Inactive)
REMARK    1  A    between atoms: C_1  and  C_2
REMARK    2  A    between atoms: C_2  and  C_3
REMARK    3  A    between atoms: C_2  and  N_4
REMARK    4  A    between atoms: C_5  and  C_7
REMARK    5  A    between atoms: C_7  and  N_8
REMARK    6  A    between atoms: C_10  and  C_17
REMARK    7  A    between atoms: C_17  and  N_67
REMARK    8  A    between atoms: C_20  and  N_23
REMARK    9  A    between atoms: C_24  and  C_26
REMARK                            x       y       z     vdW  Elec       q    Type
REMARK                         _______ _______ _______ _____ _____    ______ ____
ROOT
ATOM      1  N   UNL     1       3.349   8.621  -4.356  0.00  0.00    -0.338 N 
ATOM      2  C   UNL     1       3.648   8.308  -3.058  0.00  0.00    +0.089 A 
ATOM      3  C   UNL     1       2.524   8.013  -2.387  0.00  0.00    -0.039 A 
ATOM      4  C   UNL     1       1.414   8.142  -3.334  0.00  0.00    +0.001 A 
ATOM      5  C   UNL     1       1.990   8.532  -4.557  0.00  0.00    +0.050 A 
ATOM      6  C   UNL     1       1.169   8.738  -5.661  0.00  0.00    +0.026 A 
ATOM      7  C   UNL     1      -0.193   8.564  -5.544  0.00  0.00    +0.002 A 
ATOM      8  C   UNL     1      -0.756   8.185  -4.334  0.00  0.00    +0.001 A 
ATOM      9  C   UNL     1       0.031   7.976  -3.236  0.00  0.00    +0.010 A 
ENDROOT
BRANCH   1  10
ATOM     10  C   UNL     1       4.328   8.994  -5.379  0.00  0.00    +0.217 C 
BRANCH  10  12
ATOM     11  N   UNL     1       5.276  11.072  -6.329  0.00  0.00    -0.312 N 
ATOM     12  C   UNL     1       4.431  10.496  -5.452  0.00  0.00    +0.233 C 
ATOM     13  O   UNL     1       3.753  11.187  -4.721  0.00  0.00    -0.274 OA
ATOM     14  H   UNL     1       5.819  10.520  -6.914  0.00  0.00    +0.149 HD
BRANCH  11  16
ATOM     15  C   UNL     1       6.367  13.027  -5.345  0.00  0.00    +0.027 C 
ATOM     16  C   UNL     1       5.376  12.532  -6.400  0.00  0.00    +0.067 C 
ATOM     17  C   UNL     1       5.864  12.943  -7.791  0.00  0.00    +0.027 C 
ENDBRANCH  11  16
ENDBRANCH  10  12
ENDBRANCH   1  10
BRANCH   3  18
ATOM     18  C   UNL     1       2.424   7.618  -0.936  0.00  0.00    -0.041 C 
BRANCH  18  24
ATOM     19  C   UNL     1       2.427   5.713   0.558  0.00  0.00    -0.077 C 
ATOM     20  C   UNL     1       2.428   4.184   0.608  0.00  0.00    +0.003 C 
ATOM     21  C   UNL     1       1.120   3.657   0.011  0.00  0.00    +0.069 C 
ATOM     22  C   UNL     1       0.976   4.175  -1.423  0.00  0.00    +0.003 C 
ATOM     23  C   UNL     1       1.019   5.705  -1.414  0.00  0.00    -0.077 C 
ATOM     24  N   UNL     1       2.312   6.147  -0.850  0.00  0.00    +0.383 N 
ATOM     25  H   UNL     1       3.074   5.723  -1.392  0.00  0.00    -0.081 HD
BRANCH  21  26
ATOM     26  N   UNL     1       1.139   2.192   0.003  0.00  0.00    -0.312 N 
ATOM     27  C   UNL     1      -0.018   1.503   0.010  0.00  0.00    +0.216 C 
ATOM     28  O   UNL     1      -1.077   2.095   0.018  0.00  0.00    -0.276 OA
ATOM     29  H   UNL     1       1.986   1.719  -0.008  0.00  0.00    +0.149 HD
BRANCH  27  30
ATOM     30  C   UNL     1       0.002  -0.004   0.002  0.00  0.00    +0.075 C 
ATOM     31  C   UNL     1       0.675  -0.516  -1.288  0.00  0.00    +0.013 C 
ATOM     32  C   UNL     1      -0.138  -1.781  -1.664  0.00  0.00    +0.001 C 
ATOM     33  C   UNL     1      -1.588  -1.376  -1.299  0.00  0.00    +0.001 C 
ATOM     34  C   UNL     1      -1.436  -0.551  -0.005  0.00  0.00    +0.013 C 
ENDBRANCH  27  30
ENDBRANCH  21  26
ENDBRANCH  18  24
ENDBRANCH   3  18
TORSDOF 7
