REMARK  Name = ZINC04331738
REMARK  13 active torsions:
REMARK  status: ('A' for Active; 'I' for Inactive)
REMARK    1  A    between atoms: C_1  and  C_2
REMARK    2  A    between atoms: C_2  and  C_3
REMARK    3  A    between atoms: C_3  and  O_32
REMARK    4  A    between atoms: C_4  and  C_31
REMARK    5  A    between atoms: C_6  and  C_22
REMARK    6  A    between atoms: C_8  and  C_13
REMARK    7  A    between atoms: C_10  and  C_12
REMARK    8  A    between atoms: C_16  and  N_19
REMARK    9  A    between atoms: N_19  and  C_20
REMARK   10  A    between atoms: N_19  and  C_21
REMARK   11  A    between atoms: C_25  and  N_28
REMARK   12  A    between atoms: N_28  and  C_29
REMARK   13  A    between atoms: N_28  and  C_30
REMARK                            x       y       z     vdW  Elec       q    Type
REMARK                         _______ _______ _______ _____ _____    ______ ____
ROOT
ATOM      1  C   UNL     1      -4.126   4.495   1.517  0.00  0.00    +0.069 C 
ATOM      2  C   UNL     1      -5.195   3.607   0.874  0.00  0.00    +0.008 C 
ATOM      3  C   UNL     1      -4.725   3.176  -0.517  0.00  0.00    -0.034 C 
ATOM      4  C   UNL     1      -2.404   3.289   0.170  0.00  0.00    -0.034 C 
ATOM      5  C   UNL     1      -2.805   3.724   1.581  0.00  0.00    +0.008 C 
ATOM      6  C   UNL     1      -2.978   2.488   2.467  0.00  0.00    +0.009 C 
ATOM      7  C   UNL     1      -6.504   4.391   0.750  0.00  0.00    +0.009 C 
ATOM      8  N   UNL     1      -3.457   2.430  -0.404  0.00  0.00    +0.389 N 
ATOM      9  H   UNL     1      -3.166   2.116  -1.337  0.00  0.00    -0.084 HD
ATOM     10  H   UNL     1      -3.597   1.615   0.204  0.00  0.00    -0.084 HD
ENDROOT
BRANCH   4  11
ATOM     11  C   UNL     1      -1.114   2.513   0.231  0.00  0.00    -0.061 A 
ATOM     12  C   UNL     1      -1.128   1.179   0.597  0.00  0.00    +0.004 A 
ATOM     13  C   UNL     1       0.052   0.466   0.659  0.00  0.00    +0.023 A 
ATOM     14  C   UNL     1       1.255   1.086   0.345  0.00  0.00    +0.029 A 
ATOM     15  C   UNL     1       1.265   2.425  -0.027  0.00  0.00    +0.023 A 
ATOM     16  C   UNL     1       0.081   3.134  -0.082  0.00  0.00    +0.004 A 
BRANCH  14  17
ATOM     17  N   UNL     1       2.450   0.366   0.401  0.00  0.00    -0.336 N 
ATOM     18  C   UNL     1       2.455  -1.007   0.912  0.00  0.00    +0.129 C 
ATOM     19  C   UNL     1       3.699   0.984  -0.051  0.00  0.00    +0.129 C 
ENDBRANCH  14  17
ENDBRANCH   4  11
BRANCH   3  20
ATOM     20  C   UNL     1      -4.521   4.396  -1.379  0.00  0.00    -0.061 A 
ATOM     21  C   UNL     1      -5.535   5.327  -1.508  0.00  0.00    +0.004 A 
ATOM     22  C   UNL     1      -5.350   6.448  -2.293  0.00  0.00    +0.023 A 
ATOM     23  C   UNL     1      -4.146   6.635  -2.961  0.00  0.00    +0.029 A 
ATOM     24  C   UNL     1      -3.131   5.695  -2.833  0.00  0.00    +0.023 A 
ATOM     25  C   UNL     1      -3.322   4.579  -2.042  0.00  0.00    +0.004 A 
BRANCH  23  26
ATOM     26  N   UNL     1      -3.958   7.764  -3.760  0.00  0.00    -0.336 N 
ATOM     27  C   UNL     1      -2.738   7.900  -4.561  0.00  0.00    +0.129 C 
ATOM     28  C   UNL     1      -4.979   8.814  -3.798  0.00  0.00    +0.129 C 
ENDBRANCH  23  26
ENDBRANCH   3  20
BRANCH   1  30
ATOM     29  C   UNL     1      -3.510   5.798   3.558  0.00  0.00    +0.007 C 
ATOM     30  C   UNL     1      -4.563   4.881   2.931  0.00  0.00    +0.032 C 
ENDBRANCH   1  30
BRANCH   1  31
ATOM     31  O   UNL     1      -3.951   5.676   0.732  0.00  0.00    -0.388 OA
ATOM     32  H   UNL     1      -4.750   6.215   0.648  0.00  0.00    +0.210 HD
ENDBRANCH   1  31
TORSDOF 6
