REMARK  Name = ZINC42117469
REMARK  5 active torsions:
REMARK  status: ('A' for Active; 'I' for Inactive)
REMARK    1  A    between atoms: C_1  and  C_2
REMARK    2  A    between atoms: C_11  and  N_13
REMARK    3  A    between atoms: N_13  and  C_14
REMARK    4  A    between atoms: C_14  and  C_16
REMARK    5  A    between atoms: C_14  and  C_17
REMARK                            x       y       z     vdW  Elec       q    Type
REMARK                         _______ _______ _______ _____ _____    ______ ____
ROOT
ATOM      1  C   UNL     1       2.700  -2.725  -1.046  0.00  0.00    +0.046 C 
ATOM      2  C   UNL     1       2.380  -3.036   0.393  0.00  0.00    -0.028 A 
ATOM      3  C   UNL     1       3.287  -3.734   1.164  0.00  0.00    +0.020 A 
ATOM      4  C   UNL     1       3.002  -4.025   2.486  0.00  0.00    +0.018 A 
ATOM      5  C   UNL     1       1.801  -3.614   3.039  0.00  0.00    +0.019 A 
ATOM      6  C   UNL     1       0.895  -2.918   2.271  0.00  0.00    -0.030 A 
ATOM      7  C   UNL     1       1.172  -2.615   0.944  0.00  0.00    +0.038 A 
ATOM      8  N   UNL     1       0.112  -1.902   0.380  0.00  0.00    -0.286 N 
ATOM      9  C   UNL     1      -0.884  -1.693   1.258  0.00  0.00    +0.208 C 
ATOM     10  O   UNL     1      -1.923  -1.106   1.042  0.00  0.00    -0.277 OA
ATOM     11  C   UNL     1      -0.471  -2.341   2.563  0.00  0.00    +0.049 C 
ATOM     12 BR   UNL     1       4.250  -4.983   3.536  0.00  0.00    -0.050 Br
ATOM     13  H   UNL     1       0.096  -1.593  -0.539  0.00  0.00    +0.155 HD
ENDROOT
BRANCH  11  14
ATOM     14  N   UNL     1      -1.409  -3.405   2.943  0.00  0.00    +0.393 N 
ATOM     15  H   UNL     1      -2.338  -3.021   3.027  0.00  0.00    -0.084 HD
ATOM     16  H   UNL     1      -1.405  -4.125   2.236  0.00  0.00    -0.084 HD
BRANCH  14  17
ATOM     17  C   UNL     1      -1.000  -3.981   4.231  0.00  0.00    -0.044 C 
ATOM     18  C   UNL     1      -1.084  -2.909   5.319  0.00  0.00    -0.011 C 
BRANCH  17  19
ATOM     19  C   UNL     1      -1.927  -5.144   4.587  0.00  0.00    +0.104 C 
ATOM     20  C   UNL     1      -1.852  -6.229   3.492  0.00  0.00    +0.032 C 
ATOM     21  C   UNL     1      -3.331  -6.687   3.379  0.00  0.00    +0.030 C 
ATOM     22  C   UNL     1      -4.074  -5.356   3.654  0.00  0.00    +0.160 C 
ATOM     23  O   UNL     1      -3.282  -4.684   4.650  0.00  0.00    -0.378 OA
ENDBRANCH  17  19
ENDBRANCH  14  17
ENDBRANCH  11  14
TORSDOF 3
