REMARK  Name = ZINC05041237
REMARK  1 active torsions:
REMARK  status: ('A' for Active; 'I' for Inactive)
REMARK    1  A    between atoms: C_12  and  C_22
REMARK                            x       y       z     vdW  Elec       q    Type
REMARK                         _______ _______ _______ _____ _____    ______ ____
ROOT
ATOM      1  C   UNL     1      -9.218   0.348   2.380  0.00  0.00    +0.002 A 
ATOM      2  C   UNL     1      -9.870   1.548   2.619  0.00  0.00    +0.004 A 
ATOM      3  C   UNL     1      -9.227   2.749   2.402  0.00  0.00    +0.048 A 
ATOM      4  C   UNL     1      -7.920   2.760   1.943  0.00  0.00    +0.157 A 
ATOM      5  C   UNL     1      -7.256   1.548   1.699  0.00  0.00    +0.111 A 
ATOM      6  C   UNL     1      -7.919   0.340   1.922  0.00  0.00    +0.031 A 
ATOM      7  N   UNL     1      -6.010   1.868   1.258  0.00  0.00    -0.195 NA
ATOM      8  C   UNL     1      -5.895   3.171   1.233  0.00  0.00    +0.295 A 
ATOM      9  O   UNL     1      -7.041   3.743   1.641  0.00  0.00    -0.424 OA
ATOM     10  N   UNL     1      -4.764   3.858   0.840  0.00  0.00    -0.243 N 
ATOM     11  C   UNL     1      -3.641   3.166   0.439  0.00  0.00    +0.166 C 
ATOM     12  C   UNL     1      -2.516   1.072   0.020  0.00  0.00    +0.147 C 
ATOM     13  C   UNL     1      -1.247   1.885   0.018  0.00  0.00    +0.039 C 
ATOM     14  C   UNL     1      -1.302   3.235   0.027  0.00  0.00    +0.019 C 
ATOM     15  N   UNL     1      -2.519   3.863   0.061  0.00  0.00    -0.292 N 
ATOM     16  C   UNL     1      -0.048   4.068  -0.002  0.00  0.00    +0.052 C 
ATOM     17  C   UNL     1       1.084   3.316   0.702  0.00  0.00    +0.014 C 
ATOM     18  C   UNL     1       1.286   1.969   0.000  0.00  0.00    +0.080 C 
ATOM     19  C   UNL     1      -0.014   1.211   0.009  0.00  0.00    +0.163 C 
ATOM     20  O   UNL     1       0.002  -0.004   0.002  0.00  0.00    -0.292 OA
ATOM     21  H   UNL     1      -4.760   4.828   0.846  0.00  0.00    +0.159 HD
ATOM     22  H   UNL     1      -2.592   4.797  -0.191  0.00  0.00    +0.154 HD
ATOM     23  N   UNL     1      -3.734   1.833   0.462  0.00  0.00    -0.350 N 
ATOM     24  H   UNL     1      -4.591   1.355   0.765  0.00  0.00    +0.163 HD
ENDROOT
BRANCH  12  25
ATOM     25  C   UNL     1      -2.764   0.542  -1.369  0.00  0.00    -0.021 A 
ATOM     26  C   UNL     1      -3.330   1.360  -2.329  0.00  0.00    +0.007 A 
ATOM     27  C   UNL     1      -3.552   0.876  -3.605  0.00  0.00    +0.020 A 
ATOM     28  C   UNL     1      -3.219  -0.429  -3.918  0.00  0.00    +0.041 A 
ATOM     29  C   UNL     1      -2.657  -1.249  -2.955  0.00  0.00    +0.020 A 
ATOM     30  C   UNL     1      -2.430  -0.763  -1.681  0.00  0.00    +0.007 A 
ATOM     31 CL   UNL     1      -3.503  -1.039  -5.518  0.00  0.00    -0.084 Cl
ENDBRANCH  12  25
TORSDOF 1
