REMARK  Name = ZINC06857634
REMARK  4 active torsions:
REMARK  status: ('A' for Active; 'I' for Inactive)
REMARK    1  A    between atoms: C_1  and  N_45
REMARK    2  A    between atoms: C_9  and  O_26
REMARK    3  A    between atoms: C_11  and  C_14
REMARK    4  A    between atoms: C_17  and  C_19
REMARK                            x       y       z     vdW  Elec       q    Type
REMARK                         _______ _______ _______ _____ _____    ______ ____
ROOT
ATOM      1  C   UNL     1      -3.602  -0.904   0.256  0.00  0.00    -0.096 C 
ATOM      2  C   UNL     1      -2.445   1.117  -0.409  0.00  0.00    -0.074 C 
ATOM      3  C   UNL     1      -1.348   2.093   0.020  0.00  0.00    +0.018 C 
ATOM      4  C   UNL     1      -0.016   1.351   0.009  0.00  0.00    -0.027 A 
ATOM      5  C   UNL     1       0.002  -0.004   0.002  0.00  0.00    -0.021 A 
ATOM      6  S   UNL     1       1.721  -0.435  -0.020  0.00  0.00    -0.080 S 
ATOM      7  C   UNL     1       2.390   1.139  -0.020  0.00  0.00    +0.080 A 
ATOM      8  C   UNL     1       1.282   1.997   0.001  0.00  0.00    +0.067 A 
ATOM      9  C   UNL     1       1.554   3.457   0.018  0.00  0.00    +0.220 C 
ATOM     10  N   UNL     1       2.775   3.849  -0.231  0.00  0.00    -0.220 NA
ATOM     11  C   UNL     1       3.874   2.963  -0.589  0.00  0.00    +0.260 C 
ATOM     12  N   UNL     1       3.681   1.608  -0.039  0.00  0.00    -0.311 N 
ATOM     13  C   UNL     1      -1.188  -0.910   0.013  0.00  0.00    -0.036 C 
ATOM     14  H   UNL     1       4.424   1.078   0.290  0.00  0.00    +0.149 HD
ATOM     15  N   UNL     1      -2.367  -0.106   0.416  0.00  0.00    +0.381 N 
ATOM     16  H   UNL     1      -2.268   0.161   1.402  0.00  0.00    -0.082 HD
ENDROOT
BRANCH  11  17
ATOM     17  C   UNL     1       3.967   2.876  -2.090  0.00  0.00    +0.148 A 
ATOM     18  C   UNL     1       3.579   3.831  -2.958  0.00  0.00    +0.049 A 
ATOM     19  C   UNL     1       3.844   3.344  -4.254  0.00  0.00    +0.050 A 
ATOM     20  C   UNL     1       4.376   2.102  -4.104  0.00  0.00    +0.137 A 
ATOM     21  O   UNL     1       4.445   1.831  -2.786  0.00  0.00    -0.456 OA
BRANCH  20  22
ATOM     22  C   UNL     1       4.805   1.205  -5.197  0.00  0.00    +0.036 A 
ATOM     23  C   UNL     1       3.947   0.941  -6.266  0.00  0.00    +0.013 A 
ATOM     24  C   UNL     1       4.355   0.107  -7.285  0.00  0.00    +0.001 A 
ATOM     25  C   UNL     1       5.610  -0.477  -7.246  0.00  0.00    +0.001 A 
ATOM     26  C   UNL     1       6.464  -0.225  -6.188  0.00  0.00    +0.021 A 
ATOM     27  C   UNL     1       6.070   0.612  -5.163  0.00  0.00    +0.052 A 
ATOM     28 CL   UNL     1       7.143   0.928  -3.835  0.00  0.00    -0.083 Cl
ENDBRANCH  20  22
ENDBRANCH  11  17
BRANCH   9  29
ATOM     29  O   UNL     1       0.573   4.350   0.283  0.00  0.00    -0.492 OA
ATOM     30  H   UNL     1       0.864   5.272   0.268  0.00  0.00    +0.294 HD
ENDBRANCH   9  29
TORSDOF 3
