REMARK  Name = ZINC45779933
REMARK  7 active torsions:
REMARK  status: ('A' for Active; 'I' for Inactive)
REMARK    1  A    between atoms: C_1  and  C_2
REMARK    2  A    between atoms: C_15  and  C_17
REMARK    3  A    between atoms: C_17  and  C_19
REMARK    4  A    between atoms: C_17  and  N_20
REMARK    5  A    between atoms: N_23  and  C_26
REMARK    6  A    between atoms: C_26  and  C_27
REMARK    7  A    between atoms: N_29  and  C_30
REMARK                            x       y       z     vdW  Elec       q    Type
REMARK                         _______ _______ _______ _____ _____    ______ ____
ROOT
ATOM      1  C   UNL     1       2.299  -8.120   0.773  0.00  0.00    +0.120 C 
ATOM      2  C   UNL     1       3.422  -8.545  -0.174  0.00  0.00    +0.032 C 
ENDROOT
BRANCH   1  16
ATOM      3  C   UNL     1       0.037   1.546   0.001  0.00  0.00    +0.008 C 
ATOM      4  C   UNL     1       0.049   0.016  -0.004  0.00  0.00    -0.009 C 
ATOM      5  C   UNL     1       0.765  -0.488  -1.260  0.00  0.00    +0.008 C 
ATOM      6  C   UNL     1       0.565  -1.997  -1.401  0.00  0.00    +0.037 C 
ATOM      7  C   UNL     1       0.978  -2.674  -0.096  0.00  0.00    -0.023 A 
ATOM      8  C   UNL     1       1.069  -1.960   1.050  0.00  0.00    -0.004 A 
ATOM      9  S   UNL     1       1.571  -3.129   2.288  0.00  0.00    -0.073 S 
ATOM     10  C   UNL     1       1.659  -4.568   1.269  0.00  0.00    +0.116 A 
ATOM     11  C   UNL     1       1.292  -4.089  -0.008  0.00  0.00    +0.075 A 
ATOM     12  C   UNL     1       1.268  -5.043  -1.080  0.00  0.00    +0.260 A 
ATOM     13  O   UNL     1       0.965  -4.733  -2.219  0.00  0.00    -0.267 OA
ATOM     14  N   UNL     1       1.603  -6.312  -0.744  0.00  0.00    -0.309 N 
ATOM     15  H   UNL     1       1.601  -6.990  -1.438  0.00  0.00    +0.170 HD
ATOM     16  C   UNL     1       1.943  -6.678   0.515  0.00  0.00    +0.128 A 
ATOM     17  N   UNL     1       1.976  -5.833   1.522  0.00  0.00    -0.225 NA
ATOM     18  C   UNL     1       0.798  -0.497   1.233  0.00  0.00    +0.046 C 
ENDBRANCH   1  16
BRANCH   1  19
ATOM     19  N   UNL     1       2.747  -8.272   2.164  0.00  0.00    -0.296 NA
ATOM     20  C   UNL     1       3.947  -7.463   2.421  0.00  0.00    +0.066 C 
ATOM     21  C   UNL     1       4.346  -7.603   3.892  0.00  0.00    -0.063 C 
ATOM     22  N   UNL     1       4.611  -9.015   4.196  0.00  0.00    +0.387 N 
ATOM     23  C   UNL     1       3.397  -9.806   3.958  0.00  0.00    -0.063 C 
ATOM     24  C   UNL     1       2.990  -9.685   2.487  0.00  0.00    +0.066 C 
ATOM     25  H   UNL     1       5.354  -9.353   3.603  0.00  0.00    -0.081 HD
BRANCH  22  26
ATOM     26  C   UNL     1       5.012  -9.146   5.604  0.00  0.00    +0.019 C 
BRANCH  26  27
ATOM     27  C   UNL     1       5.402 -10.574   5.884  0.00  0.00    +0.201 C 
ATOM     28  O   UNL     1       5.351 -11.402   4.999  0.00  0.00    -0.278 OA
ATOM     29  N   UNL     1       5.807 -10.932   7.119  0.00  0.00    -0.287 N 
ATOM     30  H   UNL     1       5.912 -10.259   7.809  0.00  0.00    +0.155 HD
BRANCH  29  31
ATOM     31  C   UNL     1       6.076 -12.275   7.405  0.00  0.00    +0.033 A 
ATOM     32  C   UNL     1       5.779 -12.793   8.659  0.00  0.00    +0.023 A 
ATOM     33  C   UNL     1       6.046 -14.119   8.938  0.00  0.00    +0.002 A 
ATOM     34  C   UNL     1       6.609 -14.931   7.971  0.00  0.00    +0.000 A 
ATOM     35  C   UNL     1       6.907 -14.418   6.721  0.00  0.00    +0.002 A 
ATOM     36  C   UNL     1       6.636 -13.095   6.434  0.00  0.00    +0.023 A 
ENDBRANCH  29  31
ENDBRANCH  26  27
ENDBRANCH  22  26
ENDBRANCH   1  19
TORSDOF 5
