REMARK  Name = ZINC07387782
REMARK  4 active torsions:
REMARK  status: ('A' for Active; 'I' for Inactive)
REMARK    1  A    between atoms: C_6  and  S_7
REMARK    2  A    between atoms: S_7  and  N_10
REMARK    3  A    between atoms: N_10  and  N_11
REMARK    4  A    between atoms: C_12  and  C_14
REMARK                            x       y       z     vdW  Elec       q    Type
REMARK                         _______ _______ _______ _____ _____    ______ ____
ROOT
ATOM      1  N   UNL     1      -3.360   1.681   2.457  0.00  0.00    -0.227 N 
ATOM      2  C   UNL     1      -4.522   1.791   3.131  0.00  0.00    +0.265 C 
ATOM      3  O   UNL     1      -5.386   0.945   2.995  0.00  0.00    -0.268 OA
ATOM      4  H   UNL     1      -2.671   2.355   2.565  0.00  0.00    +0.171 HD
ENDROOT
BRANCH   2   5
ATOM      5  C   UNL     1      -4.744   2.930   4.026  0.00  0.00    +0.076 A 
ATOM      6  C   UNL     1      -5.848   3.232   4.794  0.00  0.00    +0.024 A 
ATOM      7  C   UNL     1      -5.809   4.382   5.586  0.00  0.00    -0.036 A 
ATOM      8  C   UNL     1      -4.709   5.156   5.490  0.00  0.00    -0.006 A 
ATOM      9  S   UNL     1      -3.662   4.294   4.404  0.00  0.00    -0.088 S 
ATOM     10  C   UNL     1      -4.355   6.506   6.057  0.00  0.00    +0.043 C 
ATOM     11  C   UNL     1      -5.491   7.101   6.891  0.00  0.00    +0.005 C 
ATOM     12  C   UNL     1      -5.516   6.489   8.282  0.00  0.00    +0.000 C 
ATOM     13  C   UNL     1      -5.183   5.010   8.279  0.00  0.00    +0.000 C 
ATOM     14  C   UNL     1      -6.481   4.259   7.970  0.00  0.00    +0.005 C 
ATOM     15  C   UNL     1      -6.948   4.636   6.564  0.00  0.00    +0.036 C 
ENDBRANCH   2   5
BRANCH   1  16
ATOM     16  N   UNL     1      -3.147   0.592   1.601  0.00  0.00    -0.108 NA
ATOM     17  H   UNL     1      -3.242  -0.314   1.935  0.00  0.00    +0.172 HD
BRANCH  16  18
ATOM     18  S   UNL     1      -2.733   0.851   0.019  0.00  0.00    +0.074 S 
ATOM     19  O   UNL     1      -3.721   1.718  -0.522  0.00  0.00    -0.152 OA
ATOM     20  O   UNL     1      -2.449  -0.424  -0.541  0.00  0.00    -0.152 OA
BRANCH  18  26
ATOM     21  C   UNL     1      -0.013   1.076   0.008  0.00  0.00    +0.029 A 
ATOM     22  C   UNL     1       1.174   1.783   0.000  0.00  0.00    +0.006 A 
ATOM     23  C   UNL     1       1.159   3.168   0.008  0.00  0.00    -0.044 A 
ATOM     24  C   UNL     1      -0.047   3.844   0.023  0.00  0.00    -0.042 A 
ATOM     25  C   UNL     1      -1.235   3.132   0.031  0.00  0.00    +0.032 A 
ATOM     26  C   UNL     1      -1.218   1.751   0.017  0.00  0.00    +0.107 A 
ATOM     27  C   UNL     1       0.203   5.336   0.029  0.00  0.00    +0.036 C 
ATOM     28  C   UNL     1       1.669   5.502  -0.424  0.00  0.00    +0.009 C 
ATOM     29  C   UNL     1       2.302   4.161   0.003  0.00  0.00    +0.036 C 
ENDBRANCH  18  26
ENDBRANCH  16  18
ENDBRANCH   1  16
TORSDOF 4
