REMARK  Name = ZINC09959518
REMARK  14 active torsions:
REMARK  status: ('A' for Active; 'I' for Inactive)
REMARK    1  A    between atoms: C_1  and  C_2
REMARK    2  A    between atoms: C_2  and  O_3
REMARK    3  A    between atoms: O_3  and  C_4
REMARK    4  A    between atoms: C_4  and  C_6
REMARK    5  A    between atoms: C_7  and  C_31
REMARK    6  A    between atoms: C_13  and  C_17
REMARK    7  A    between atoms: C_17  and  C_19
REMARK    8  A    between atoms: C_17  and  N_54
REMARK    9  A    between atoms: C_20  and  C_21
REMARK   10  A    between atoms: C_20  and  N_54
REMARK   11  A    between atoms: C_21  and  O_22
REMARK   12  A    between atoms: O_22  and  C_23
REMARK   13  A    between atoms: C_28  and  O_29
REMARK   14  A    between atoms: O_29  and  C_30
REMARK                            x       y       z     vdW  Elec       q    Type
REMARK                         _______ _______ _______ _____ _____    ______ ____
ROOT
ATOM      1  C   UNL     1      -4.965  -3.216  -7.567  0.00  0.00    +0.102 A 
ATOM      2  C   UNL     1      -5.970  -3.524  -6.695  0.00  0.00    -0.015 A 
ATOM      3  C   UNL     1      -5.750  -3.426  -5.320  0.00  0.00    +0.076 A 
ATOM      4  C   UNL     1      -6.681  -3.706  -4.202  0.00  0.00    +0.260 A 
ATOM      5  O   UNL     1      -7.820  -4.079  -4.416  0.00  0.00    -0.267 OA
ATOM      6  N   UNL     1      -6.234  -3.536  -2.942  0.00  0.00    -0.312 N 
ATOM      7  H   UNL     1      -6.830  -3.715  -2.199  0.00  0.00    +0.170 HD
ATOM      8  C   UNL     1      -4.968  -3.121  -2.693  0.00  0.00    +0.097 A 
ATOM      9  N   UNL     1      -4.124  -2.862  -3.655  0.00  0.00    -0.228 NA
ATOM     10  C   UNL     1      -4.460  -3.001  -4.931  0.00  0.00    +0.116 A 
ATOM     11  S   UNL     1      -3.625  -2.761  -6.479  0.00  0.00    -0.062 S 
ATOM     12  C   UNL     1      -7.312  -3.969  -7.217  0.00  0.00    +0.046 C 
ENDROOT
BRANCH   1  13
ATOM     13  C   UNL     1      -4.982  -3.251  -9.030  0.00  0.00    +0.346 C 
ATOM     14  O   UNL     1      -5.991  -3.590  -9.619  0.00  0.00    -0.244 OA
BRANCH  13  15
ATOM     15  O   UNL     1      -3.879  -2.906  -9.726  0.00  0.00    -0.461 OA
BRANCH  15  17
ATOM     16  C   UNL     1      -2.631  -2.541 -11.785  0.00  0.00    +0.048 C 
ATOM     17  C   UNL     1      -3.968  -2.963 -11.175  0.00  0.00    +0.229 C 
ENDBRANCH  15  17
ENDBRANCH  13  15
ENDBRANCH   1  13
BRANCH   8  18
ATOM     18  C   UNL     1      -4.523  -2.949  -1.263  0.00  0.00    -0.007 C 
ATOM     19  C   UNL     1      -5.484  -2.003  -0.540  0.00  0.00    -0.006 C 
BRANCH  18  20
ATOM     20  N   UNL     1      -3.163  -2.377  -1.245  0.00  0.00    +0.388 N 
ATOM     21  H   UNL     1      -3.225  -1.355  -1.319  0.00  0.00    -0.085 HD
ATOM     22  H   UNL     1      -2.630  -2.746  -2.041  0.00  0.00    -0.085 HD
BRANCH  20  23
ATOM     23  C   UNL     1      -2.474  -2.733   0.010  0.00  0.00    -0.040 C 
BRANCH  23  24
ATOM     24  C   UNL     1      -1.069  -2.127   0.000  0.00  0.00    +0.210 C 
BRANCH  24  25
ATOM     25  O   UNL     1      -1.165  -0.702   0.009  0.00  0.00    -0.490 OA
BRANCH  25  26
ATOM     26  C   UNL     1       0.002  -0.004   0.002  0.00  0.00    +0.162 A 
ATOM     27  C   UNL     1       1.213  -0.677  -0.013  0.00  0.00    +0.049 A 
ATOM     28  C   UNL     1       2.399   0.033  -0.021  0.00  0.00    +0.004 A 
ATOM     29  C   UNL     1       2.380   1.415  -0.013  0.00  0.00    +0.004 A 
ATOM     30  C   UNL     1       1.175   2.093   0.002  0.00  0.00    +0.049 A 
ATOM     31  C   UNL     1      -0.017   1.387   0.010  0.00  0.00    +0.161 A 
BRANCH  31  32
ATOM     32  O   UNL     1      -1.203   2.053   0.019  0.00  0.00    -0.491 OA
ATOM     33  C   UNL     1      -1.146   3.481   0.026  0.00  0.00    +0.277 C 
ENDBRANCH  31  32
ENDBRANCH  25  26
ENDBRANCH  24  25
ENDBRANCH  23  24
ENDBRANCH  20  23
ENDBRANCH  18  20
ENDBRANCH   8  18
TORSDOF 10
