REMARK  Name = ZINC40675696
REMARK  6 active torsions:
REMARK  status: ('A' for Active; 'I' for Inactive)
REMARK    1  A    between atoms: C_3  and  N_19
REMARK    2  A    between atoms: C_6  and  C_7
REMARK    3  A    between atoms: C_7  and  C_8
REMARK    4  A    between atoms: C_8  and  N_9
REMARK    5  A    between atoms: N_9  and  S_10
REMARK    6  A    between atoms: S_10  and  C_13
REMARK                            x       y       z     vdW  Elec       q    Type
REMARK                         _______ _______ _______ _____ _____    ______ ____
ROOT
ATOM      1  C   UNL     1      -1.746  -1.026  -1.429  0.00  0.00    +0.110 C 
ENDROOT
BRANCH   1   2
ATOM      2  N   UNL     1      -3.006  -1.774  -1.420  0.00  0.00    -0.189 NA
ATOM      3  H   UNL     1      -3.304  -2.213  -0.608  0.00  0.00    +0.148 HD
BRANCH   2   4
ATOM      4  S   UNL     1      -3.921  -1.871  -2.797  0.00  0.00    +0.065 S 
ATOM      5  O   UNL     1      -5.050  -2.674  -2.479  0.00  0.00    -0.153 OA
ATOM      6  O   UNL     1      -4.045  -0.546  -3.296  0.00  0.00    -0.153 OA
BRANCH   4   7
ATOM      7  C   UNL     1      -2.981  -2.770  -3.986  0.00  0.00    +0.143 A 
ATOM      8  C   UNL     1      -2.955  -4.105  -4.220  0.00  0.00    +0.037 A 
ATOM      9  C   UNL     1      -2.131  -4.595  -5.216  0.00  0.00    +0.025 A 
ATOM     10  C   UNL     1      -1.373  -3.725  -5.929  0.00  0.00    +0.057 A 
ATOM     11  S   UNL     1      -1.823  -2.159  -5.199  0.00  0.00    -0.062 S 
ATOM     12 BR   UNL     1      -0.162  -4.078  -7.337  0.00  0.00    -0.043 Br
ENDBRANCH   4   7
ENDBRANCH   2   4
ENDBRANCH   1   2
BRANCH   1  13
ATOM     13  C   UNL     1      -1.294  -0.774   0.011  0.00  0.00    +0.052 C 
BRANCH  13  19
ATOM     14  C   UNL     1      -0.017   1.379   0.010  0.00  0.00    +0.005 A 
ATOM     15  C   UNL     1       1.169   2.087   0.002  0.00  0.00    +0.023 A 
ATOM     16  C   UNL     1       2.381   1.409  -0.013  0.00  0.00    +0.025 A 
ATOM     17  C   UNL     1       2.396   0.020  -0.021  0.00  0.00    +0.023 A 
ATOM     18  C   UNL     1       1.207  -0.682  -0.013  0.00  0.00    +0.005 A 
ATOM     19  C   UNL     1       0.002  -0.004   0.002  0.00  0.00    -0.046 A 
BRANCH  16  20
ATOM     20  N   UNL     1       3.582   2.122  -0.021  0.00  0.00    -0.358 N 
ATOM     21  H   UNL     1       3.570   3.092  -0.016  0.00  0.00    +0.142 HD
ATOM     22  H   UNL     1       4.428   1.647  -0.032  0.00  0.00    +0.142 HD
ENDBRANCH  16  20
ENDBRANCH  13  19
ENDBRANCH   1  13
TORSDOF 6
