REMARK  Name = ZINC62733503
REMARK  11 active torsions:
REMARK  status: ('A' for Active; 'I' for Inactive)
REMARK    1  A    between atoms: C_1  and  C_2
REMARK    2  A    between atoms: C_2  and  C_4
REMARK    3  A    between atoms: C_2  and  C_19
REMARK    4  A    between atoms: C_4  and  O_5
REMARK    5  A    between atoms: O_5  and  C_6
REMARK    6  A    between atoms: C_7  and  C_13
REMARK    7  A    between atoms: C_13  and  N_14
REMARK    8  A    between atoms: N_14  and  C_15
REMARK    9  A    between atoms: C_15  and  C_16
REMARK   10  A    between atoms: C_15  and  C_17
REMARK   11  A    between atoms: C_15  and  C_18
REMARK                            x       y       z     vdW  Elec       q    Type
REMARK                         _______ _______ _______ _____ _____    ______ ____
ROOT
ATOM      1  C   UNL     1       0.699  -0.493   3.553  0.00  0.00    +0.136 A 
ATOM      2  C   UNL     1       0.363  -1.665   4.215  0.00  0.00    -0.022 A 
ATOM      3  C   UNL     1       0.842  -1.898   5.490  0.00  0.00    +0.005 A 
ATOM      4  C   UNL     1       1.655  -0.965   6.106  0.00  0.00    +0.002 A 
ATOM      5  C   UNL     1       1.991   0.204   5.449  0.00  0.00    +0.019 A 
ATOM      6  C   UNL     1       1.519   0.440   4.171  0.00  0.00    +0.060 A 
ATOM      7 BR   UNL     1       1.986   2.035   3.269  0.00  0.00    -0.047 Br
ENDROOT
BRANCH   1   8
ATOM      8  O   UNL     1       0.229  -0.261   2.299  0.00  0.00    -0.490 OA
BRANCH   8   9
ATOM      9  C   UNL     1      -0.965   0.517   2.187  0.00  0.00    +0.241 C 
BRANCH   9  11
ATOM     10  C   UNL     1      -1.570  -0.534   0.002  0.00  0.00    +0.020 C 
ATOM     11  C   UNL     1      -1.260   0.786   0.710  0.00  0.00    +0.109 C 
BRANCH  11  12
ATOM     12  C   UNL     1      -2.447   1.708   0.596  0.00  0.00    +0.217 C 
ATOM     13  O   UNL     1      -3.002   2.109   1.597  0.00  0.00    -0.276 OA
ATOM     14  N   UNL     1      -2.893   2.086  -0.619  0.00  0.00    -0.329 N 
ATOM     15  H   UNL     1      -2.449   1.765  -1.420  0.00  0.00    +0.145 HD
ATOM     16  H   UNL     1      -3.657   2.679  -0.693  0.00  0.00    +0.145 HD
ENDBRANCH  11  12
ENDBRANCH   9  11
ENDBRANCH   8   9
ENDBRANCH   1   8
BRANCH   2  17
ATOM     17  C   UNL     1      -0.523  -2.683   3.545  0.00  0.00    -0.042 C 
BRANCH  17  18
ATOM     18  N   UNL     1       0.267  -3.460   2.580  0.00  0.00    +0.385 N 
ATOM     19  H   UNL     1       0.584  -2.853   1.839  0.00  0.00    -0.085 HD
ATOM     20  H   UNL     1       1.064  -3.865   3.047  0.00  0.00    -0.085 HD
BRANCH  18  21
ATOM     21  C   UNL     1      -0.565  -4.530   2.015  0.00  0.00    -0.077 C 
ATOM     22  C   UNL     1      -1.774  -3.915   1.306  0.00  0.00    -0.011 C 
ATOM     23  C   UNL     1       0.257  -5.339   1.010  0.00  0.00    -0.011 C 
ATOM     24  C   UNL     1      -1.046  -5.450   3.139  0.00  0.00    -0.011 C 
ENDBRANCH  18  21
ENDBRANCH  17  18
ENDBRANCH   2  17
TORSDOF 7
