REMARK  Name = ZINC32697292
REMARK  7 active torsions:
REMARK  status: ('A' for Active; 'I' for Inactive)
REMARK    1  A    between atoms: C_4  and  C_7
REMARK    2  A    between atoms: C_8  and  C_33
REMARK    3  A    between atoms: C_9  and  N_18
REMARK    4  A    between atoms: C_11  and  C_12
REMARK    5  A    between atoms: C_19  and  C_21
REMARK    6  A    between atoms: C_21  and  S_22
REMARK    7  A    between atoms: S_22  and  C_23
REMARK                            x       y       z     vdW  Elec       q    Type
REMARK                         _______ _______ _______ _____ _____    ______ ____
ROOT
ATOM      1  C   UNL     1       1.142   2.334  -0.047  0.00  0.00    +0.047 A 
ATOM      2  C   UNL     1      -0.013   1.432   0.116  0.00  0.00    +0.121 A 
ATOM      3  C   UNL     1      -1.127   2.255   0.130  0.00  0.00    +0.211 A 
ATOM      4  O   UNL     1      -0.720   3.525   0.001  0.00  0.00    -0.439 OA
ATOM      5  C   UNL     1       0.620   3.597  -0.109  0.00  0.00    +0.146 A 
ENDROOT
BRANCH   1   9
ATOM      6  C   UNL     1       5.241   1.238  -0.277  0.00  0.00    +0.000 A 
ATOM      7  C   UNL     1       4.371   0.866  -1.287  0.00  0.00    +0.001 A 
ATOM      8  C   UNL     1       3.039   1.219  -1.218  0.00  0.00    +0.008 A 
ATOM      9  C   UNL     1       2.570   1.952  -0.127  0.00  0.00    -0.013 A 
ATOM     10  C   UNL     1       3.454   2.329   0.884  0.00  0.00    +0.008 A 
ATOM     11  C   UNL     1       4.782   1.964   0.807  0.00  0.00    +0.001 A 
ENDBRANCH   1   9
BRANCH   5  12
ATOM     12  C   UNL     1       1.400   4.839  -0.271  0.00  0.00    +0.018 A 
ATOM     13  C   UNL     1       1.142   5.942   0.547  0.00  0.00    +0.011 A 
ATOM     14  C   UNL     1       1.878   7.098   0.393  0.00  0.00    +0.001 A 
ATOM     15  C   UNL     1       2.864   7.170  -0.575  0.00  0.00    +0.000 A 
ATOM     16  C   UNL     1       3.122   6.084  -1.392  0.00  0.00    +0.001 A 
ATOM     17  C   UNL     1       2.397   4.919  -1.247  0.00  0.00    +0.011 A 
ENDBRANCH   5  12
BRANCH   3  18
ATOM     18  N   UNL     1      -2.439   1.837   0.259  0.00  0.00    -0.255 N 
ATOM     19  C   UNL     1      -3.438   2.742   0.257  0.00  0.00    +0.230 C 
ATOM     20  O   UNL     1      -3.186   3.923   0.143  0.00  0.00    -0.274 OA
ATOM     21  H   UNL     1      -2.667   0.766   0.362  0.00  0.00    +0.158 HD
BRANCH  19  22
ATOM     22  C   UNL     1      -4.867   2.286   0.398  0.00  0.00    +0.172 C 
BRANCH  22  23
ATOM     23  S   UNL     1      -5.965   3.724   0.360  0.00  0.00    -0.094 S 
BRANCH  23  24
ATOM     24  C   UNL     1      -7.525   2.923   0.538  0.00  0.00    +0.126 A 
ATOM     25  C   UNL     1      -8.717   3.668   0.564  0.00  0.00    +0.117 A 
ATOM     26  C   UNL     1      -9.930   2.972   0.697  0.00  0.00    +0.182 A 
ATOM     27  N   UNL     1     -10.917   3.926   0.686  0.00  0.00    -0.216 NA
ATOM     28  H   UNL     1      -8.216   5.728   0.371  0.00  0.00    +0.167 HD
ATOM     29  C   UNL     1     -10.309   5.141   0.571  0.00  0.00    +0.199 A 
ATOM     30  N   UNL     1      -9.019   4.986   0.487  0.00  0.00    -0.341 N 
ATOM     31  N   UNL     1      -9.907   1.647   0.800  0.00  0.00    -0.214 NA
ATOM     32  C   UNL     1      -8.766   0.992   0.778  0.00  0.00    +0.224 A 
ATOM     33  N   UNL     1      -7.602   1.600   0.644  0.00  0.00    -0.227 NA
ENDBRANCH  23  24
ENDBRANCH  22  23
ENDBRANCH  19  22
ENDBRANCH   3  18
BRANCH   2  34
ATOM     34  C   UNL     1       0.011   0.005   0.230  0.00  0.00    +0.105 C 
ATOM     35  N   UNL     1       0.030  -1.128   0.321  0.00  0.00    -0.191 NA
ENDBRANCH   2  34
TORSDOF 7
