REMARK  Name = ZINC49003244
REMARK  4 active torsions:
REMARK  status: ('A' for Active; 'I' for Inactive)
REMARK    1  A    between atoms: C_1  and  C_2
REMARK    2  A    between atoms: C_5  and  N_9
REMARK    3  A    between atoms: C_10  and  C_12
REMARK    4  A    between atoms: C_12  and  N_13
REMARK                            x       y       z     vdW  Elec       q    Type
REMARK                         _______ _______ _______ _____ _____    ______ ____
ROOT
ATOM      1  N   UNL     1      -0.234  -6.827  -2.574  0.00  0.00    +0.388 N 
ATOM      2  C   UNL     1      -0.434  -8.284  -2.574  0.00  0.00    -0.072 C 
ATOM      3  C   UNL     1      -0.845  -8.721  -3.980  0.00  0.00    +0.037 C 
ATOM      4  C   UNL     1       0.134  -8.174  -4.992  0.00  0.00    +0.045 A 
ATOM      5  C   UNL     1       0.995  -7.137  -4.663  0.00  0.00    +0.005 A 
ATOM      6  C   UNL     1       1.880  -6.651  -5.613  0.00  0.00    +0.194 A 
ATOM      7  O   UNL     1       2.728  -5.636  -5.318  0.00  0.00    -0.287 OA
ATOM      8  C   UNL     1       1.875  -7.240  -6.896  0.00  0.00    +0.085 A 
ATOM      9  C   UNL     1       2.745  -6.803  -7.908  0.00  0.00    +0.136 A 
ATOM     10  C   UNL     1       2.708  -7.402  -9.133  0.00  0.00    +0.042 A 
ATOM     11  C   UNL     1       1.820  -8.443  -9.392  0.00  0.00    +0.043 A 
ATOM     12  C   UNL     1       0.962  -8.890  -8.432  0.00  0.00    +0.149 A 
ATOM     13  C   UNL     1       0.970  -8.296  -7.156  0.00  0.00    +0.113 A 
ATOM     14  N   UNL     1       0.143  -8.713  -6.195  0.00  0.00    -0.248 NA
ATOM     15  F   UNL     1       0.107  -9.900  -8.704  0.00  0.00    -0.203 F 
ATOM     16  F   UNL     1       3.611  -5.794  -7.671  0.00  0.00    -0.205 F 
ATOM     17  C   UNL     1       1.006  -6.516  -3.292  0.00  0.00    -0.037 C 
ATOM     18  H   UNL     1      -1.012  -6.378  -3.034  0.00  0.00    -0.081 HD
ENDROOT
BRANCH   1  19
ATOM     19  C   UNL     1      -0.136  -6.343  -1.191  0.00  0.00    +0.019 C 
BRANCH  19  21
ATOM     20  N   UNL     1       0.057  -4.171  -0.023  0.00  0.00    -0.286 N 
ATOM     21  C   UNL     1      -0.042  -4.839  -1.190  0.00  0.00    +0.201 C 
ATOM     22  O   UNL     1      -0.055  -4.230  -2.238  0.00  0.00    -0.278 OA
ATOM     23  H   UNL     1       0.149  -4.660   0.809  0.00  0.00    +0.155 HD
BRANCH  20  28
ATOM     24  C   UNL     1      -0.064   1.502   0.016  0.00  0.00    +0.044 C 
ATOM     25  C   UNL     1      -0.031  -0.005   0.006  0.00  0.00    -0.049 A 
ATOM     26  C   UNL     1      -0.622  -0.701  -1.033  0.00  0.00    +0.005 A 
ATOM     27  C   UNL     1      -0.594  -2.082  -1.045  0.00  0.00    +0.025 A 
ATOM     28  C   UNL     1       0.028  -2.772  -0.014  0.00  0.00    +0.052 A 
ATOM     29  C   UNL     1       0.621  -2.070   1.029  0.00  0.00    +0.062 A 
ATOM     30  C   UNL     1       0.595  -0.688   1.032  0.00  0.00    +0.025 A 
ATOM     31 CL   UNL     1       1.401  -2.928   2.321  0.00  0.00    -0.082 Cl
ENDBRANCH  20  28
ENDBRANCH  19  21
ENDBRANCH   1  19
TORSDOF 3
