REMARK  Name = ZINC42892203
REMARK  5 active torsions:
REMARK  status: ('A' for Active; 'I' for Inactive)
REMARK    1  A    between atoms: C_1  and  O_2
REMARK    2  A    between atoms: O_2  and  C_3
REMARK    3  A    between atoms: C_8  and  C_9
REMARK    4  A    between atoms: C_9  and  C_11
REMARK    5  A    between atoms: C_9  and  O_20
REMARK                            x       y       z     vdW  Elec       q    Type
REMARK                         _______ _______ _______ _____ _____    ______ ____
ROOT
ATOM      1  C   UNL     1       0.019  -2.829  -0.014  0.00  0.00    +0.179 C 
ENDROOT
BRANCH   1   2
ATOM      2  C   UNL     1       0.429  -3.089  -1.440  0.00  0.00    +0.000 A 
ATOM      3  C   UNL     1      -0.424  -3.672  -2.295  0.00  0.00    +0.053 A 
ATOM      4  S   UNL     1       0.503  -3.759  -3.815  0.00  0.00    -0.096 S 
ATOM      5  C   UNL     1       2.012  -3.009  -3.260  0.00  0.00    +0.020 A 
ATOM      6  C   UNL     1       1.753  -2.705  -1.906  0.00  0.00    -0.005 A 
ATOM      7  C   UNL     1       2.799  -2.081  -1.186  0.00  0.00    +0.009 A 
ATOM      8  C   UNL     1       3.983  -1.793  -1.790  0.00  0.00    +0.001 A 
ATOM      9  C   UNL     1       4.210  -2.098  -3.125  0.00  0.00    +0.001 A 
ATOM     10  C   UNL     1       3.218  -2.717  -3.860  0.00  0.00    +0.015 A 
ENDBRANCH   1   2
BRANCH   1  16
ATOM     11  C   UNL     1      -0.023  -0.334   0.240  0.00  0.00    +0.126 A 
ATOM     12  C   UNL     1      -0.708   0.871   0.305  0.00  0.00    +0.047 A 
ATOM     13  C   UNL     1      -2.085   0.888   0.201  0.00  0.00    +0.019 A 
ATOM     14  C   UNL     1      -2.782  -0.296   0.031  0.00  0.00    +0.018 A 
ATOM     15  C   UNL     1      -2.101  -1.498  -0.034  0.00  0.00    +0.025 A 
ATOM     16  C   UNL     1      -0.723  -1.519   0.064  0.00  0.00    +0.028 A 
ATOM     17 BR   UNL     1      -4.667  -0.269  -0.112  0.00  0.00    -0.050 Br
BRANCH  11  19
ATOM     18  C   UNL     1       1.986   0.904   0.523  0.00  0.00    +0.277 C 
ATOM     19  O   UNL     1       1.332  -0.353   0.343  0.00  0.00    -0.495 OA
ENDBRANCH  11  19
ENDBRANCH   1  16
BRANCH   1  20
ATOM     20  O   UNL     1      -0.831  -3.885   0.438  0.00  0.00    -0.382 OA
ATOM     21  H   UNL     1      -1.642  -3.985  -0.079  0.00  0.00    +0.211 HD
ENDBRANCH   1  20
TORSDOF 4
