REMARK  Name = ZINC19800562
REMARK  4 active torsions:
REMARK  status: ('A' for Active; 'I' for Inactive)
REMARK    1  A    between atoms: C_1  and  C_2
REMARK    2  A    between atoms: C_2  and  O_3
REMARK    3  A    between atoms: O_3  and  C_4
REMARK    4  A    between atoms: C_7  and  C_10
REMARK                            x       y       z     vdW  Elec       q    Type
REMARK                         _______ _______ _______ _____ _____    ______ ____
ROOT
ATOM      1  C   UNL     1       1.361   3.971  -2.940  0.00  0.00    +0.068 C 
ATOM      2  N   UNL     1       0.867   3.020  -2.216  0.00  0.00    -0.184 NA
ATOM      3  N   UNL     1       1.694   2.627  -1.180  0.00  0.00    -0.195 N 
ATOM      4  C   UNL     1       3.023   3.258  -1.367  0.00  0.00    +0.137 C 
ATOM      5  C   UNL     1       2.742   4.329  -2.429  0.00  0.00    +0.086 C 
ATOM      6  C   UNL     1       3.401   3.860  -0.039  0.00  0.00    +0.017 A 
ATOM      7  C   UNL     1       4.427   4.785   0.012  0.00  0.00    +0.009 A 
ATOM      8  C   UNL     1       4.830   5.315   1.223  0.00  0.00    +0.001 A 
ATOM      9  C   UNL     1       4.200   4.918   2.388  0.00  0.00    +0.004 A 
ATOM     10  C   UNL     1       3.169   4.006   2.341  0.00  0.00    +0.046 A 
ATOM     11  C   UNL     1       2.750   3.472   1.122  0.00  0.00    +0.129 A 
ATOM     12  O   UNL     1       1.712   2.595   1.149  0.00  0.00    -0.454 OA
ATOM     13  C   UNL     1       1.423   1.805  -0.002  0.00  0.00    +0.298 C 
ATOM     14  C   UNL     1       2.222   0.543  -0.016  0.00  0.00    +0.047 A 
ATOM     15  C   UNL     1       3.582   0.319  -0.030  0.00  0.00    +0.027 A 
ATOM     16  C   UNL     1       4.003  -1.006  -0.037  0.00  0.00    +0.018 A 
ATOM     17  C   UNL     1       3.098  -2.049  -0.031  0.00  0.00    +0.017 A 
ATOM     18  C   UNL     1       1.729  -1.831  -0.019  0.00  0.00    +0.025 A 
ATOM     19  C   UNL     1       1.292  -0.505  -0.011  0.00  0.00    +0.043 A 
ATOM     20  N   UNL     1       0.002  -0.004   0.002  0.00  0.00    -0.280 N 
ATOM     21  C   UNL     1      -0.016   1.346   0.009  0.00  0.00    +0.287 C 
ATOM     22  O   UNL     1      -1.000   2.055   0.018  0.00  0.00    -0.269 OA
ATOM     23 BR   UNL     1       5.855  -1.389  -0.054  0.00  0.00    -0.050 Br
ATOM     24  H   UNL     1      -0.856  -0.693   0.005  0.00  0.00    +0.155 HD
ENDROOT
BRANCH   1  28
ATOM     25  C   UNL     1      -0.585   5.806  -6.237  0.00  0.00    +0.121 A 
ATOM     26  C   UNL     1      -1.221   4.790  -5.536  0.00  0.00    +0.046 A 
ATOM     27  C   UNL     1      -0.594   4.192  -4.465  0.00  0.00    +0.013 A 
ATOM     28  C   UNL     1       0.685   4.608  -4.085  0.00  0.00    -0.002 A 
ATOM     29  C   UNL     1       1.319   5.634  -4.791  0.00  0.00    +0.013 A 
ATOM     30  C   UNL     1       0.686   6.223  -5.864  0.00  0.00    +0.046 A 
BRANCH  25  31
ATOM     31  O   UNL     1      -1.208   6.393  -7.293  0.00  0.00    -0.492 OA
BRANCH  31  33
ATOM     32  C   UNL     1      -1.351   7.968  -9.121  0.00  0.00    +0.048 C 
ATOM     33  C   UNL     1      -0.497   7.431  -7.970  0.00  0.00    +0.225 C 
ENDBRANCH  31  33
ENDBRANCH  25  31
ENDBRANCH   1  28
TORSDOF 3
