REMARK  Name = ZINC39711026
REMARK  10 active torsions:
REMARK  status: ('A' for Active; 'I' for Inactive)
REMARK    1  A    between atoms: C_1  and  C_2
REMARK    2  A    between atoms: C_4  and  C_33
REMARK    3  A    between atoms: C_9  and  C_14
REMARK    4  A    between atoms: C_14  and  C_16
REMARK    5  A    between atoms: C_14  and  N_26
REMARK    6  A    between atoms: N_21  and  C_22
REMARK    7  A    between atoms: C_22  and  C_23
REMARK    8  A    between atoms: C_22  and  C_24
REMARK    9  A    between atoms: C_22  and  C_25
REMARK   10  A    between atoms: C_29  and  C_32
REMARK                            x       y       z     vdW  Elec       q    Type
REMARK                         _______ _______ _______ _____ _____    ______ ____
ROOT
ATOM      1  C   UNL     1       1.147  -4.870   2.687  0.00  0.00    -0.011 C 
ENDROOT
BRANCH   1  10
ATOM      2  C   UNL     1      -0.083  -5.642  -4.305  0.00  0.00    +0.044 C 
ATOM      3  C   UNL     1      -0.505  -5.620  -2.859  0.00  0.00    -0.050 A 
ATOM      4  C   UNL     1      -1.658  -6.305  -2.473  0.00  0.00    +0.008 A 
ATOM      5  C   UNL     1      -2.100  -6.331  -1.189  0.00  0.00    -0.028 A 
ATOM      6  C   UNL     1      -1.396  -5.653  -0.177  0.00  0.00    +0.043 A 
ATOM      7  N   UNL     1      -1.839  -5.685   1.079  0.00  0.00    -0.284 N 
ATOM      8  C   UNL     1      -1.226  -5.070   2.077  0.00  0.00    +0.223 C 
ATOM      9  O   UNL     1      -1.678  -5.136   3.205  0.00  0.00    -0.275 OA
ATOM     10  C   UNL     1       0.038  -4.284   1.811  0.00  0.00    +0.088 C 
ATOM     11  C   UNL     1       0.546  -4.244   0.383  0.00  0.00    -0.006 C 
ATOM     12  C   UNL     1      -0.175  -4.920  -0.556  0.00  0.00    -0.007 A 
ATOM     13  C   UNL     1       0.247  -4.938  -1.957  0.00  0.00    +0.012 A 
ATOM     14  C   UNL     1      -3.354  -7.093  -0.845  0.00  0.00    +0.046 C 
ATOM     15  H   UNL     1      -2.648  -6.184   1.271  0.00  0.00    +0.155 HD
ENDBRANCH   1  10
BRANCH   1  16
ATOM     16  N   UNL     1       0.957  -6.321   2.814  0.00  0.00    +0.385 N 
ATOM     17  C   UNL     1       1.135  -6.953   1.501  0.00  0.00    -0.078 C 
ATOM     18  C   UNL     1       0.858  -8.454   1.612  0.00  0.00    -0.016 C 
ATOM     19  C   UNL     1       1.834  -9.075   2.615  0.00  0.00    -0.018 C 
ATOM     20  C   UNL     1       1.692  -8.358   3.961  0.00  0.00    -0.016 C 
ATOM     21  C   UNL     1       1.938  -6.860   3.763  0.00  0.00    -0.078 C 
ATOM     22  C   UNL     1       1.512 -10.560   2.790  0.00  0.00    +0.007 C 
ATOM     23  H   UNL     1       0.025  -6.508   3.152  0.00  0.00    -0.081 HD
ENDBRANCH   1  16
BRANCH   1  24
ATOM     24  C   UNL     1       1.096  -4.225   4.074  0.00  0.00    +0.183 C 
ATOM     25  N   UNL     1      -0.232  -4.414   4.688  0.00  0.00    -0.229 N 
ATOM     26  N   UNL     1      -0.751  -3.128   4.881  0.00  0.00    -0.064 NA
ATOM     27  N   UNL     1       0.014  -2.247   4.500  0.00  0.00    -0.061 NA
ATOM     28  N   UNL     1       1.211  -2.758   3.972  0.00  0.00    -0.211 N 
ATOM     29  H   UNL     1      -0.658  -5.256   4.912  0.00  0.00    +0.172 HD
BRANCH  28  30
ATOM     30  C   UNL     1       2.340  -1.996   3.433  0.00  0.00    +0.047 C 
ATOM     31  C   UNL     1       2.462  -2.261   1.931  0.00  0.00    +0.033 C 
ATOM     32  C   UNL     1       2.107  -0.503   3.670  0.00  0.00    +0.033 C 
ATOM     33  C   UNL     1       3.629  -2.429   4.134  0.00  0.00    +0.033 C 
ENDBRANCH  28  30
ENDBRANCH   1  24
TORSDOF 4
