REMARK  Name = ZINC35704695
REMARK  15 active torsions:
REMARK  status: ('A' for Active; 'I' for Inactive)
REMARK    1  A    between atoms: C_1  and  C_2
REMARK    2  A    between atoms: C_2  and  C_3
REMARK    3  A    between atoms: C_2  and  O_4
REMARK    4  A    between atoms: O_4  and  C_5
REMARK    5  A    between atoms: C_5  and  C_7
REMARK    6  A    between atoms: C_8  and  C_33
REMARK    7  A    between atoms: C_12  and  C_14
REMARK    8  A    between atoms: C_17  and  O_20
REMARK    9  A    between atoms: O_20  and  C_21
REMARK   10  A    between atoms: C_22  and  C_25
REMARK   11  A    between atoms: C_26  and  N_28
REMARK   12  A    between atoms: N_28  and  C_29
REMARK   13  A    between atoms: C_29  and  C_30
REMARK   14  A    between atoms: C_30  and  O_31
REMARK   15  A    between atoms: O_31  and  C_32
REMARK                            x       y       z     vdW  Elec       q    Type
REMARK                         _______ _______ _______ _____ _____    ______ ____
ROOT
ATOM      1  C   UNL     1      -3.636  -1.172  -1.545  0.00  0.00    +0.091 C 
ATOM      2  C   UNL     1      -4.454  -1.391  -2.637  0.00  0.00    +0.158 C 
ATOM      3  N   UNL     1      -5.677  -1.867  -2.473  0.00  0.00    -0.220 NA
ATOM      4  C   UNL     1      -6.217  -2.168  -1.310  0.00  0.00    +0.166 C 
ATOM      5  N   UNL     1      -5.575  -2.025  -0.111  0.00  0.00    -0.267 N 
ATOM      6  C   UNL     1      -4.185  -1.500  -0.175  0.00  0.00    +0.150 C 
ATOM      7  C   UNL     1      -6.276  -2.386   1.022  0.00  0.00    +0.048 C 
ATOM      8  C   UNL     1      -7.535  -2.849   0.860  0.00  0.00    +0.072 C 
ATOM      9  S   UNL     1      -7.730  -2.774  -0.910  0.00  0.00    -0.060 S 
ENDROOT
BRANCH   6  10
ATOM     10  C   UNL     1      -4.128  -0.247   0.660  0.00  0.00    -0.022 A 
ATOM     11  C   UNL     1      -5.148   0.684   0.578  0.00  0.00    +0.009 A 
ATOM     12  C   UNL     1      -5.098   1.833   1.342  0.00  0.00    +0.046 A 
ATOM     13  C   UNL     1      -4.025   2.054   2.193  0.00  0.00    +0.120 A 
ATOM     14  C   UNL     1      -3.004   1.118   2.274  0.00  0.00    +0.046 A 
ATOM     15  C   UNL     1      -3.060  -0.033   1.511  0.00  0.00    +0.009 A 
BRANCH  13  16
ATOM     16  O   UNL     1      -3.974   3.184   2.945  0.00  0.00    -0.495 OA
ATOM     17  C   UNL     1      -2.839   3.345   3.799  0.00  0.00    +0.277 C 
ENDBRANCH  13  16
ENDBRANCH   6  10
BRANCH   2  18
ATOM     18  C   UNL     1      -3.950  -1.084  -4.024  0.00  0.00    +0.435 C 
ATOM     19  F   UNL     1      -2.591  -0.754  -3.964  0.00  0.00    -0.164 F 
ATOM     20  F   UNL     1      -4.122  -2.207  -4.841  0.00  0.00    -0.164 F 
ATOM     21  F   UNL     1      -4.668  -0.007  -4.554  0.00  0.00    -0.164 F 
ENDBRANCH   2  18
BRANCH   7  22
ATOM     22  C   UNL     1      -5.674  -2.270   2.358  0.00  0.00    +0.091 C 
ATOM     23  C   UNL     1      -6.419  -2.505   3.455  0.00  0.00    +0.239 C 
ATOM     24  O   UNL     1      -7.691  -2.954   3.327  0.00  0.00    -0.271 OA
BRANCH  23  25
ATOM     25  N   UNL     1      -5.886  -2.287   4.714  0.00  0.00    -0.310 N 
ATOM     26  H   UNL     1      -5.003  -1.897   4.806  0.00  0.00    +0.149 HD
BRANCH  25  27
ATOM     27  C   UNL     1      -6.655  -2.646   5.908  0.00  0.00    +0.132 C 
BRANCH  27  28
ATOM     28  C   UNL     1      -5.899  -2.191   7.158  0.00  0.00    +0.178 C 
BRANCH  28  29
ATOM     29  O   UNL     1      -5.819  -0.765   7.174  0.00  0.00    -0.381 OA
ATOM     30  C   UNL     1      -5.128  -0.234   8.307  0.00  0.00    +0.194 C 
ENDBRANCH  28  29
ENDBRANCH  27  28
ENDBRANCH  25  27
ENDBRANCH  23  25
ENDBRANCH   7  22
BRANCH   1  31
ATOM     31  C   UNL     1      -2.339  -0.668  -1.703  0.00  0.00    +0.340 C 
ATOM     32  O   UNL     1      -1.380  -1.415  -1.613  0.00  0.00    -0.245 OA
BRANCH  31  33
ATOM     33  O   UNL     1      -2.150   0.646  -1.955  0.00  0.00    -0.459 OA
BRANCH  33  35
ATOM     34  C   UNL     1      -0.390   0.989  -3.574  0.00  0.00    +0.052 C 
ATOM     35  C   UNL     1      -0.800   1.091  -2.104  0.00  0.00    +0.171 C 
ATOM     36  C   UNL     1      -0.689   2.546  -1.643  0.00  0.00    +0.052 C 
ENDBRANCH  33  35
ENDBRANCH  31  33
ENDBRANCH   1  31
TORSDOF 11
