REMARK  Name = ZINC43691170
REMARK  5 active torsions:
REMARK  status: ('A' for Active; 'I' for Inactive)
REMARK    1  A    between atoms: N_7  and  C_11
REMARK    2  A    between atoms: C_11  and  C_12
REMARK    3  A    between atoms: C_14  and  C_17
REMARK    4  A    between atoms: C_18  and  C_19
REMARK    5  A    between atoms: C_19  and  N_20
REMARK                            x       y       z     vdW  Elec       q    Type
REMARK                         _______ _______ _______ _____ _____    ______ ____
ROOT
ATOM      1  C   UNL     1       0.295  -3.540  -1.440  0.00  0.00    +0.011 A 
ATOM      2  C   UNL     1       0.917  -4.427  -2.248  0.00  0.00    +0.029 A 
ATOM      3  C   UNL     1       0.430  -4.622  -3.539  0.00  0.00    +0.032 A 
ATOM      4  C   UNL     1      -0.665  -3.904  -3.937  0.00  0.00    +0.062 A 
ATOM      5  S   UNL     1      -1.027  -2.941  -2.479  0.00  0.00    -0.099 S 
ENDROOT
BRANCH   3   6
ATOM      6  C   UNL     1       1.060  -5.552  -4.427  0.00  0.00    -0.068 C 
ATOM      7  C   UNL     1       1.576  -6.314  -5.156  0.00  0.00    -0.117 C 
BRANCH   7   8
ATOM      8  C   UNL     1       2.224  -7.270  -6.069  0.00  0.00    +0.005 C 
BRANCH   8   9
ATOM      9  N   UNL     1       1.513  -7.278  -7.354  0.00  0.00    +0.385 N 
ATOM     10  H   UNL     1       1.957  -7.933  -7.980  0.00  0.00    -0.089 HD
ATOM     11  H   UNL     1       0.553  -7.552  -7.206  0.00  0.00    -0.089 HD
ATOM     12  H   UNL     1       1.540  -6.354  -7.759  0.00  0.00    -0.089 HD
ENDBRANCH   8   9
ENDBRANCH   7   8
ENDBRANCH   3   6
BRANCH   1  13
ATOM     13  C   UNL     1       0.628  -3.160  -0.020  0.00  0.00    +0.171 C 
BRANCH  13  20
ATOM     14  C   UNL     1      -0.017   1.377   0.010  0.00  0.00    +0.002 A 
ATOM     15  C   UNL     1       1.170   2.089   0.002  0.00  0.00    +0.004 A 
ATOM     16  C   UNL     1       2.381   1.425  -0.013  0.00  0.00    +0.048 A 
ATOM     17  C   UNL     1       2.410   0.040  -0.021  0.00  0.00    +0.157 A 
ATOM     18  C   UNL     1       1.214  -0.677  -0.013  0.00  0.00    +0.091 A 
ATOM     19  C   UNL     1       0.002  -0.004   0.002  0.00  0.00    +0.030 A 
ATOM     20  N   UNL     1       1.559  -2.028  -0.024  0.00  0.00    -0.269 N 
ATOM     21  C   UNL     1       2.904  -2.103  -0.037  0.00  0.00    +0.422 A 
ATOM     22  O   UNL     1       3.550  -3.133  -0.049  0.00  0.00    -0.223 OA
ATOM     23  O   UNL     1       3.421  -0.864  -0.035  0.00  0.00    -0.407 OA
ENDBRANCH  13  20
ENDBRANCH   1  13
TORSDOF 5
