REMARK  Name = ZINC59019246
REMARK  8 active torsions:
REMARK  status: ('A' for Active; 'I' for Inactive)
REMARK    1  A    between atoms: C_4  and  C_7
REMARK    2  A    between atoms: C_7  and  O_8
REMARK    3  A    between atoms: O_8  and  C_9
REMARK    4  A    between atoms: C_14  and  C_15
REMARK    5  A    between atoms: N_16  and  N_17
REMARK    6  A    between atoms: C_20  and  S_23
REMARK    7  A    between atoms: S_23  and  C_24
REMARK    8  A    between atoms: C_24  and  C_25
REMARK                            x       y       z     vdW  Elec       q    Type
REMARK                         _______ _______ _______ _____ _____    ______ ____
ROOT
ATOM      1  N   UNL     1       3.183  -0.407   4.916  0.00  0.00    -0.205 N 
ATOM      2  C   UNL     1       1.984   0.263   4.758  0.00  0.00    +0.232 A 
ATOM      3  N   UNL     1       1.415   0.573   3.612  0.00  0.00    -0.186 NA
ATOM      4  C   UNL     1       0.267   1.219   3.840  0.00  0.00    +0.211 A 
ATOM      5  N   UNL     1       0.088   1.327   5.135  0.00  0.00    -0.144 NA
ATOM      6  N   UNL     1       1.188   0.709   5.753  0.00  0.00    -0.245 N 
ATOM      7  H   UNL     1       3.520  -0.595   5.806  0.00  0.00    +0.177 HD
ATOM      8  H   UNL     1       1.345   0.622   6.706  0.00  0.00    +0.192 HD
ENDROOT
BRANCH   1  10
ATOM      9  C   UNL     1       5.036  -1.445   3.938  0.00  0.00    +0.142 C 
ATOM     10  N   UNL     1       3.910  -0.815   3.790  0.00  0.00    -0.187 NA
BRANCH   9  16
ATOM     11  C   UNL     1       5.318  -1.605   1.466  0.00  0.00    +0.130 A 
ATOM     12  C   UNL     1       6.048  -2.007   0.360  0.00  0.00    +0.046 A 
ATOM     13  C   UNL     1       7.246  -2.677   0.526  0.00  0.00    +0.004 A 
ATOM     14  C   UNL     1       7.725  -2.950   1.796  0.00  0.00    +0.001 A 
ATOM     15  C   UNL     1       7.011  -2.557   2.909  0.00  0.00    +0.013 A 
ATOM     16  C   UNL     1       5.802  -1.874   2.754  0.00  0.00    +0.036 A 
BRANCH  11  17
ATOM     17  O   UNL     1       4.141  -0.946   1.304  0.00  0.00    -0.487 OA
BRANCH  17  18
ATOM     18  C   UNL     1       3.711  -0.707  -0.038  0.00  0.00    +0.264 C 
BRANCH  18  22
ATOM     19  C   UNL     1      -0.017   1.378   0.010  0.00  0.00    +0.000 A 
ATOM     20  C   UNL     1       1.171   2.086   0.002  0.00  0.00    +0.000 A 
ATOM     21  C   UNL     1       2.377   1.411  -0.013  0.00  0.00    +0.007 A 
ATOM     22  C   UNL     1       2.396   0.029  -0.020  0.00  0.00    -0.010 A 
ATOM     23  C   UNL     1       1.208  -0.679  -0.012  0.00  0.00    +0.007 A 
ATOM     24  C   UNL     1       0.002  -0.004   0.002  0.00  0.00    +0.000 A 
ENDBRANCH  18  22
ENDBRANCH  17  18
ENDBRANCH  11  17
ENDBRANCH   9  16
ENDBRANCH   1  10
BRANCH   4  25
ATOM     25  S   UNL     1      -0.830   1.825   2.601  0.00  0.00    -0.075 S 
BRANCH  25  26
ATOM     26  C   UNL     1      -2.179   2.587   3.545  0.00  0.00    +0.173 C 
BRANCH  26  27
ATOM     27  C   UNL     1      -3.201   3.153   2.592  0.00  0.00    +0.229 C 
ATOM     28  O   UNL     1      -3.035   3.053   1.395  0.00  0.00    -0.275 OA
ATOM     29  N   UNL     1      -4.298   3.772   3.071  0.00  0.00    -0.264 N 
ATOM     30  C   UNL     1      -5.241   4.294   2.192  0.00  0.00    +0.164 A 
ATOM     31  N   UNL     1      -5.231   4.274   0.877  0.00  0.00    -0.233 NA
ATOM     32  C   UNL     1      -6.211   4.819   0.179  0.00  0.00    +0.120 A 
ATOM     33  C   UNL     1      -7.218   5.396   0.879  0.00  0.00    +0.068 A 
ATOM     34  S   UNL     1      -6.674   5.099   2.553  0.00  0.00    -0.061 S 
ATOM     35  H   UNL     1      -4.431   3.852   4.028  0.00  0.00    +0.157 HD
ENDBRANCH  26  27
ENDBRANCH  25  26
ENDBRANCH   4  25
TORSDOF 8
