REMARK  Name = ZINC13683993
REMARK  5 active torsions:
REMARK  status: ('A' for Active; 'I' for Inactive)
REMARK    1  A    between atoms: C_1  and  C_2
REMARK    2  A    between atoms: C_5  and  N_8
REMARK    3  A    between atoms: N_10  and  N_11
REMARK    4  A    between atoms: C_12  and  C_13
REMARK    5  A    between atoms: C_12  and  C_14
REMARK                            x       y       z     vdW  Elec       q    Type
REMARK                         _______ _______ _______ _____ _____    ______ ____
ROOT
ATOM      1  N   UNL     1       0.059  -4.169  -0.021  0.00  0.00    -0.294 N 
ATOM      2  C   UNL     1       0.177  -4.859   1.156  0.00  0.00    +0.163 C 
ATOM      3  N   UNL     1       0.298  -6.221   1.141  0.00  0.00    -0.258 N 
ATOM      4  S   UNL     1       0.174  -4.041   2.601  0.00  0.00    -0.014 SA
ATOM      5  H   UNL     1      -0.297  -4.611  -0.808  0.00  0.00    +0.154 HD
ATOM      6  H   UNL     1       0.300  -6.699   0.297  0.00  0.00    +0.191 HD
ENDROOT
BRANCH   1  11
ATOM      7  C   UNL     1       1.647   1.270  -0.295  0.00  0.00    +0.044 C 
ATOM      8  C   UNL     1       1.225  -0.175  -0.222  0.00  0.00    -0.050 A 
ATOM      9  C   UNL     1       1.917  -1.056   0.588  0.00  0.00    +0.005 A 
ATOM     10  C   UNL     1       1.533  -2.381   0.657  0.00  0.00    +0.023 A 
ATOM     11  C   UNL     1       0.450  -2.828  -0.088  0.00  0.00    +0.033 A 
ATOM     12  C   UNL     1      -0.244  -1.941  -0.901  0.00  0.00    +0.023 A 
ATOM     13  C   UNL     1       0.143  -0.616  -0.962  0.00  0.00    +0.005 A 
ENDBRANCH   1  11
BRANCH   3  14
ATOM     14  N   UNL     1       0.420  -6.927   2.345  0.00  0.00    -0.174 NA
ATOM     15  C   UNL     1       0.535  -8.222   2.331  0.00  0.00    +0.100 C 
ATOM     16  C   UNL     1       0.538  -8.964   1.020  0.00  0.00    +0.071 C 
BRANCH  15  17
ATOM     17  C   UNL     1       0.662  -8.961   3.592  0.00  0.00    +0.152 A 
ATOM     18  C   UNL     1       0.666  -8.400   4.830  0.00  0.00    +0.059 A 
ATOM     19  C   UNL     1       0.813  -9.507   5.776  0.00  0.00    +0.021 A 
ATOM     20  C   UNL     1       0.885  -9.595   7.168  0.00  0.00    +0.011 A 
ATOM     21  C   UNL     1       1.027 -10.818   7.763  0.00  0.00    +0.001 A 
ATOM     22  C   UNL     1       1.100 -11.970   6.993  0.00  0.00    +0.004 A 
ATOM     23  C   UNL     1       1.030 -11.903   5.617  0.00  0.00    +0.047 A 
ATOM     24  C   UNL     1       0.886 -10.672   4.990  0.00  0.00    +0.136 A 
ATOM     25  O   UNL     1       0.786 -10.300   3.698  0.00  0.00    -0.454 OA
ENDBRANCH  15  17
ENDBRANCH   3  14
TORSDOF 3
