REMARK  Name = ZINC38681986
REMARK  15 active torsions:
REMARK  status: ('A' for Active; 'I' for Inactive)
REMARK    1  A    between atoms: C_1  and  C_2
REMARK    2  A    between atoms: C_2  and  C_3
REMARK    3  A    between atoms: C_3  and  C_4
REMARK    4  A    between atoms: C_4  and  C_5
REMARK    5  A    between atoms: C_5  and  C_6
REMARK    6  A    between atoms: C_6  and  O_7
REMARK    7  A    between atoms: O_7  and  C_8
REMARK    8  A    between atoms: C_11  and  C_16
REMARK    9  A    between atoms: C_13  and  O_14
REMARK   10  A    between atoms: O_14  and  C_15
REMARK   11  A    between atoms: C_21  and  O_30
REMARK   12  A    between atoms: C_25  and  N_29
REMARK   13  A    between atoms: C_26  and  C_27
REMARK   14  A    between atoms: O_30  and  C_31
REMARK   15  A    between atoms: C_31  and  C_33
REMARK                            x       y       z     vdW  Elec       q    Type
REMARK                         _______ _______ _______ _____ _____    ______ ____
ROOT
ATOM      1  C   UNL     1       2.658 -10.134   4.159  0.00  0.00    +0.098 C 
ATOM      2  C   UNL     1       1.282 -10.739   4.247  0.00  0.00    +0.008 A 
ATOM      3  C   UNL     1       0.603 -10.713   5.452  0.00  0.00    +0.012 A 
ATOM      4  C   UNL     1      -0.659 -11.263   5.552  0.00  0.00    +0.047 A 
ATOM      5  C   UNL     1      -1.252 -11.845   4.440  0.00  0.00    +0.135 A 
ATOM      6  C   UNL     1      -0.575 -11.872   3.232  0.00  0.00    +0.093 A 
ATOM      7  C   UNL     1       0.695 -11.318   3.133  0.00  0.00    +0.138 A 
ATOM      8  O   UNL     1       1.344 -11.353   1.943  0.00  0.00    -0.441 OA
ATOM      9  C   UNL     1       2.677 -11.190   1.903  0.00  0.00    +0.199 C 
ATOM     10  C   UNL     1       3.357 -10.619   2.920  0.00  0.00    +0.098 C 
ENDROOT
BRANCH   1  14
ATOM     11  C   UNL     1       2.322  -5.873   4.017  0.00  0.00    +0.162 A 
ATOM     12  C   UNL     1       1.736  -6.650   3.031  0.00  0.00    +0.050 A 
ATOM     13  C   UNL     1       1.846  -8.027   3.079  0.00  0.00    +0.008 A 
ATOM     14  C   UNL     1       2.541  -8.632   4.111  0.00  0.00    -0.031 A 
ATOM     15  C   UNL     1       3.128  -7.862   5.097  0.00  0.00    +0.054 A 
ATOM     16  C   UNL     1       3.026  -6.481   5.051  0.00  0.00    +0.162 A 
BRANCH  16  17
ATOM     17  O   UNL     1       3.608  -5.722   6.018  0.00  0.00    -0.491 OA
ATOM     18  C   UNL     1       4.315  -6.415   7.049  0.00  0.00    +0.277 C 
ENDBRANCH  16  17
BRANCH  11  19
ATOM     19  O   UNL     1       2.215  -4.518   3.970  0.00  0.00    -0.488 OA
BRANCH  19  20
ATOM     20  C   UNL     1       1.477  -3.963   2.879  0.00  0.00    +0.229 C 
BRANCH  20  21
ATOM     21  C   UNL     1       1.466  -2.437   2.995  0.00  0.00    +0.041 C 
BRANCH  21  22
ATOM     22  C   UNL     1       0.676  -1.843   1.827  0.00  0.00    +0.003 C 
BRANCH  22  23
ATOM     23  C   UNL     1       0.664  -0.318   1.943  0.00  0.00    -0.000 C 
BRANCH  23  25
ATOM     24  C   UNL     1      -0.137   1.802   0.892  0.00  0.00    +0.004 C 
ATOM     25  C   UNL     1      -0.125   0.277   0.775  0.00  0.00    -0.003 C 
ENDBRANCH  23  25
ENDBRANCH  22  23
ENDBRANCH  21  22
ENDBRANCH  20  21
ENDBRANCH  19  20
ENDBRANCH  11  19
ENDBRANCH   1  14
BRANCH   9  26
ATOM     26  N   UNL     1       3.366 -11.616   0.794  0.00  0.00    -0.328 N 
ATOM     27  H   UNL     1       2.890 -12.027   0.056  0.00  0.00    +0.145 HD
ATOM     28  H   UNL     1       4.329 -11.505   0.750  0.00  0.00    +0.145 HD
ENDBRANCH   9  26
BRANCH  10  29
ATOM     29  C   UNL     1       4.778 -10.474   2.814  0.00  0.00    +0.101 C 
ATOM     30  N   UNL     1       5.905 -10.358   2.730  0.00  0.00    -0.191 NA
ENDBRANCH  10  29
BRANCH   5  31
ATOM     31  O   UNL     1      -2.495 -12.387   4.536  0.00  0.00    -0.422 OA
BRANCH  31  32
ATOM     32  C   UNL     1      -2.610 -13.728   4.449  0.00  0.00    +0.351 C 
ATOM     33  O   UNL     1      -1.612 -14.422   4.394  0.00  0.00    -0.244 OA
BRANCH  32  34
ATOM     34  C   UNL     1      -3.935 -14.349   4.420  0.00  0.00    +0.097 A 
ATOM     35  C   UNL     1      -4.269 -15.693   4.340  0.00  0.00    +0.022 A 
ATOM     36  C   UNL     1      -5.614 -15.974   4.333  0.00  0.00    +0.008 A 
ATOM     37  C   UNL     1      -6.502 -14.951   4.403  0.00  0.00    +0.046 A 
ATOM     38  S   UNL     1      -5.540 -13.576   4.487  0.00  0.00    -0.090 S 
ENDBRANCH  32  34
ENDBRANCH  31  32
ENDBRANCH   5  31
TORSDOF 13
