REMARK  Name = ZINC55199770
REMARK  9 active torsions:
REMARK  status: ('A' for Active; 'I' for Inactive)
REMARK    1  A    between atoms: C_1  and  C_2
REMARK    2  A    between atoms: C_2  and  C_3
REMARK    3  A    between atoms: C_5  and  C_26
REMARK    4  A    between atoms: C_6  and  C_8
REMARK    5  A    between atoms: N_10  and  C_11
REMARK    6  A    between atoms: C_16  and  S_17
REMARK    7  A    between atoms: S_17  and  C_18
REMARK    8  A    between atoms: C_19  and  C_25
REMARK    9  A    between atoms: C_23  and  C_24
REMARK                            x       y       z     vdW  Elec       q    Type
REMARK                         _______ _______ _______ _____ _____    ______ ____
ROOT
ATOM      1  C   UNL     1      -5.379  -1.910   3.773  0.00  0.00    +0.048 A 
ATOM      2  C   UNL     1      -6.586  -2.366   3.264  0.00  0.00    +0.024 A 
ATOM      3  C   UNL     1      -7.630  -2.660   4.120  0.00  0.00    +0.002 A 
ATOM      4  C   UNL     1      -7.477  -2.502   5.486  0.00  0.00    +0.001 A 
ATOM      5  C   UNL     1      -6.278  -2.048   6.003  0.00  0.00    +0.017 A 
ATOM      6  C   UNL     1      -5.222  -1.755   5.151  0.00  0.00    +0.034 A 
ENDROOT
BRANCH   1   9
ATOM      7  C   UNL     1      -4.570  -1.088   1.691  0.00  0.00    +0.285 C 
ATOM      8  O   UNL     1      -5.718  -0.950   1.313  0.00  0.00    -0.266 OA
ATOM      9  N   UNL     1      -4.319  -1.612   2.907  0.00  0.00    -0.278 N 
ATOM     10  H   UNL     1      -3.405  -1.782   3.183  0.00  0.00    +0.155 HD
BRANCH   7  14
ATOM     11  C   UNL     1      -1.463  -0.302   0.054  0.00  0.00    +0.196 A 
ATOM     12  N   UNL     1      -2.312   0.078  -0.863  0.00  0.00    -0.218 NA
ATOM     13  C   UNL     1      -3.555  -0.143  -0.424  0.00  0.00    +0.089 A 
ATOM     14  C   UNL     1      -3.458  -0.684   0.823  0.00  0.00    +0.213 A 
ATOM     15  O   UNL     1      -2.138  -0.781   1.104  0.00  0.00    -0.435 OA
ATOM     16  C   UNL     1      -4.830   0.153  -1.172  0.00  0.00    +0.070 C 
BRANCH  11  18
ATOM     17  C   UNL     1       0.515   1.128   0.489  0.00  0.00    +0.013 C 
ATOM     18  C   UNL     1       0.037  -0.220  -0.056  0.00  0.00    +0.093 C 
ENDBRANCH  11  18
ENDBRANCH   7  14
ENDBRANCH   1   9
BRANCH   6  19
ATOM     19  S   UNL     1      -3.690  -1.183   5.807  0.00  0.00    -0.084 S 
BRANCH  19  20
ATOM     20  C   UNL     1      -3.959  -1.147   7.548  0.00  0.00    +0.056 A 
ATOM     21  C   UNL     1      -4.441  -0.096   8.261  0.00  0.00    +0.047 A 
ATOM     22  N   UNL     1      -4.496  -0.477   9.565  0.00  0.00    -0.281 N 
ATOM     23  H   UNL     1      -4.801   0.069  10.307  0.00  0.00    +0.189 HD
ATOM     24  N   UNL     1      -4.035  -1.797   9.647  0.00  0.00    -0.178 NA
ATOM     25  C   UNL     1      -3.720  -2.200   8.443  0.00  0.00    +0.074 A 
ATOM     26  C   UNL     1      -3.186  -3.562   8.080  0.00  0.00    +0.068 C 
ATOM     27  C   UNL     1      -4.841   1.247   7.708  0.00  0.00    +0.066 C 
ENDBRANCH  19  20
ENDBRANCH   6  19
TORSDOF 5
