REMARK  Name = ZINC57758786
REMARK  6 active torsions:
REMARK  status: ('A' for Active; 'I' for Inactive)
REMARK    1  A    between atoms: C_1  and  C_2
REMARK    2  A    between atoms: C_6  and  N_11
REMARK    3  A    between atoms: N_11  and  C_12
REMARK    4  A    between atoms: C_12  and  C_14
REMARK    5  A    between atoms: C_12  and  C_15
REMARK    6  A    between atoms: C_25  and  C_27
REMARK                            x       y       z     vdW  Elec       q    Type
REMARK                         _______ _______ _______ _____ _____    ______ ____
ROOT
ATOM      1  C   UNL     1      -0.567  -6.945  -0.021  0.00  0.00    +0.154 C 
ATOM      2  C   UNL     1      -0.324  -7.325  -1.483  0.00  0.00    +0.038 C 
ENDROOT
BRANCH   1   3
ATOM      3  C   UNL     1      -1.154  -8.122   0.714  0.00  0.00    +0.240 C 
ATOM      4  O   UNL     1      -2.305  -8.088   1.093  0.00  0.00    -0.273 OA
ATOM      5  N   UNL     1      -0.399  -9.214   0.949  0.00  0.00    -0.267 N 
ATOM      6  C   UNL     1       0.960  -9.329   0.644  0.00  0.00    +0.040 A 
ATOM      7  C   UNL     1       1.818  -8.398   0.055  0.00  0.00    +0.024 A 
ATOM      8  C   UNL     1       3.142  -8.712  -0.162  0.00  0.00    +0.002 A 
ATOM      9  C   UNL     1       3.632  -9.953   0.201  0.00  0.00    +0.000 A 
ATOM     10  C   UNL     1       2.789 -10.881   0.784  0.00  0.00    +0.005 A 
ATOM     11  C   UNL     1       1.461 -10.570   1.005  0.00  0.00    -0.024 A 
ATOM     12  C   UNL     1       0.341 -11.382   1.615  0.00  0.00    +0.059 C 
ATOM     13  C   UNL     1      -0.882 -10.451   1.568  0.00  0.00    +0.083 C 
ATOM     14  C   UNL     1      -1.394 -10.172   2.983  0.00  0.00    +0.029 C 
ENDBRANCH   1   3
BRANCH   1  15
ATOM     15  N   UNL     1      -1.499  -5.816   0.041  0.00  0.00    -0.333 N 
ATOM     16  H   UNL     1      -2.448  -5.977   0.167  0.00  0.00    +0.147 HD
BRANCH  15  22
ATOM     17  C   UNL     1      -1.357   1.479  -0.323  0.00  0.00    +0.109 C 
ATOM     18  C   UNL     1      -1.099  -0.005  -0.284  0.00  0.00    +0.194 A 
ATOM     19  N   UNL     1      -2.015  -0.914  -0.128  0.00  0.00    -0.213 NA
ATOM     20  C   UNL     1      -1.424  -2.139  -0.143  0.00  0.00    +0.111 A 
ATOM     21  C   UNL     1      -1.905  -3.444  -0.021  0.00  0.00    +0.054 A 
ATOM     22  C   UNL     1      -1.022  -4.507  -0.081  0.00  0.00    +0.030 A 
ATOM     23  C   UNL     1       0.341  -4.279  -0.260  0.00  0.00    +0.026 A 
ATOM     24  C   UNL     1       0.823  -2.994  -0.381  0.00  0.00    +0.050 A 
ATOM     25  C   UNL     1      -0.050  -1.918  -0.325  0.00  0.00    +0.155 A 
ATOM     26  O   UNL     1       0.108  -0.578  -0.413  0.00  0.00    -0.440 OA
ENDBRANCH  15  22
ENDBRANCH   1  15
TORSDOF 3
