REMARK  Name = ZINC09644425
REMARK  11 active torsions:
REMARK  status: ('A' for Active; 'I' for Inactive)
REMARK    1  A    between atoms: C_1  and  C_2
REMARK    2  A    between atoms: C_2  and  N_3
REMARK    3  A    between atoms: C_7  and  S_28
REMARK    4  A    between atoms: C_11  and  S_12
REMARK    5  A    between atoms: S_12  and  C_13
REMARK    6  A    between atoms: C_13  and  C_15
REMARK    7  A    between atoms: C_13  and  C_16
REMARK    8  A    between atoms: N_18  and  C_19
REMARK    9  A    between atoms: C_24  and  O_25
REMARK   10  A    between atoms: O_25  and  C_26
REMARK   11  A    between atoms: S_28  and  N_31
REMARK                            x       y       z     vdW  Elec       q    Type
REMARK                         _______ _______ _______ _____ _____    ______ ____
ROOT
ATOM      1  N   UNL     1       8.685   1.640  -1.638  0.00  0.00    -0.319 N 
ATOM      2  C   UNL     1       9.452   0.486  -1.607  0.00  0.00    +0.070 A 
ATOM      3  C   UNL     1      10.755   0.187  -1.977  0.00  0.00    +0.030 A 
ATOM      4  C   UNL     1      11.235  -1.097  -1.822  0.00  0.00    +0.030 A 
ATOM      5  C   UNL     1      10.424  -2.092  -1.296  0.00  0.00    +0.107 A 
ATOM      6  C   UNL     1       9.129  -1.813  -0.923  0.00  0.00    +0.058 A 
ATOM      7  C   UNL     1       8.627  -0.518  -1.074  0.00  0.00    +0.092 A 
ATOM      8  N   UNL     1       7.424   0.054  -0.806  0.00  0.00    -0.222 NA
ATOM      9  C   UNL     1       7.456   1.323  -1.133  0.00  0.00    +0.171 A 
ENDROOT
BRANCH   5  10
ATOM     10  S   UNL     1      11.057  -3.725  -1.106  0.00  0.00    +0.056 S 
ATOM     11  O   UNL     1      12.470  -3.606  -1.020  0.00  0.00    -0.153 OA
ATOM     12  O   UNL     1      10.282  -4.345  -0.088  0.00  0.00    -0.153 OA
BRANCH  10  13
ATOM     13  N   UNL     1      10.735  -4.542  -2.510  0.00  0.00    -0.204 NA
ATOM     14  H   UNL     1      10.274  -4.094  -3.237  0.00  0.00    +0.144 HD
ATOM     15  H   UNL     1      11.007  -5.468  -2.605  0.00  0.00    +0.144 HD
ENDBRANCH  10  13
ENDBRANCH   5  10
BRANCH   1  17
ATOM     16  C   UNL     1       9.722   3.750  -0.964  0.00  0.00    +0.027 C 
ATOM     17  C   UNL     1       9.114   2.955  -2.121  0.00  0.00    +0.121 C 
ENDBRANCH   1  17
BRANCH   9  18
ATOM     18  S   UNL     1       6.113   2.449  -0.955  0.00  0.00    -0.075 S 
BRANCH  18  19
ATOM     19  C   UNL     1       4.866   1.343  -0.252  0.00  0.00    +0.137 C 
ATOM     20  C   UNL     1       5.324   0.870   1.129  0.00  0.00    +0.029 C 
BRANCH  19  21
ATOM     21  C   UNL     1       3.557   2.079  -0.122  0.00  0.00    +0.230 C 
ATOM     22  O   UNL     1       3.541   3.291  -0.116  0.00  0.00    -0.274 OA
ATOM     23  N   UNL     1       2.404   1.389  -0.013  0.00  0.00    -0.282 N 
ATOM     24  H   UNL     1       2.422   0.422   0.063  0.00  0.00    +0.155 HD
BRANCH  23  25
ATOM     25  C   UNL     1       1.179   2.069  -0.009  0.00  0.00    +0.077 A 
ATOM     26  C   UNL     1       1.074   3.316  -0.609  0.00  0.00    +0.047 A 
ATOM     27  C   UNL     1      -0.137   3.985  -0.604  0.00  0.00    +0.043 A 
ATOM     28  C   UNL     1      -1.244   3.414  -0.001  0.00  0.00    +0.024 A 
ATOM     29  C   UNL     1      -1.147   2.169   0.593  0.00  0.00    +0.049 A 
ATOM     30  C   UNL     1       0.064   1.495   0.597  0.00  0.00    +0.141 A 
ATOM     31 CL   UNL     1      -0.267   5.544  -1.355  0.00  0.00    -0.083 Cl
BRANCH  30  32
ATOM     32  O   UNL     1       0.162   0.274   1.186  0.00  0.00    -0.493 OA
ATOM     33  C   UNL     1      -1.022  -0.253   1.788  0.00  0.00    +0.277 C 
ENDBRANCH  30  32
ENDBRANCH  23  25
ENDBRANCH  19  21
ENDBRANCH  18  19
ENDBRANCH   9  18
TORSDOF 8
