REMARK  Name = ZINC63655419
REMARK  15 active torsions:
REMARK  status: ('A' for Active; 'I' for Inactive)
REMARK    1  A    between atoms: C_1  and  C_2
REMARK    2  A    between atoms: C_4  and  C_14
REMARK    3  A    between atoms: C_7  and  O_12
REMARK    4  A    between atoms: O_12  and  C_13
REMARK    5  A    between atoms: C_14  and  C_15
REMARK    6  A    between atoms: C_15  and  N_16
REMARK    7  A    between atoms: N_16  and  C_17
REMARK    8  A    between atoms: N_16  and  C_23
REMARK    9  A    between atoms: C_17  and  C_18
REMARK   10  A    between atoms: C_23  and  N_25
REMARK   11  A    between atoms: N_25  and  C_26
REMARK   12  A    between atoms: C_28  and  O_34
REMARK   13  A    between atoms: C_31  and  O_32
REMARK   14  A    between atoms: O_32  and  C_33
REMARK   15  A    between atoms: O_34  and  C_35
REMARK                            x       y       z     vdW  Elec       q    Type
REMARK                         _______ _______ _______ _____ _____    ______ ____
ROOT
ATOM      1  N   UNL     1       0.678  -0.536  -4.888  0.00  0.00    -0.307 N 
ENDROOT
BRANCH   1   2
ATOM      2  C   UNL     1      -0.145  -1.373  -5.550  0.00  0.00    +0.138 C 
ATOM      3  S   UNL     1      -1.169  -2.434  -4.680  0.00  0.00    -0.018 S 
BRANCH   2   4
ATOM      4  N   UNL     1      -0.163  -1.374  -6.898  0.00  0.00    -0.294 N 
ATOM      5  H   UNL     1       0.357  -0.720  -7.390  0.00  0.00    +0.154 HD
BRANCH   4   6
ATOM      6  C   UNL     1      -0.932  -2.320  -7.588  0.00  0.00    +0.078 A 
ATOM      7  C   UNL     1      -0.920  -3.649  -7.190  0.00  0.00    +0.072 A 
ATOM      8  C   UNL     1      -1.682  -4.583  -7.874  0.00  0.00    +0.122 A 
ATOM      9  C   UNL     1      -2.455  -4.190  -8.957  0.00  0.00    +0.049 A 
ATOM     10  C   UNL     1      -2.469  -2.866  -9.356  0.00  0.00    +0.051 A 
ATOM     11  C   UNL     1      -1.714  -1.927  -8.671  0.00  0.00    +0.141 A 
BRANCH  11  12
ATOM     12  O   UNL     1      -1.733  -0.624  -9.061  0.00  0.00    -0.493 OA
ATOM     13  C   UNL     1      -2.557  -0.293 -10.180  0.00  0.00    +0.277 C 
ENDBRANCH  11  12
BRANCH   8  14
ATOM     14  O   UNL     1      -1.671  -5.886  -7.485  0.00  0.00    -0.495 OA
ATOM     15  C   UNL     1      -2.480  -6.794  -8.235  0.00  0.00    +0.277 C 
ENDBRANCH   8  14
ENDBRANCH   4   6
ENDBRANCH   2   4
ENDBRANCH   1   2
BRANCH   1  16
ATOM     16  C   UNL     1       0.696  -0.535  -3.423  0.00  0.00    +0.111 C 
BRANCH  16  17
ATOM     17  C   UNL     1      -0.330   0.472  -2.901  0.00  0.00    +0.052 C 
BRANCH  17  20
ATOM     18  C   UNL     1      -0.894   2.803  -0.720  0.00  0.00    +0.035 C 
ATOM     19  C   UNL     1      -1.165   1.318  -0.474  0.00  0.00    +0.103 C 
ATOM     20  C   UNL     1      -0.311   0.473  -1.394  0.00  0.00    -0.037 C 
ATOM     21  C   UNL     1       0.473  -0.281  -0.590  0.00  0.00    +0.003 A 
ATOM     22  C   UNL     1       1.503  -1.288  -0.865  0.00  0.00    +0.055 A 
ATOM     23  C   UNL     1       2.137  -1.893   0.168  0.00  0.00    +0.121 A 
ATOM     24  C   UNL     1       1.844  -1.591   1.509  0.00  0.00    +0.047 A 
ATOM     25  C   UNL     1       0.913  -0.678   1.862  0.00  0.00    +0.029 A 
ATOM     26  C   UNL     1       0.165   0.037   0.824  0.00  0.00    +0.043 A 
ATOM     27  N   UNL     1      -0.772   0.951   0.891  0.00  0.00    -0.378 N 
ATOM     28  H   UNL     1      -1.144   1.323   1.706  0.00  0.00    +0.160 HD
BRANCH  23  29
ATOM     29  O   UNL     1       3.089  -2.825  -0.102  0.00  0.00    -0.495 OA
ATOM     30  C   UNL     1       3.732  -3.438   1.017  0.00  0.00    +0.277 C 
ENDBRANCH  23  29
ENDBRANCH  17  20
ENDBRANCH  16  17
ENDBRANCH   1  16
BRANCH   1  31
ATOM     31  C   UNL     1       1.554   0.372  -5.632  0.00  0.00    +0.149 C 
BRANCH  31  32
ATOM     32  C   UNL     1       2.872  -0.308  -5.900  0.00  0.00    +0.007 A 
ATOM     33  C   UNL     1       3.241  -1.067  -6.961  0.00  0.00    +0.013 A 
ATOM     34  C   UNL     1       4.518  -1.595  -6.995  0.00  0.00    +0.008 A 
ATOM     35  C   UNL     1       5.363  -1.339  -5.966  0.00  0.00    +0.045 A 
ATOM     36  S   UNL     1       4.354  -0.318  -4.905  0.00  0.00    -0.100 S 
ENDBRANCH  31  32
ENDBRANCH   1  31
TORSDOF 11
