REMARK  Name = ZINC08941912
REMARK  3 active torsions:
REMARK  status: ('A' for Active; 'I' for Inactive)
REMARK    1  A    between atoms: C_8  and  C_10
REMARK    2  A    between atoms: C_15  and  C_16
REMARK    3  A    between atoms: C_15  and  N_61
REMARK                            x       y       z     vdW  Elec       q    Type
REMARK                         _______ _______ _______ _____ _____    ______ ____
ROOT
ATOM      1  C   UNL     1       3.478   3.442   0.542  0.00  0.00    +0.204 C 
ATOM      2  O   UNL     1       4.524   4.030   0.368  0.00  0.00    -0.277 OA
ATOM      3  N   UNL     1       2.329   3.954   0.060  0.00  0.00    -0.256 N 
ATOM      4  C   UNL     1       1.165   3.171  -0.041  0.00  0.00    +0.058 A 
ATOM      5  C   UNL     1       1.237   1.808  -0.264  0.00  0.00    +0.025 A 
ATOM      6  C   UNL     1       0.072   1.070  -0.373  0.00  0.00    +0.002 A 
ATOM      7  C   UNL     1      -1.159   1.693  -0.271  0.00  0.00    +0.002 A 
ATOM      8  C   UNL     1      -1.236   3.055  -0.041  0.00  0.00    +0.025 A 
ATOM      9  C   UNL     1      -0.075   3.801   0.076  0.00  0.00    +0.055 A 
ATOM     10  N   UNL     1      -0.131   5.179   0.320  0.00  0.00    -0.282 N 
ATOM     11  C   UNL     1       0.951   5.955   0.105  0.00  0.00    +0.241 C 
ATOM     12  O   UNL     1       0.883   7.150   0.304  0.00  0.00    -0.273 OA
ATOM     13  C   UNL     1       2.240   5.351  -0.379  0.00  0.00    +0.118 C 
ATOM     14  C   UNL     1       2.311   5.419  -1.914  0.00  0.00    +0.036 C 
ATOM     15  C   UNL     1       3.141   6.697  -2.198  0.00  0.00    +0.003 C 
ATOM     16  C   UNL     1       4.203   6.674  -1.070  0.00  0.00    +0.003 C 
ATOM     17  C   UNL     1       3.436   6.147   0.162  0.00  0.00    +0.036 C 
ATOM     18  H   UNL     1      -0.953   5.577   0.647  0.00  0.00    +0.155 HD
ENDROOT
BRANCH   1  19
ATOM     19  C   UNL     1       3.464   2.138   1.298  0.00  0.00    +0.019 C 
BRANCH  19  25
ATOM     20  C   UNL     1       7.199   0.442   2.505  0.00  0.00    +0.072 C 
ATOM     21  C   UNL     1       6.095   0.652   3.545  0.00  0.00    -0.006 C 
ATOM     22  C   UNL     1       4.746   0.773   2.833  0.00  0.00    -0.077 C 
ATOM     23  C   UNL     1       5.806   1.704   0.862  0.00  0.00    -0.077 C 
ATOM     24  C   UNL     1       7.186   1.610   1.516  0.00  0.00    -0.006 C 
ATOM     25  N   UNL     1       4.791   1.930   1.913  0.00  0.00    +0.385 N 
ATOM     26  H   UNL     1       5.046   2.770   2.447  0.00  0.00    -0.081 HD
BRANCH  20  34
ATOM     27  C   UNL     1      12.386   0.850   5.485  0.00  0.00    +0.002 A 
ATOM     28  C   UNL     1      12.589  -0.432   4.994  0.00  0.00    +0.004 A 
ATOM     29  C   UNL     1      11.638  -1.036   4.200  0.00  0.00    +0.048 A 
ATOM     30  C   UNL     1      10.468  -0.359   3.888  0.00  0.00    +0.155 A 
ATOM     31  C   UNL     1      10.258   0.937   4.382  0.00  0.00    +0.110 A 
ATOM     32  C   UNL     1      11.230   1.536   5.185  0.00  0.00    +0.031 A 
ATOM     33  N   UNL     1       9.046   1.339   3.912  0.00  0.00    -0.213 NA
ATOM     34  C   UNL     1       8.537   0.382   3.196  0.00  0.00    +0.200 A 
ATOM     35  O   UNL     1       9.375  -0.666   3.156  0.00  0.00    -0.439 OA
ENDBRANCH  20  34
ENDBRANCH  19  25
ENDBRANCH   1  19
TORSDOF 3
