REMARK  Name = ZINC11990636
REMARK  9 active torsions:
REMARK  status: ('A' for Active; 'I' for Inactive)
REMARK    1  A    between atoms: C_1  and  N_2
REMARK    2  A    between atoms: N_2  and  C_3
REMARK    3  A    between atoms: N_2  and  S_4
REMARK    4  A    between atoms: S_4  and  C_7
REMARK    5  A    between atoms: C_10  and  C_13
REMARK    6  A    between atoms: C_13  and  C_15
REMARK    7  A    between atoms: C_17  and  C_29
REMARK    8  A    between atoms: C_23  and  C_24
REMARK    9  A    between atoms: C_23  and  O_28
REMARK                            x       y       z     vdW  Elec       q    Type
REMARK                         _______ _______ _______ _____ _____    ______ ____
ROOT
ATOM      1  C   UNL     1      -0.455  -0.728  -1.513  0.00  0.00    +0.144 C 
ATOM      2  C   UNL     1       0.201  -0.131  -0.263  0.00  0.00    +0.120 C 
ATOM      3  N   UNL     1      -0.692  -0.317   0.882  0.00  0.00    -0.292 N 
ATOM      4  C   UNL     1      -1.541  -1.353   0.944  0.00  0.00    +0.302 C 
ATOM      5  O   UNL     1      -2.253  -1.466   1.923  0.00  0.00    -0.253 OA
ATOM      6  N   UNL     1      -1.637  -2.268  -0.032  0.00  0.00    -0.264 N 
ATOM      7  C   UNL     1      -0.799  -2.194  -1.230  0.00  0.00    +0.243 C 
ATOM      8  H   UNL     1      -0.668   0.322   1.612  0.00  0.00    +0.151 HD
ATOM      9  H   UNL     1      -2.274  -2.994   0.058  0.00  0.00    +0.153 HD
ENDROOT
BRANCH   2  10
ATOM     10  C   UNL     1       0.445   1.341  -0.477  0.00  0.00    -0.026 A 
ATOM     11  C   UNL     1      -0.556   2.255  -0.206  0.00  0.00    +0.005 A 
ATOM     12  C   UNL     1      -0.330   3.605  -0.397  0.00  0.00    +0.000 A 
ATOM     13  C   UNL     1       0.894   4.041  -0.870  0.00  0.00    +0.000 A 
ATOM     14  C   UNL     1       1.893   3.127  -1.147  0.00  0.00    +0.000 A 
ATOM     15  C   UNL     1       1.669   1.777  -0.950  0.00  0.00    +0.005 A 
ENDBRANCH   2  10
BRANCH   7  16
ATOM     16  C   UNL     1      -1.558  -2.780  -2.422  0.00  0.00    +0.436 C 
ATOM     17  F   UNL     1      -0.807  -2.599  -3.588  0.00  0.00    -0.166 F 
ATOM     18  F   UNL     1      -1.771  -4.147  -2.213  0.00  0.00    -0.166 F 
ATOM     19  F   UNL     1      -2.790  -2.131  -2.555  0.00  0.00    -0.166 F 
ENDBRANCH   7  16
BRANCH   1  20
ATOM     20  C   UNL     1      -1.714   0.034  -1.837  0.00  0.00    +0.173 C 
ATOM     21  O   UNL     1      -2.637   0.043  -1.050  0.00  0.00    -0.292 OA
BRANCH  20  25
ATOM     22  C   UNL     1      -2.030   2.147  -5.502  0.00  0.00    +0.105 A 
ATOM     23  C   UNL     1      -3.125   2.062  -4.659  0.00  0.00    +0.029 A 
ATOM     24  C   UNL     1      -3.030   1.377  -3.466  0.00  0.00    +0.013 A 
ATOM     25  C   UNL     1      -1.824   0.767  -3.109  0.00  0.00    +0.018 A 
ATOM     26  C   UNL     1      -0.721   0.862  -3.963  0.00  0.00    +0.013 A 
ATOM     27  C   UNL     1      -0.833   1.546  -5.155  0.00  0.00    +0.029 A 
BRANCH  22  28
ATOM     28  S   UNL     1      -2.162   3.025  -7.024  0.00  0.00    +0.060 S 
ATOM     29  O   UNL     1      -1.162   2.497  -7.885  0.00  0.00    -0.153 OA
ATOM     30  O   UNL     1      -3.540   3.032  -7.371  0.00  0.00    -0.153 OA
BRANCH  28  32
ATOM     31  C   UNL     1      -0.345   5.021  -6.847  0.00  0.00    +0.131 C 
ATOM     32  N   UNL     1      -1.742   4.598  -6.720  0.00  0.00    -0.183 NA
ATOM     33  C   UNL     1      -2.767   5.566  -6.324  0.00  0.00    +0.131 C 
ENDBRANCH  28  32
ENDBRANCH  22  28
ENDBRANCH  20  25
ENDBRANCH   1  20
BRANCH   7  34
ATOM     34  O   UNL     1       0.405  -2.935  -1.018  0.00  0.00    -0.364 OA
ATOM     35  H   UNL     1       0.261  -3.873  -0.833  0.00  0.00    +0.212 HD
ENDBRANCH   7  34
TORSDOF 7
