REMARK  Name = ZINC36013940
REMARK  15 active torsions:
REMARK  status: ('A' for Active; 'I' for Inactive)
REMARK    1  A    between atoms: C_1  and  C_2
REMARK    2  A    between atoms: C_2  and  N_3
REMARK    3  A    between atoms: N_9  and  C_14
REMARK    4  A    between atoms: C_11  and  C_13
REMARK    5  A    between atoms: C_14  and  C_15
REMARK    6  A    between atoms: C_16  and  C_34
REMARK    7  A    between atoms: C_17  and  C_25
REMARK    8  A    between atoms: N_22  and  C_23
REMARK    9  A    between atoms: C_23  and  C_24
REMARK   10  A    between atoms: C_28  and  C_31
REMARK   11  A    between atoms: C_31  and  C_32
REMARK   12  A    between atoms: C_31  and  C_33
REMARK   13  A    between atoms: C_34  and  O_36
REMARK   14  A    between atoms: O_36  and  C_37
REMARK   15  A    between atoms: C_37  and  C_38
REMARK                            x       y       z     vdW  Elec       q    Type
REMARK                         _______ _______ _______ _____ _____    ______ ____
ROOT
ATOM      1  C   UNL     1       4.708  -2.769  -6.178  0.00  0.00    +0.041 C 
ATOM      2  C   UNL     1       5.690  -1.843  -6.131  0.00  0.00    +0.080 C 
ATOM      3  C   UNL     1       5.980  -1.057  -7.394  0.00  0.00    +0.144 C 
ATOM      4  N   UNL     1       5.161  -1.370  -8.577  0.00  0.00    -0.288 N 
ATOM      5  C   UNL     1       4.215  -2.324  -8.468  0.00  0.00    +0.307 C 
ATOM      6  O   UNL     1       3.533  -2.590  -9.439  0.00  0.00    -0.252 OA
ATOM      7  N   UNL     1       4.005  -2.992  -7.327  0.00  0.00    -0.258 N 
ATOM      8  H   UNL     1       5.298  -0.901  -9.414  0.00  0.00    +0.151 HD
ENDROOT
BRANCH   3   9
ATOM      9  C   UNL     1       5.803   0.406  -7.081  0.00  0.00    -0.022 A 
ATOM     10  C   UNL     1       4.535   0.957  -7.041  0.00  0.00    +0.006 A 
ATOM     11  C   UNL     1       4.373   2.299  -6.755  0.00  0.00    +0.004 A 
ATOM     12  C   UNL     1       5.478   3.091  -6.507  0.00  0.00    -0.045 A 
ATOM     13  C   UNL     1       6.746   2.541  -6.545  0.00  0.00    +0.004 A 
ATOM     14  C   UNL     1       6.908   1.198  -6.828  0.00  0.00    +0.006 A 
BRANCH  12  15
ATOM     15  C   UNL     1       5.301   4.555  -6.195  0.00  0.00    +0.013 C 
ATOM     16  C   UNL     1       5.876   4.855  -4.809  0.00  0.00    +0.012 C 
ATOM     17  C   UNL     1       6.036   5.392  -7.244  0.00  0.00    +0.012 C 
ENDBRANCH  12  15
ENDBRANCH   3   9
BRANCH   7  18
ATOM     18  C   UNL     1       2.957  -4.016  -7.308  0.00  0.00    +0.111 C 
ATOM     19  C   UNL     1       1.627  -3.377  -6.904  0.00  0.00    +0.025 C 
ENDBRANCH   7  18
BRANCH   2  20
ATOM     20  C   UNL     1       6.423  -1.614  -4.943  0.00  0.00    +0.339 C 
ATOM     21  O   UNL     1       6.099  -0.713  -4.192  0.00  0.00    -0.245 OA
BRANCH  20  22
ATOM     22  O   UNL     1       7.482  -2.395  -4.642  0.00  0.00    -0.462 OA
BRANCH  22  23
ATOM     23  C   UNL     1       8.176  -2.107  -3.427  0.00  0.00    +0.229 C 
ATOM     24  C   UNL     1       9.337  -3.089  -3.258  0.00  0.00    +0.048 C 
ENDBRANCH  22  23
ENDBRANCH  20  22
ENDBRANCH   2  20
BRANCH   1  25
ATOM     25  C   UNL     1       4.387  -3.573  -4.944  0.00  0.00    +0.136 C 
BRANCH  25  32
ATOM     26  N   UNL     1       0.272  -0.681  -1.304  0.00  0.00    -0.299 N 
ATOM     27  C   UNL     1       0.462  -1.992  -1.547  0.00  0.00    +0.303 C 
ATOM     28  O   UNL     1       0.106  -2.820  -0.731  0.00  0.00    -0.253 OA
ATOM     29  N   UNL     1       1.048  -2.387  -2.695  0.00  0.00    -0.280 N 
ATOM     30  C   UNL     1       1.604  -1.402  -3.636  0.00  0.00    +0.125 C 
ATOM     31  C   UNL     1       3.042  -1.809  -3.973  0.00  0.00    +0.104 C 
ATOM     32  N   UNL     1       3.056  -3.199  -4.449  0.00  0.00    -0.294 NA
ATOM     33  C   UNL     1       2.605  -4.125  -3.401  0.00  0.00    +0.107 C 
ATOM     34  C   UNL     1       1.154  -3.813  -3.038  0.00  0.00    +0.088 C 
ATOM     35  C   UNL     1       0.734  -4.662  -1.837  0.00  0.00    +0.029 C 
ATOM     36  H   UNL     1       0.620  -0.017  -1.921  0.00  0.00    +0.150 HD
BRANCH  26  38
ATOM     37  C   UNL     1      -0.535   1.272  -0.071  0.00  0.00    +0.024 C 
ATOM     38  C   UNL     1      -0.461  -0.256  -0.109  0.00  0.00    +0.102 C 
ENDBRANCH  26  38
ENDBRANCH  25  32
ENDBRANCH   1  25
TORSDOF 9
