REMARK  Name = ZINC46739840
REMARK  5 active torsions:
REMARK  status: ('A' for Active; 'I' for Inactive)
REMARK    1  A    between atoms: C_6  and  C_7
REMARK    2  A    between atoms: C_7  and  C_8
REMARK    3  A    between atoms: N_10  and  N_11
REMARK    4  A    between atoms: C_12  and  C_14
REMARK    5  A    between atoms: C_17  and  C_19
REMARK                            x       y       z     vdW  Elec       q    Type
REMARK                         _______ _______ _______ _____ _____    ______ ____
ROOT
ATOM      1  N   UNL     1      -3.294  -1.933  -2.964  0.00  0.00    -0.229 N 
ATOM      2  C   UNL     1      -4.435  -2.609  -3.203  0.00  0.00    +0.279 C 
ATOM      3  O   UNL     1      -5.105  -3.018  -2.273  0.00  0.00    -0.267 OA
ATOM      4  H   UNL     1      -2.760  -1.606  -3.705  0.00  0.00    +0.173 HD
ENDROOT
BRANCH   2   5
ATOM      5  C   UNL     1      -4.870  -2.853  -4.588  0.00  0.00    +0.135 A 
ATOM      6  C   UNL     1      -6.030  -3.534  -4.841  0.00  0.00    +0.080 A 
ATOM      7  S   UNL     1      -6.084  -3.550  -6.523  0.00  0.00    -0.075 S 
ATOM      8  C   UNL     1      -4.572  -2.656  -6.835  0.00  0.00    +0.110 A 
ATOM      9  N   UNL     1      -4.146  -2.410  -5.609  0.00  0.00    -0.234 NA
BRANCH   8  10
ATOM     10  C   UNL     1      -3.959  -2.283  -8.127  0.00  0.00    +0.014 A 
ATOM     11  C   UNL     1      -4.569  -2.625  -9.336  0.00  0.00    +0.018 A 
ATOM     12  C   UNL     1      -3.929  -2.237 -10.462  0.00  0.00    +0.046 A 
ATOM     13  S   UNL     1      -2.492  -1.405  -9.816  0.00  0.00    -0.104 S 
ATOM     14  C   UNL     1      -2.786  -1.590  -8.173  0.00  0.00    +0.055 A 
ENDBRANCH   8  10
ENDBRANCH   2   5
BRANCH   1  17
ATOM     15  C   UNL     1      -1.738  -1.024  -1.407  0.00  0.00    +0.233 C 
ATOM     16  O   UNL     1      -1.070  -0.616  -2.333  0.00  0.00    -0.274 OA
ATOM     17  N   UNL     1      -2.880  -1.701  -1.646  0.00  0.00    -0.234 N 
ATOM     18  H   UNL     1      -3.414  -2.027  -0.905  0.00  0.00    +0.173 HD
BRANCH  15  19
ATOM     19  C   UNL     1      -1.293  -0.775   0.011  0.00  0.00    +0.132 C 
BRANCH  19  25
ATOM     20  C   UNL     1      -0.017   1.378   0.010  0.00  0.00    +0.005 A 
ATOM     21  C   UNL     1       1.171   2.086   0.002  0.00  0.00    +0.020 A 
ATOM     22  C   UNL     1       2.378   1.410  -0.013  0.00  0.00    +0.041 A 
ATOM     23  C   UNL     1       2.396   0.027  -0.021  0.00  0.00    +0.020 A 
ATOM     24  C   UNL     1       1.208  -0.679  -0.013  0.00  0.00    +0.005 A 
ATOM     25  C   UNL     1       0.002  -0.004   0.002  0.00  0.00    -0.038 A 
ATOM     26 CL   UNL     1       3.870   2.298  -0.023  0.00  0.00    -0.084 Cl
ENDBRANCH  19  25
ENDBRANCH  15  19
ENDBRANCH   1  17
TORSDOF 5
