REMARK  Name = ZINC13638399
REMARK  6 active torsions:
REMARK  status: ('A' for Active; 'I' for Inactive)
REMARK    1  A    between atoms: C_1  and  C_2
REMARK    2  A    between atoms: C_5  and  N_9
REMARK    3  A    between atoms: C_7  and  C_8
REMARK    4  A    between atoms: N_9  and  S_10
REMARK    5  A    between atoms: S_10  and  C_13
REMARK    6  A    between atoms: C_26  and  C_29
REMARK                            x       y       z     vdW  Elec       q    Type
REMARK                         _______ _______ _______ _____ _____    ______ ____
ROOT
ATOM      1  C   UNL     1       1.493   2.015   0.148  0.00  0.00    +0.109 A 
ATOM      2  C   UNL     1       0.201   1.521   0.185  0.00  0.00    +0.030 A 
ATOM      3  C   UNL     1      -0.863   2.396   0.287  0.00  0.00    +0.025 A 
ATOM      4  C   UNL     1      -0.633   3.764   0.362  0.00  0.00    +0.031 A 
ATOM      5  C   UNL     1       0.659   4.263   0.325  0.00  0.00    -0.018 A 
ATOM      6  C   UNL     1       1.721   3.375   0.217  0.00  0.00    +0.034 A 
ATOM      7  C   UNL     1       0.954   5.728   0.397  0.00  0.00    +0.049 C 
ATOM      8  C   UNL     1       1.345   6.279  -0.955  0.00  0.00    -0.023 C 
ATOM      9  C   UNL     1       0.873   7.493  -1.103  0.00  0.00    -0.030 C 
ATOM     10  C   UNL     1       0.108   7.920   0.135  0.00  0.00    +0.033 C 
ATOM     11  C   UNL     1      -0.271   6.568   0.809  0.00  0.00    +0.029 C 
ATOM     12  C   UNL     1      -1.525   6.044   0.104  0.00  0.00    +0.105 C 
ATOM     13  N   UNL     1      -1.722   4.637   0.469  0.00  0.00    -0.336 N 
ATOM     14  H   UNL     1      -2.585   4.319   0.778  0.00  0.00    +0.147 HD
ENDROOT
BRANCH  12  15
ATOM     15  C   UNL     1      -2.722   6.850   0.539  0.00  0.00    -0.027 A 
ATOM     16  C   UNL     1      -3.337   6.577   1.747  0.00  0.00    +0.006 A 
ATOM     17  C   UNL     1      -4.431   7.320   2.148  0.00  0.00    +0.015 A 
ATOM     18  C   UNL     1      -4.919   8.328   1.336  0.00  0.00    +0.018 A 
ATOM     19  C   UNL     1      -4.307   8.596   0.125  0.00  0.00    +0.015 A 
ATOM     20  C   UNL     1      -3.209   7.857  -0.273  0.00  0.00    +0.006 A 
ATOM     21 BR   UNL     1      -6.421   9.338   1.881  0.00  0.00    -0.050 Br
ENDBRANCH  12  15
BRANCH   1  22
ATOM     22  S   UNL     1       2.853   0.904   0.011  0.00  0.00    +0.072 S 
ATOM     23  O   UNL     1       4.007   1.621   0.428  0.00  0.00    -0.150 OA
ATOM     24  O   UNL     1       2.448  -0.311   0.625  0.00  0.00    -0.150 OA
BRANCH  22  25
ATOM     25  N   UNL     1       3.057   0.576  -1.600  0.00  0.00    -0.216 N 
ATOM     26  H   UNL     1       2.935  -0.329  -1.929  0.00  0.00    +0.174 HD
BRANCH  25  31
ATOM     27  C   UNL     1       4.463   4.735  -5.189  0.00  0.00    +0.044 C 
ATOM     28  C   UNL     1       4.089   3.630  -4.234  0.00  0.00    -0.047 A 
ATOM     29  C   UNL     1       2.800   3.127  -4.231  0.00  0.00    +0.005 A 
ATOM     30  C   UNL     1       2.456   2.111  -3.362  0.00  0.00    +0.025 A 
ATOM     31  C   UNL     1       3.403   1.601  -2.483  0.00  0.00    +0.048 A 
ATOM     32  C   UNL     1       4.696   2.108  -2.489  0.00  0.00    +0.028 A 
ATOM     33  C   UNL     1       5.035   3.121  -3.364  0.00  0.00    -0.046 A 
ATOM     34  C   UNL     1       6.438   3.672  -3.371  0.00  0.00    +0.044 C 
ENDBRANCH  25  31
ENDBRANCH  22  25
ENDBRANCH   1  22
TORSDOF 4
