REMARK  Name = ZINC04082014
REMARK  2 active torsions:
REMARK  status: ('A' for Active; 'I' for Inactive)
REMARK    1  A    between atoms: C_4  and  C_7
REMARK    2  A    between atoms: C_12  and  C_22
REMARK                            x       y       z     vdW  Elec       q    Type
REMARK                         _______ _______ _______ _____ _____    ______ ____
ROOT
ATOM      1  C   UNL     1       6.122  -3.072   1.581  0.00  0.00    +0.032 C 
ATOM      2  C   UNL     1       5.629  -1.660   1.270  0.00  0.00    +0.059 C 
ATOM      3  C   UNL     1       4.158  -1.698   0.887  0.00  0.00    +0.017 C 
ATOM      4  C   UNL     1       3.336  -2.605   1.438  0.00  0.00    +0.036 C 
ATOM      5  C   UNL     1       1.855  -2.737   1.171  0.00  0.00    +0.136 C 
ATOM      6  N   UNL     1       1.379  -1.960   0.046  0.00  0.00    -0.331 N 
ATOM      7  C   UNL     1       1.425  -0.568   0.061  0.00  0.00    +0.049 A 
ATOM      8  C   UNL     1       0.268   0.193   0.092  0.00  0.00    +0.025 A 
ATOM      9  C   UNL     1       0.361   1.572   0.170  0.00  0.00    +0.002 A 
ATOM     10  C   UNL     1       1.598   2.187   0.231  0.00  0.00    +0.002 A 
ATOM     11  C   UNL     1       2.757   1.430   0.196  0.00  0.00    +0.025 A 
ATOM     12  C   UNL     1       2.665   0.053   0.092  0.00  0.00    +0.052 A 
ATOM     13  N   UNL     1       3.787  -0.760  -0.021  0.00  0.00    -0.316 N 
ATOM     14  C   UNL     1       3.837  -3.556   2.358  0.00  0.00    +0.163 C 
ATOM     15  O   UNL     1       3.066  -4.356   2.852  0.00  0.00    -0.292 OA
ATOM     16  C   UNL     1       5.284  -3.614   2.745  0.00  0.00    +0.088 C 
ATOM     17  H   UNL     1       1.021  -2.417  -0.732  0.00  0.00    +0.147 HD
ATOM     18  H   UNL     1       4.345  -0.649  -0.807  0.00  0.00    +0.152 HD
ENDROOT
BRANCH   5  19
ATOM     19  C   UNL     1       1.109  -2.297   2.405  0.00  0.00    -0.021 A 
ATOM     20  C   UNL     1       1.180  -0.981   2.823  0.00  0.00    +0.007 A 
ATOM     21  C   UNL     1       0.492  -0.576   3.951  0.00  0.00    +0.022 A 
ATOM     22  C   UNL     1      -0.260  -1.489   4.669  0.00  0.00    +0.059 A 
ATOM     23  C   UNL     1      -0.327  -2.808   4.253  0.00  0.00    +0.060 A 
ATOM     24  C   UNL     1       0.358  -3.211   3.120  0.00  0.00    +0.027 A 
ATOM     25 CL   UNL     1      -1.270  -3.955   5.151  0.00  0.00    -0.082 Cl
ATOM     26 CL   UNL     1      -1.119  -0.982   6.089  0.00  0.00    -0.082 Cl
ENDBRANCH   5  19
BRANCH   1  30
ATOM     27  C   UNL     1      10.245  -2.953   2.693  0.00  0.00    +0.000 A 
ATOM     28  C   UNL     1       9.847  -3.690   1.593  0.00  0.00    +0.000 A 
ATOM     29  C   UNL     1       8.512  -3.729   1.233  0.00  0.00    +0.004 A 
ATOM     30  C   UNL     1       7.577  -3.030   1.973  0.00  0.00    -0.044 A 
ATOM     31  C   UNL     1       7.976  -2.289   3.069  0.00  0.00    +0.004 A 
ATOM     32  C   UNL     1       9.309  -2.254   3.432  0.00  0.00    +0.000 A 
ENDBRANCH   1  30
TORSDOF 2
