REMARK  Name = ZINC06422328
REMARK  8 active torsions:
REMARK  status: ('A' for Active; 'I' for Inactive)
REMARK    1  A    between atoms: C_1  and  C_2
REMARK    2  A    between atoms: C_2  and  C_4
REMARK    3  A    between atoms: C_9  and  N_10
REMARK    4  A    between atoms: C_11  and  C_13
REMARK    5  A    between atoms: C_13  and  O_14
REMARK    6  A    between atoms: O_14  and  C_15
REMARK    7  A    between atoms: C_15  and  C_17
REMARK    8  A    between atoms: C_21  and  N_23
REMARK                            x       y       z     vdW  Elec       q    Type
REMARK                         _______ _______ _______ _____ _____    ______ ____
ROOT
ATOM      1  N   UNL     1       4.806   1.562  -0.036  0.00  0.00    -0.282 N 
ATOM      2  C   UNL     1       3.554   2.060  -0.016  0.00  0.00    +0.255 C 
ATOM      3  O   UNL     1       3.379   3.260   0.008  0.00  0.00    -0.272 OA
ATOM      4  H   UNL     1       4.948   0.604   0.027  0.00  0.00    +0.155 HD
ENDROOT
BRANCH   1  10
ATOM      5  C   UNL     1       7.154   2.035   0.352  0.00  0.00    +0.042 A 
ATOM      6  C   UNL     1       8.246   2.905   0.229  0.00  0.00    +0.062 A 
ATOM      7  C   UNL     1       8.082   4.137  -0.365  0.00  0.00    +0.167 A 
ATOM      8  C   UNL     1       6.828   4.520  -0.854  0.00  0.00    +0.168 A 
ATOM      9  C   UNL     1       5.745   3.663  -0.743  0.00  0.00    +0.073 A 
ATOM     10  C   UNL     1       5.896   2.422  -0.146  0.00  0.00    +0.048 A 
ATOM     11  O   UNL     1       6.935   5.770  -1.388  0.00  0.00    -0.453 OA
ATOM     12  C   UNL     1       8.343   5.984  -1.594  0.00  0.00    +0.466 C 
ATOM     13  O   UNL     1       8.966   5.152  -0.597  0.00  0.00    -0.453 OA
BRANCH   5  15
ATOM     14  C   UNL     1       8.642   0.359   1.616  0.00  0.00    +0.091 C 
ATOM     15  C   UNL     1       7.322   0.727   0.990  0.00  0.00    +0.162 C 
ATOM     16  O   UNL     1       6.399  -0.059   1.014  0.00  0.00    -0.292 OA
ENDBRANCH   5  15
ENDBRANCH   1  10
BRANCH   2  17
ATOM     17  C   UNL     1       2.371   1.126  -0.022  0.00  0.00    +0.328 C 
BRANCH  17  18
ATOM     18  O   UNL     1       1.143   1.901   0.003  0.00  0.00    -0.452 OA
BRANCH  18  19
ATOM     19  C   UNL     1      -0.015   1.212   0.000  0.00  0.00    +0.340 C 
ATOM     20  O   UNL     1       0.002  -0.003  -0.022  0.00  0.00    -0.245 OA
BRANCH  19  21
ATOM     21  C   UNL     1      -1.303   1.933   0.018  0.00  0.00    +0.061 A 
ATOM     22  C   UNL     1      -1.324   3.329   0.050  0.00  0.00    +0.016 A 
ATOM     23  C   UNL     1      -2.529   4.001   0.061  0.00  0.00    +0.022 A 
ATOM     24  C   UNL     1      -3.719   3.296   0.053  0.00  0.00    +0.062 A 
ATOM     25  C   UNL     1      -3.709   1.905   0.028  0.00  0.00    +0.044 A 
ATOM     26  C   UNL     1      -2.504   1.222   0.010  0.00  0.00    +0.039 A 
ATOM     27 CL   UNL     1      -5.231   4.150   0.076  0.00  0.00    -0.082 Cl
BRANCH  25  28
ATOM     28  N   UNL     1      -4.914   1.197   0.019  0.00  0.00    -0.357 N 
ATOM     29  H   UNL     1      -4.907   0.227   0.001  0.00  0.00    +0.142 HD
ATOM     30  H   UNL     1      -5.758   1.676   0.031  0.00  0.00    +0.142 HD
ENDBRANCH  25  28
ENDBRANCH  19  21
ENDBRANCH  18  19
ENDBRANCH  17  18
ENDBRANCH   2  17
TORSDOF 7
