REMARK  Name = ZINC09683119
REMARK  9 active torsions:
REMARK  status: ('A' for Active; 'I' for Inactive)
REMARK    1  A    between atoms: C_1  and  C_2
REMARK    2  A    between atoms: C_2  and  O_3
REMARK    3  A    between atoms: O_3  and  C_4
REMARK    4  A    between atoms: C_4  and  C_6
REMARK    5  A    between atoms: C_7  and  C_20
REMARK    6  A    between atoms: C_12  and  C_14
REMARK    7  A    between atoms: C_20  and  O_21
REMARK    8  A    between atoms: O_21  and  C_22
REMARK    9  A    between atoms: C_22  and  C_24
REMARK                            x       y       z     vdW  Elec       q    Type
REMARK                         _______ _______ _______ _____ _____    ______ ____
ROOT
ATOM      1  C   UNL     1      -2.122  -3.168   4.114  0.00  0.00    +0.081 C 
ATOM      2  C   UNL     1      -2.266  -2.835   2.813  0.00  0.00    +0.061 C 
ATOM      3  N   UNL     1      -1.816  -3.658   1.821  0.00  0.00    -0.269 N 
ATOM      4  C   UNL     1      -1.216  -4.834   2.046  0.00  0.00    +0.304 C 
ATOM      5  O   UNL     1      -0.849  -5.498   1.096  0.00  0.00    -0.252 OA
ATOM      6  N   UNL     1      -1.005  -5.305   3.291  0.00  0.00    -0.288 N 
ATOM      7  C   UNL     1      -1.454  -4.491   4.433  0.00  0.00    +0.144 C 
ATOM      8  H   UNL     1      -1.937  -3.375   0.901  0.00  0.00    +0.156 HD
ATOM      9  H   UNL     1      -0.568  -6.159   3.432  0.00  0.00    +0.151 HD
ENDROOT
BRANCH   7  10
ATOM     10  C   UNL     1      -2.418  -5.319   5.243  0.00  0.00    -0.022 A 
ATOM     11  C   UNL     1      -3.345  -6.122   4.605  0.00  0.00    +0.006 A 
ATOM     12  C   UNL     1      -4.226  -6.886   5.348  0.00  0.00    +0.000 A 
ATOM     13  C   UNL     1      -4.187  -6.838   6.729  0.00  0.00    +0.000 A 
ATOM     14  C   UNL     1      -3.263  -6.031   7.367  0.00  0.00    +0.000 A 
ATOM     15  C   UNL     1      -2.379  -5.272   6.624  0.00  0.00    +0.006 A 
ENDBRANCH   7  10
BRANCH   1  16
ATOM     16  C   UNL     1      -2.582  -2.314   5.143  0.00  0.00    +0.339 C 
ATOM     17  O   UNL     1      -1.795  -1.609   5.745  0.00  0.00    -0.245 OA
BRANCH  16  18
ATOM     18  O   UNL     1      -3.894  -2.282   5.457  0.00  0.00    -0.462 OA
BRANCH  18  20
ATOM     19  C   UNL     1      -5.801  -1.498   6.717  0.00  0.00    +0.048 C 
ATOM     20  C   UNL     1      -4.289  -1.397   6.506  0.00  0.00    +0.229 C 
ENDBRANCH  18  20
ENDBRANCH  16  18
ENDBRANCH   1  16
BRANCH   2  21
ATOM     21  C   UNL     1      -2.928  -1.531   2.451  0.00  0.00    +0.283 C 
BRANCH  21  22
ATOM     22  O   UNL     1      -1.964  -0.663   1.798  0.00  0.00    -0.456 OA
BRANCH  22  23
ATOM     23  C   UNL     1      -2.398   0.546   1.410  0.00  0.00    +0.343 C 
ATOM     24  O   UNL     1      -3.546   0.869   1.609  0.00  0.00    -0.247 OA
BRANCH  23  25
ATOM     25  C   UNL     1      -1.455   1.501   0.726  0.00  0.00    +0.190 C 
ATOM     26  C   UNL     1      -0.795   0.917  -0.534  0.00  0.00    +0.059 C 
ATOM     27  C   UNL     1      -1.823   1.338  -1.614  0.00  0.00    +0.100 C 
ATOM     28  C   UNL     1      -2.502   2.557  -1.030  0.00  0.00    +0.221 C 
ATOM     29  O   UNL     1      -3.295   3.257  -1.623  0.00  0.00    -0.275 OA
ATOM     30  N   UNL     1      -2.100   2.756   0.249  0.00  0.00    -0.245 N 
ATOM     31  C   UNL     1      -2.094   3.777   1.221  0.00  0.00    +0.052 A 
ATOM     32  C   UNL     1      -2.997   4.844   1.312  0.00  0.00    +0.025 A 
ATOM     33  C   UNL     1      -2.862   5.809   2.284  0.00  0.00    +0.002 A 
ATOM     34  C   UNL     1      -1.825   5.763   3.197  0.00  0.00    +0.001 A 
ATOM     35  C   UNL     1      -0.920   4.716   3.136  0.00  0.00    +0.016 A 
ATOM     36  C   UNL     1      -1.067   3.744   2.177  0.00  0.00    +0.032 A 
ATOM     37  S   UNL     1      -0.183   2.235   1.830  0.00  0.00    -0.086 S 
ENDBRANCH  23  25
ENDBRANCH  22  23
ENDBRANCH  21  22
ENDBRANCH   2  21
TORSDOF 8
