REMARK  Name = ZINC59377025
REMARK  4 active torsions:
REMARK  status: ('A' for Active; 'I' for Inactive)
REMARK    1  A    between atoms: C_6  and  C_7
REMARK    2  A    between atoms: N_11  and  C_15
REMARK    3  A    between atoms: C_15  and  N_16
REMARK    4  A    between atoms: N_16  and  C_17
REMARK                            x       y       z     vdW  Elec       q    Type
REMARK                         _______ _______ _______ _____ _____    ______ ____
ROOT
ATOM      1  C   UNL     1      -1.258  -0.760   0.010  0.00  0.00    +0.028 C 
ATOM      2  C   UNL     1      -1.240  -2.111  -0.100  0.00  0.00    +0.080 C 
ATOM      3  C   UNL     1      -0.088  -3.038  -0.131  0.00  0.00    +0.262 C 
ATOM      4  O   UNL     1       1.058  -2.637  -0.054  0.00  0.00    -0.269 OA
ATOM      5  N   UNL     1      -0.368  -4.325  -0.247  0.00  0.00    -0.212 N 
ATOM      6  C   UNL     1      -1.640  -4.765  -0.333  0.00  0.00    +0.287 C 
ATOM      7  O   UNL     1      -2.037  -5.910  -0.442  0.00  0.00    -0.262 OA
ATOM      8  S   UNL     1      -2.600  -3.263  -0.238  0.00  0.00    -0.026 S 
ENDROOT
BRANCH   1  14
ATOM      9  C   UNL     1       0.993  -0.381  -0.977  0.00  0.00    +0.009 A 
ATOM     10  C   UNL     1       2.166   0.338  -1.049  0.00  0.00    +0.020 A 
ATOM     11  C   UNL     1       2.360   1.438  -0.228  0.00  0.00    +0.041 A 
ATOM     12  C   UNL     1       1.378   1.823   0.670  0.00  0.00    +0.020 A 
ATOM     13  C   UNL     1       0.199   1.114   0.753  0.00  0.00    +0.009 A 
ATOM     14  C   UNL     1      -0.004   0.002  -0.073  0.00  0.00    -0.024 A 
ATOM     15 CL   UNL     1       3.842   2.337  -0.325  0.00  0.00    -0.084 Cl
ENDBRANCH   1  14
BRANCH   5  16
ATOM     16  C   UNL     1       0.729  -5.295  -0.285  0.00  0.00    +0.222 C 
BRANCH  16  17
ATOM     17  N   UNL     1       1.042  -5.731   1.079  0.00  0.00    -0.327 N 
ATOM     18  H   UNL     1       1.647  -5.209   1.628  0.00  0.00    +0.148 HD
BRANCH  17  19
ATOM     19  C   UNL     1       0.469  -6.900   1.587  0.00  0.00    +0.048 A 
ATOM     20  C   UNL     1      -0.392  -7.653   0.800  0.00  0.00    +0.044 A 
ATOM     21  C   UNL     1      -0.957  -8.809   1.306  0.00  0.00    +0.043 A 
ATOM     22  C   UNL     1      -0.665  -9.216   2.596  0.00  0.00    +0.021 A 
ATOM     23  C   UNL     1       0.192  -8.468   3.383  0.00  0.00    +0.023 A 
ATOM     24  C   UNL     1       0.765  -7.315   2.880  0.00  0.00    +0.062 A 
ATOM     25 CL   UNL     1       1.847  -6.382   3.866  0.00  0.00    -0.082 Cl
ATOM     26 CL   UNL     1      -2.034  -9.750   0.322  0.00  0.00    -0.083 Cl
ENDBRANCH  17  19
ENDBRANCH  16  17
ENDBRANCH   5  16
TORSDOF 4
