REMARK  Name = ZINC64343428
REMARK  6 active torsions:
REMARK  status: ('A' for Active; 'I' for Inactive)
REMARK    1  A    between atoms: C_1  and  N_2
REMARK    2  A    between atoms: C_4  and  C_19
REMARK    3  A    between atoms: C_6  and  C_8
REMARK    4  A    between atoms: N_21  and  C_22
REMARK    5  A    between atoms: C_22  and  C_23
REMARK    6  A    between atoms: C_23  and  C_24
REMARK                            x       y       z     vdW  Elec       q    Type
REMARK                         _______ _______ _______ _____ _____    ______ ____
ROOT
ATOM      1  C   UNL     1       0.275   1.419   0.098  0.00  0.00    +0.128 C 
ATOM      2  N   UNL     1       0.003  -0.021  -0.012  0.00  0.00    -0.228 NA
ATOM      3  C   UNL     1       0.767  -0.782   0.996  0.00  0.00    +0.147 C 
ATOM      4  C   UNL     1      -0.293  -1.504   1.801  0.00  0.00    +0.052 C 
ATOM      5  H   UNL     1      -2.042   0.087  -0.318  0.00  0.00    +0.166 HD
ATOM      6  C   UNL     1      -1.491  -1.146   1.257  0.00  0.00    +0.058 C 
ATOM      7  N   UNL     1      -1.316  -0.287   0.207  0.00  0.00    -0.277 N 
ENDROOT
BRANCH   6   8
ATOM      8  C   UNL     1      -2.803  -1.622   1.737  0.00  0.00    +0.001 A 
ATOM      9  C   UNL     1      -3.139  -1.502   3.088  0.00  0.00    +0.013 A 
ATOM     10  C   UNL     1      -4.364  -1.947   3.537  0.00  0.00    +0.050 A 
ATOM     11  C   UNL     1      -5.264  -2.513   2.646  0.00  0.00    +0.162 A 
ATOM     12  C   UNL     1      -4.936  -2.635   1.300  0.00  0.00    +0.163 A 
ATOM     13  C   UNL     1      -3.713  -2.189   0.840  0.00  0.00    +0.059 A 
ATOM     14  O   UNL     1      -5.833  -3.194   0.436  0.00  0.00    -0.488 OA
ATOM     15  C   UNL     1      -6.083  -4.590   0.610  0.00  0.00    +0.232 C 
ATOM     16  C   UNL     1      -7.139  -4.819   1.679  0.00  0.00    +0.082 C 
ATOM     17  C   UNL     1      -6.678  -4.368   3.055  0.00  0.00    +0.232 C 
ATOM     18  O   UNL     1      -6.478  -2.953   3.084  0.00  0.00    -0.488 OA
ENDBRANCH   6   8
BRANCH   4  19
ATOM     19  C   UNL     1      -0.084  -2.369   2.892  0.00  0.00    +0.243 C 
ATOM     20  O   UNL     1      -1.024  -2.972   3.380  0.00  0.00    -0.270 OA
ATOM     21  N   UNL     1       1.155  -2.531   3.396  0.00  0.00    -0.311 N 
ATOM     22  H   UNL     1       1.903  -2.050   3.008  0.00  0.00    +0.149 HD
BRANCH  21  23
ATOM     23  C   UNL     1       1.373  -3.431   4.531  0.00  0.00    +0.109 C 
BRANCH  23  24
ATOM     24  C   UNL     1       2.857  -3.432   4.904  0.00  0.00    +0.052 C 
BRANCH  24  25
ATOM     25  C   UNL     1       3.081  -4.359   6.071  0.00  0.00    -0.040 C 
ATOM     26  C   UNL     1       3.469  -5.653   6.019  0.00  0.00    -0.001 A 
ATOM     27  C   UNL     1       3.786  -6.552   4.903  0.00  0.00    +0.010 A 
ATOM     28  C   UNL     1       4.154  -7.826   5.170  0.00  0.00    +0.001 A 
ATOM     29  C   UNL     1       4.239  -8.308   6.484  0.00  0.00    +0.002 A 
ATOM     30  C   UNL     1       3.963  -7.543   7.561  0.00  0.00    +0.026 A 
ATOM     31  C   UNL     1       3.567  -6.187   7.397  0.00  0.00    +0.043 A 
ATOM     32  N   UNL     1       3.251  -5.258   8.266  0.00  0.00    -0.380 N 
ATOM     33  C   UNL     1       2.923  -4.027   7.538  0.00  0.00    +0.144 C 
ATOM     34  H   UNL     1       3.240  -5.366   9.230  0.00  0.00    +0.160 HD
ENDBRANCH  24  25
ENDBRANCH  23  24
ENDBRANCH  21  23
ENDBRANCH   4  19
TORSDOF 5
