REMARK  Name = ZINC06388230
REMARK  11 active torsions:
REMARK  status: ('A' for Active; 'I' for Inactive)
REMARK    1  A    between atoms: C_1  and  C_2
REMARK    2  A    between atoms: C_2  and  C_3
REMARK    3  A    between atoms: C_8  and  N_9
REMARK    4  A    between atoms: N_9  and  C_10
REMARK    5  A    between atoms: C_11  and  C_12
REMARK    6  A    between atoms: C_11  and  C_14
REMARK    7  A    between atoms: C_16  and  C_19
REMARK    8  A    between atoms: C_22  and  C_25
REMARK    9  A    between atoms: C_25  and  C_26
REMARK   10  A    between atoms: C_26  and  C_27
REMARK   11  A    between atoms: C_26  and  C_28
REMARK                            x       y       z     vdW  Elec       q    Type
REMARK                         _______ _______ _______ _____ _____    ______ ____
ROOT
ATOM      1  C   UNL     1      -0.018   1.472   0.010  0.00  0.00    +0.120 A 
ATOM      2  N   UNL     1       0.996   2.324   0.005  0.00  0.00    -0.238 NA
ATOM      3  C   UNL     1       0.793   3.630   0.014  0.00  0.00    +0.079 A 
ATOM      4  C   UNL     1      -0.488   4.111   0.028  0.00  0.00    +0.075 A 
ATOM      5  S   UNL     1      -1.417   2.584   0.021  0.00  0.00    -0.074 S 
ENDROOT
BRANCH   3   6
ATOM      6  C   UNL     1       1.944   4.566   0.007  0.00  0.00    +0.001 A 
ATOM      7  C   UNL     1       1.726   5.942   0.010  0.00  0.00    +0.010 A 
ATOM      8  C   UNL     1       2.801   6.809   0.009  0.00  0.00    +0.004 A 
ATOM      9  C   UNL     1       4.092   6.313  -0.006  0.00  0.00    -0.047 A 
ATOM     10  C   UNL     1       4.314   4.947  -0.014  0.00  0.00    +0.004 A 
ATOM     11  C   UNL     1       3.247   4.072  -0.007  0.00  0.00    +0.010 A 
BRANCH   9  12
ATOM     12  C   UNL     1       5.261   7.263  -0.013  0.00  0.00    +0.038 C 
BRANCH  12  13
ATOM     13  C   UNL     1       5.643   7.591  -1.458  0.00  0.00    -0.013 C 
ATOM     14  C   UNL     1       6.746   8.651  -1.467  0.00  0.00    +0.007 C 
ATOM     15  C   UNL     1       6.146   6.325  -2.153  0.00  0.00    +0.007 C 
ENDBRANCH  12  13
ENDBRANCH   9  12
ENDBRANCH   3   6
BRANCH   1  17
ATOM     16  C   UNL     1      -1.169  -0.702   0.009  0.00  0.00    +0.093 C 
ATOM     17  C   UNL     1       0.002  -0.004   0.002  0.00  0.00    +0.098 C 
BRANCH  16  18
ATOM     18  N   UNL     1      -1.150  -2.068   0.002  0.00  0.00    -0.319 N 
ATOM     19  H   UNL     1      -0.190  -2.605  -0.010  0.00  0.00    +0.152 HD
BRANCH  18  25
ATOM     20  C   UNL     1      -2.334  -4.172  -0.004  0.00  0.00    -0.026 A 
ATOM     21  C   UNL     1      -3.522  -4.875   0.008  0.00  0.00    +0.005 A 
ATOM     22  C   UNL     1      -4.728  -4.199   0.023  0.00  0.00    +0.000 A 
ATOM     23  C   UNL     1      -4.748  -2.816   0.032  0.00  0.00    +0.002 A 
ATOM     24  C   UNL     1      -3.564  -2.106   0.025  0.00  0.00    +0.023 A 
ATOM     25  C   UNL     1      -2.351  -2.783   0.010  0.00  0.00    +0.034 A 
BRANCH  20  27
ATOM     26  C   UNL     1      -0.497  -5.064   1.403  0.00  0.00    +0.009 C 
ATOM     27  C   UNL     1      -1.020  -4.910  -0.027  0.00  0.00    +0.033 C 
ENDBRANCH  20  27
ENDBRANCH  18  25
ENDBRANCH  16  18
BRANCH  17  28
ATOM     28  C   UNL     1       1.252  -0.703  -0.014  0.00  0.00    +0.103 C 
ATOM     29  N   UNL     1       2.243  -1.258  -0.026  0.00  0.00    -0.191 NA
ENDBRANCH  17  28
ENDBRANCH   1  17
TORSDOF 8
