REMARK  Name = ZINC43746366
REMARK  6 active torsions:
REMARK  status: ('A' for Active; 'I' for Inactive)
REMARK    1  A    between atoms: C_1  and  C_2
REMARK    2  A    between atoms: C_18  and  C_20
REMARK    3  A    between atoms: C_20  and  N_21
REMARK    4  A    between atoms: N_21  and  C_22
REMARK    5  A    between atoms: C_22  and  C_23
REMARK    6  A    between atoms: C_23  and  C_24
REMARK                            x       y       z     vdW  Elec       q    Type
REMARK                         _______ _______ _______ _____ _____    ______ ____
ROOT
ATOM      1  C   UNL     1      -0.019   1.526   0.010  0.00  0.00    +0.011 C 
ATOM      2  C   UNL     1       0.002  -0.004   0.002  0.00  0.00    -0.023 C 
ATOM      3  C   UNL     1       0.725  -0.494  -1.251  0.00  0.00    +0.007 C 
ATOM      4  C   UNL     1       2.123   0.126  -1.312  0.00  0.00    +0.003 C 
ATOM      5  C   UNL     1       2.942  -0.333  -0.102  0.00  0.00    +0.037 C 
ATOM      6  C   UNL     1       2.185   0.015   1.181  0.00  0.00    +0.096 C 
ATOM      7  C   UNL     1       0.745  -0.510   1.246  0.00  0.00    +0.030 C 
ATOM      8  C   UNL     1       0.786  -2.036   1.199  0.00  0.00    +0.014 C 
ATOM      9  C   UNL     1      -0.623  -2.629   1.220  0.00  0.00    +0.042 C 
ATOM     10  C   UNL     1      -1.486  -2.018   0.098  0.00  0.00    +0.181 C 
ATOM     11  C   UNL     1      -1.428  -0.529   0.027  0.00  0.00    +0.052 C 
ATOM     12  O   UNL     1      -0.985  -2.639  -1.091  0.00  0.00    -0.461 OA
ATOM     13  C   UNL     1      -0.774  -3.944  -0.807  0.00  0.00    +0.309 C 
ATOM     14  O   UNL     1      -0.803  -4.850  -1.605  0.00  0.00    -0.251 OA
ATOM     15  C   UNL     1      -0.490  -4.094   0.701  0.00  0.00    +0.087 C 
ATOM     16  C   UNL     1       2.490   1.349   1.857  0.00  0.00    +0.196 C 
ATOM     17  O   UNL     1       2.922   0.097   2.397  0.00  0.00    -0.368 OA
ENDROOT
BRANCH  15  18
ATOM     18  C   UNL     1      -1.531  -4.997   1.365  0.00  0.00    -0.068 C 
BRANCH  18  19
ATOM     19  N   UNL     1      -1.308  -6.388   0.951  0.00  0.00    +0.380 N 
ATOM     20  H   UNL     1      -1.394  -6.458  -0.052  0.00  0.00    -0.086 HD
ATOM     21  H   UNL     1      -0.384  -6.679   1.231  0.00  0.00    -0.086 HD
BRANCH  19  22
ATOM     22  C   UNL     1      -2.308  -7.255   1.589  0.00  0.00    -0.078 C 
BRANCH  22  23
ATOM     23  C   UNL     1      -2.076  -8.705   1.158  0.00  0.00    +0.018 C 
BRANCH  23  24
ATOM     24  C   UNL     1      -3.101  -9.594   1.812  0.00  0.00    -0.024 A 
ATOM     25  C   UNL     1      -2.950 -10.279   2.957  0.00  0.00    +0.087 A 
ATOM     26  N   UNL     1      -4.093 -10.976   3.239  0.00  0.00    -0.360 N 
ATOM     27  H   UNL     1      -4.223 -11.544   4.014  0.00  0.00    +0.165 HD
ATOM     28  C   UNL     1      -5.033 -10.750   2.257  0.00  0.00    +0.047 A 
ATOM     29  C   UNL     1      -4.455  -9.870   1.324  0.00  0.00    +0.003 A 
ATOM     30  C   UNL     1      -5.188  -9.455   0.211  0.00  0.00    +0.010 A 
ATOM     31  C   UNL     1      -6.466  -9.905   0.035  0.00  0.00    +0.001 A 
ATOM     32  C   UNL     1      -7.042 -10.771   0.954  0.00  0.00    +0.002 A 
ATOM     33  C   UNL     1      -6.333 -11.199   2.055  0.00  0.00    +0.026 A 
ENDBRANCH  23  24
ENDBRANCH  22  23
ENDBRANCH  19  22
ENDBRANCH  18  19
ENDBRANCH  15  18
TORSDOF 5
