REMARK  Name = ZINC09897039
REMARK  8 active torsions:
REMARK  status: ('A' for Active; 'I' for Inactive)
REMARK    1  A    between atoms: C_1  and  C_2
REMARK    2  A    between atoms: C_5  and  C_8
REMARK    3  A    between atoms: C_8  and  C_10
REMARK    4  A    between atoms: C_8  and  N_15
REMARK    5  A    between atoms: C_16  and  C_18
REMARK    6  A    between atoms: C_19  and  C_20
REMARK    7  A    between atoms: C_21  and  C_29
REMARK    8  A    between atoms: C_26  and  C_28
REMARK                            x       y       z     vdW  Elec       q    Type
REMARK                         _______ _______ _______ _____ _____    ______ ____
ROOT
ATOM      1  N   UNL     1      -0.932   3.422  -0.863  0.00  0.00    -0.300 N 
ATOM      2  C   UNL     1      -1.185   3.325  -2.183  0.00  0.00    +0.238 C 
ATOM      3  O   UNL     1      -1.637   2.290  -2.642  0.00  0.00    -0.271 OA
ATOM      4  H   UNL     1      -0.574   4.246  -0.497  0.00  0.00    +0.150 HD
ENDROOT
BRANCH   2   5
ATOM      5  C   UNL     1      -0.928   4.420  -3.033  0.00  0.00    +0.069 C 
ATOM      6  C   UNL     1      -1.184   4.322  -4.366  0.00  0.00    +0.033 C 
BRANCH   6   7
ATOM      7  C   UNL     1      -0.927   5.416  -5.215  0.00  0.00    +0.070 A 
ATOM      8  C   UNL     1      -1.337   6.723  -5.022  0.00  0.00    +0.065 A 
ATOM      9  N   UNL     1      -0.894   7.447  -6.043  0.00  0.00    -0.226 NA
ATOM     10  C   UNL     1      -0.230   6.680  -6.870  0.00  0.00    +0.178 A 
ATOM     11  N   UNL     1      -0.200   5.390  -6.418  0.00  0.00    -0.293 N 
ATOM     12  C   UNL     1       0.474   4.471  -7.188  0.00  0.00    +0.104 A 
ATOM     13  C   UNL     1       1.071   4.838  -8.323  0.00  0.00    +0.007 A 
ATOM     14  S   UNL     1       0.694   6.583  -8.387  0.00  0.00    -0.055 S 
ATOM     15  C   UNL     1       1.851   3.998  -9.300  0.00  0.00    +0.053 C 
ATOM     16  C   UNL     1      -2.144   7.235  -3.857  0.00  0.00    +0.068 C 
ENDBRANCH   6   7
ENDBRANCH   2   5
BRANCH   1  17
ATOM     17  C   UNL     1      -1.200   2.284   0.020  0.00  0.00    +0.140 C 
BRANCH  17  22
ATOM     18  C   UNL     1      -2.100   4.190   5.401  0.00  0.00    +0.044 C 
ATOM     19  C   UNL     1      -1.865   3.693   3.998  0.00  0.00    -0.050 A 
ATOM     20  C   UNL     1      -2.637   2.665   3.491  0.00  0.00    +0.004 A 
ATOM     21  C   UNL     1      -2.422   2.209   2.204  0.00  0.00    +0.006 A 
ATOM     22  C   UNL     1      -1.434   2.781   1.424  0.00  0.00    -0.022 A 
ATOM     23  C   UNL     1      -0.659   3.806   1.933  0.00  0.00    +0.006 A 
ATOM     24  C   UNL     1      -0.877   4.266   3.218  0.00  0.00    +0.004 A 
ENDBRANCH  17  22
BRANCH  17  25
ATOM     25  C   UNL     1      -0.016   1.351   0.009  0.00  0.00    +0.014 A 
ATOM     26  C   UNL     1       0.002  -0.004   0.002  0.00  0.00    +0.013 A 
ATOM     27  C   UNL     1       1.220  -0.658  -0.013  0.00  0.00    +0.008 A 
ATOM     28  C   UNL     1       2.360   0.076  -0.020  0.00  0.00    +0.045 A 
ATOM     29  S   UNL     1       1.725   1.744  -0.005  0.00  0.00    -0.099 S 
ENDBRANCH  17  25
ENDBRANCH   1  17
TORSDOF 5
