REMARK  Name = ZINC39469774
REMARK  8 active torsions:
REMARK  status: ('A' for Active; 'I' for Inactive)
REMARK    1  A    between atoms: C_1  and  C_2
REMARK    2  A    between atoms: C_2  and  O_3
REMARK    3  A    between atoms: O_3  and  C_4
REMARK    4  A    between atoms: P_13  and  S_24
REMARK    5  A    between atoms: C_21  and  S_22
REMARK    6  A    between atoms: S_22  and  C_23
REMARK    7  A    between atoms: S_24  and  O_27
REMARK    8  A    between atoms: O_27  and  C_28
REMARK                            x       y       z     vdW  Elec       q    Type
REMARK                         _______ _______ _______ _____ _____    ______ ____
ROOT
ATOM      1  C   UNL     1       0.777  -1.810  -1.336  0.00  0.00    +0.130 C 
ATOM      2  C   UNL     1       0.265  -2.641  -0.425  0.00  0.00    +0.024 C 
ATOM      3  C   UNL     1       0.403  -4.127  -0.617  0.00  0.00    +0.019 C 
ATOM      4  C   UNL     1       0.287  -4.853   0.717  0.00  0.00    -0.002 C 
ATOM      5  C   UNL     1       1.453  -4.481   1.641  0.00  0.00    -0.020 C 
ATOM      6  C   UNL     1       1.269  -5.276   2.941  0.00  0.00    +0.158 C 
ATOM      7  O   UNL     1       2.312  -4.929   3.869  0.00  0.00    -0.301 OA
ATOM      8  P   UNL     1       3.847  -4.979   3.332  0.00  0.00    +0.431 P 
ATOM      9  O   UNL     1       4.349  -6.371   3.338  0.00  0.00    -0.246 OA
ATOM     10  N   UNL     1       3.784  -4.399   1.788  0.00  0.00    -0.271 NA
ATOM     11  N   UNL     1       2.728  -4.800   0.996  0.00  0.00    +0.398 N 
ATOM     12  C   UNL     1       2.865  -4.055  -0.265  0.00  0.00    -0.046 C 
ATOM     13  C   UNL     1       1.770  -4.441  -1.233  0.00  0.00    +0.006 C 
ATOM     14  C   UNL     1       1.942  -3.614  -2.485  0.00  0.00    -0.006 C 
ATOM     15  C   UNL     1       1.455  -2.368  -2.527  0.00  0.00    +0.045 C 
ATOM     16  H   UNL     1       4.467  -3.800   1.450  0.00  0.00    +0.113 HD
ATOM     17  H   UNL     1       2.784  -5.793   0.827  0.00  0.00    -0.055 HD
ENDROOT
BRANCH   8  18
ATOM     18  S   UNL     1       5.086  -3.748   4.534  0.00  0.00    +0.209 S 
ATOM     19  O   UNL     1       6.420  -3.959   4.092  0.00  0.00    -0.126 OA
ATOM     20  O   UNL     1       4.485  -2.460   4.552  0.00  0.00    -0.126 OA
BRANCH  18  21
ATOM     21  O   UNL     1       5.009  -4.284   5.956  0.00  0.00    -0.339 OA
BRANCH  21  22
ATOM     22  C   UNL     1       5.712  -5.430   6.154  0.00  0.00    +0.157 A 
ATOM     23  C   UNL     1       5.103  -6.661   5.954  0.00  0.00    +0.048 A 
ATOM     24  C   UNL     1       5.819  -7.825   6.154  0.00  0.00    +0.004 A 
ATOM     25  C   UNL     1       7.141  -7.764   6.555  0.00  0.00    +0.000 A 
ATOM     26  C   UNL     1       7.750  -6.539   6.755  0.00  0.00    +0.004 A 
ATOM     27  C   UNL     1       7.040  -5.372   6.550  0.00  0.00    +0.048 A 
ENDBRANCH  21  22
ENDBRANCH  18  21
ENDBRANCH   8  18
BRANCH  15  28
ATOM     28  S   UNL     1       1.627  -1.394  -3.986  0.00  0.00    -0.125 S 
ATOM     29  C   UNL     1       2.503  -2.485  -5.140  0.00  0.00    +0.090 C 
ENDBRANCH  15  28
BRANCH   1  30
ATOM     30  O   UNL     1       0.671  -0.465  -1.174  0.00  0.00    -0.491 OA
BRANCH  30  32
ATOM     31  C   UNL     1      -0.019   1.526   0.010  0.00  0.00    +0.048 C 
ATOM     32  C   UNL     1       0.002  -0.004   0.002  0.00  0.00    +0.226 C 
ENDBRANCH  30  32
ENDBRANCH   1  30
TORSDOF 6
