REMARK  Name = ZINC35931416
REMARK  15 active torsions:
REMARK  status: ('A' for Active; 'I' for Inactive)
REMARK    1  A    between atoms: C_1  and  C_2
REMARK    2  A    between atoms: C_2  and  C_3
REMARK    3  A    between atoms: C_3  and  C_4
REMARK    4  A    between atoms: C_4  and  C_6
REMARK    5  A    between atoms: C_4  and  O_37
REMARK    6  A    between atoms: C_6  and  N_7
REMARK    7  A    between atoms: N_7  and  C_8
REMARK    8  A    between atoms: N_7  and  C_33
REMARK    9  A    between atoms: C_8  and  C_9
REMARK   10  A    between atoms: N_12  and  C_14
REMARK   11  A    between atoms: N_23  and  C_25
REMARK   12  A    between atoms: C_25  and  C_26
REMARK   13  A    between atoms: C_33  and  C_34
REMARK   14  A    between atoms: C_34  and  C_35
REMARK   15  A    between atoms: C_34  and  C_36
REMARK                            x       y       z     vdW  Elec       q    Type
REMARK                         _______ _______ _______ _____ _____    ______ ____
ROOT
ATOM      1  C   UNL     1       2.795  -5.624   4.479  0.00  0.00    +0.052 A 
ATOM      2  C   UNL     1       2.149  -6.582   5.253  0.00  0.00    +0.009 A 
ATOM      3  C   UNL     1       3.062  -7.531   5.595  0.00  0.00    +0.051 A 
ATOM      4  N   UNL     1       4.240  -7.184   5.051  0.00  0.00    -0.236 N 
ATOM      5  N   UNL     1       4.051  -5.983   4.350  0.00  0.00    -0.173 NA
ATOM      6  C   UNL     1       2.725  -8.732   6.443  0.00  0.00    +0.071 C 
ATOM      7  C   UNL     1       1.379  -8.460   7.130  0.00  0.00    +0.091 C 
ATOM      8  N   UNL     1       0.402  -7.997   6.135  0.00  0.00    -0.293 NA
ATOM      9  C   UNL     1       0.703  -6.630   5.679  0.00  0.00    +0.123 C 
ENDROOT
BRANCH   4  10
ATOM     10  C   UNL     1       5.443  -7.897   5.161  0.00  0.00    +0.066 A 
ATOM     11  C   UNL     1       5.438  -9.283   5.093  0.00  0.00    +0.030 A 
ATOM     12  C   UNL     1       6.623  -9.983   5.201  0.00  0.00    +0.040 A 
ATOM     13  C   UNL     1       7.816  -9.303   5.379  0.00  0.00    +0.124 A 
ATOM     14  C   UNL     1       7.823  -7.920   5.449  0.00  0.00    +0.040 A 
ATOM     15  C   UNL     1       6.640  -7.216   5.334  0.00  0.00    +0.030 A 
ATOM     16  F   UNL     1       8.975  -9.990   5.486  0.00  0.00    -0.205 F 
ENDBRANCH   4  10
BRANCH   1  17
ATOM     17  C   UNL     1       2.162  -4.392   3.885  0.00  0.00    -0.020 C 
BRANCH  17  18
ATOM     18  N   UNL     1       1.499  -4.742   2.622  0.00  0.00    +0.385 N 
ATOM     19  H   UNL     1       0.867  -5.513   2.777  0.00  0.00    -0.081 HD
BRANCH  18  20
ATOM     20  C   UNL     1       0.745  -3.583   2.127  0.00  0.00    -0.047 C 
BRANCH  20  21
ATOM     21  C   UNL     1      -0.045  -3.983   0.880  0.00  0.00    +0.098 C 
BRANCH  21  22
ATOM     22  O   UNL     1      -1.033  -4.953   1.233  0.00  0.00    -0.394 OA
ATOM     23  H   UNL     1      -1.673  -4.643   1.888  0.00  0.00    +0.210 HD
ENDBRANCH  21  22
BRANCH  21  24
ATOM     24  C   UNL     1      -0.731  -2.748   0.292  0.00  0.00    +0.029 C 
BRANCH  24  26
ATOM     25  C   UNL     1      -2.103  -1.888  -1.610  0.00  0.00    +0.004 C 
ATOM     26  C   UNL     1      -1.418  -3.123  -1.023  0.00  0.00    -0.001 C 
ENDBRANCH  24  26
ENDBRANCH  21  24
ENDBRANCH  20  21
ENDBRANCH  18  20
BRANCH  18  27
ATOM     27  C   UNL     1       2.510  -5.129   1.629  0.00  0.00    -0.075 C 
BRANCH  27  28
ATOM     28  C   UNL     1       2.844  -6.613   1.793  0.00  0.00    -0.034 C 
ATOM     29  C   UNL     1       1.603  -7.453   1.482  0.00  0.00    +0.005 C 
ATOM     30  C   UNL     1       3.970  -6.992   0.830  0.00  0.00    +0.005 C 
ENDBRANCH  27  28
ENDBRANCH  18  27
ENDBRANCH  17  18
ENDBRANCH   1  17
BRANCH   8  31
ATOM     31  C   UNL     1      -0.967  -8.087   6.661  0.00  0.00    +0.122 C 
BRANCH  31  32
ATOM     32  C   UNL     1      -1.381  -9.534   6.740  0.00  0.00    +0.002 A 
ATOM     33  C   UNL     1      -1.404 -10.181   7.962  0.00  0.00    +0.008 A 
ATOM     34  C   UNL     1      -1.783 -11.508   8.034  0.00  0.00    +0.000 A 
ATOM     35  C   UNL     1      -2.141 -12.190   6.886  0.00  0.00    +0.003 A 
ATOM     36  C   UNL     1      -2.119 -11.545   5.664  0.00  0.00    +0.038 A 
ATOM     37  C   UNL     1      -1.744 -10.214   5.590  0.00  0.00    +0.128 A 
ATOM     38  F   UNL     1      -1.727  -9.582   4.397  0.00  0.00    -0.205 F 
ENDBRANCH  31  32
ENDBRANCH   8  31
TORSDOF 12
