REMARK  Name = ZINC19731491
REMARK  11 active torsions:
REMARK  status: ('A' for Active; 'I' for Inactive)
REMARK    1  A    between atoms: C_1  and  N_2
REMARK    2  A    between atoms: N_2  and  C_3
REMARK    3  A    between atoms: N_2  and  C_4
REMARK    4  A    between atoms: C_7  and  C_10
REMARK    5  A    between atoms: C_11  and  C_12
REMARK    6  A    between atoms: C_12  and  N_13
REMARK    7  A    between atoms: N_13  and  C_14
REMARK    8  A    between atoms: C_17  and  C_30
REMARK    9  A    between atoms: N_19  and  C_21
REMARK   10  A    between atoms: N_32  and  C_33
REMARK   11  A    between atoms: C_33  and  C_34
REMARK                            x       y       z     vdW  Elec       q    Type
REMARK                         _______ _______ _______ _____ _____    ______ ____
ROOT
ATOM      1  C   UNL     1       2.908   4.857   9.979  0.00  0.00    +0.036 C 
ATOM      2  C   UNL     1       3.067   6.386  10.183  0.00  0.00    +0.010 C 
ATOM      3  C   UNL     1       3.221   6.483  11.721  0.00  0.00    +0.021 C 
ATOM      4  N   UNL     1       2.309   5.450  12.258  0.00  0.00    +0.391 N 
ATOM      5  C   UNL     1       2.102   4.422  11.222  0.00  0.00    -0.059 C 
ATOM      6  H   UNL     1       1.344   5.907  12.524  0.00  0.00    -0.080 HD
ENDROOT
BRANCH   4   7
ATOM      7  C   UNL     1       2.851   4.857  13.488  0.00  0.00    -0.059 C 
ATOM      8  C   UNL     1       4.088   3.987  13.178  0.00  0.00    +0.020 C 
ATOM      9  C   UNL     1       4.006   2.827  14.152  0.00  0.00    -0.046 A 
ATOM     10  C   UNL     1       4.975   1.921  14.550  0.00  0.00    +0.004 A 
ATOM     11  C   UNL     1       4.669   0.933  15.466  0.00  0.00    +0.000 A 
ATOM     12  C   UNL     1       3.391   0.848  15.987  0.00  0.00    +0.000 A 
ATOM     13  C   UNL     1       2.424   1.750  15.592  0.00  0.00    +0.004 A 
ATOM     14  C   UNL     1       2.728   2.741  14.673  0.00  0.00    -0.046 A 
ATOM     15  C   UNL     1       1.862   3.834  14.085  0.00  0.00    +0.020 C 
ENDBRANCH   4   7
BRANCH   3  16
ATOM     16  C   UNL     1       2.810   7.849  12.205  0.00  0.00    +0.200 C 
ATOM     17  O   UNL     1       1.847   7.971  12.932  0.00  0.00    -0.278 OA
ATOM     18  N   UNL     1       3.513   8.937  11.831  0.00  0.00    -0.312 N 
ATOM     19  H   UNL     1       4.387   8.827  11.172  0.00  0.00    +0.149 HD
BRANCH  18  20
ATOM     20  C   UNL     1       3.113  10.265  12.301  0.00  0.00    +0.141 C 
BRANCH  20  21
ATOM     21  C   UNL     1       4.055  11.300  11.743  0.00  0.00    -0.012 A 
ATOM     22  C   UNL     1       3.788  11.909  10.526  0.00  0.00    +0.008 A 
ATOM     23  C   UNL     1       4.683  12.856  10.052  0.00  0.00    +0.020 A 
ATOM     24  C   UNL     1       5.803  13.159  10.802  0.00  0.00    +0.111 A 
ATOM     25  N   UNL     1       6.025  12.560  11.955  0.00  0.00    -0.263 NA
ATOM     26  C   UNL     1       5.193  11.659  12.440  0.00  0.00    +0.115 A 
ENDBRANCH  20  21
ENDBRANCH  18  20
ENDBRANCH   3  16
BRANCH   1  27
ATOM     27  N   UNL     1       2.158   4.572   8.748  0.00  0.00    -0.312 NA
ATOM     28  H   UNL     1       2.478   5.279   7.969  0.00  0.00    +0.122 HD
BRANCH  27  29
ATOM     29  C   UNL     1       2.400   3.197   8.291  0.00  0.00    +0.108 C 
BRANCH  29  31
ATOM     30  C   UNL     1       2.237   2.514   5.939  0.00  0.00    +0.005 C 
ATOM     31  C   UNL     1       1.616   2.942   7.030  0.00  0.00    -0.011 C 
BRANCH  30  35
ATOM     32  C   UNL     1       0.027   1.794   2.382  0.00  0.00    +0.029 A 
ATOM     33  C   UNL     1      -0.624   2.248   3.523  0.00  0.00    +0.023 A 
ATOM     34  C   UNL     1       0.089   2.478   4.680  0.00  0.00    +0.010 A 
ATOM     35  C   UNL     1       1.468   2.264   4.702  0.00  0.00    -0.025 A 
ATOM     36  C   UNL     1       2.120   1.813   3.552  0.00  0.00    +0.010 A 
ATOM     37  C   UNL     1       1.401   1.581   2.400  0.00  0.00    +0.023 A 
BRANCH  32  39
ATOM     38  C   UNL     1      -0.013   1.086   0.008  0.00  0.00    +0.129 C 
ATOM     39  N   UNL     1      -0.698   1.558   1.213  0.00  0.00    -0.336 N 
ATOM     40  C   UNL     1      -2.146   1.783   1.192  0.00  0.00    +0.129 C 
ENDBRANCH  32  39
ENDBRANCH  30  35
ENDBRANCH  29  31
ENDBRANCH  27  29
ENDBRANCH   1  27
TORSDOF 9
