REMARK  Name = ZINC19520004
REMARK  13 active torsions:
REMARK  status: ('A' for Active; 'I' for Inactive)
REMARK    1  A    between atoms: C_1  and  C_2
REMARK    2  A    between atoms: C_2  and  O_3
REMARK    3  A    between atoms: O_3  and  C_4
REMARK    4  A    between atoms: C_8  and  C_11
REMARK    5  A    between atoms: C_9  and  O_10
REMARK    6  A    between atoms: C_11  and  N_12
REMARK    7  A    between atoms: N_12  and  C_13
REMARK    8  A    between atoms: N_12  and  C_20
REMARK    9  A    between atoms: C_13  and  C_14
REMARK   10  A    between atoms: C_22  and  C_28
REMARK   11  A    between atoms: C_22  and  C_29
REMARK   12  A    between atoms: C_24  and  C_26
REMARK   13  A    between atoms: C_24  and  C_27
REMARK                            x       y       z     vdW  Elec       q    Type
REMARK                         _______ _______ _______ _____ _____    ______ ____
ROOT
ATOM      1  N   UNL     1       3.962  -2.949  -4.598  0.00  0.00    -0.290 NA
ENDROOT
BRANCH   1   2
ATOM      2  C   UNL     1       3.790  -1.492  -4.721  0.00  0.00    +0.055 C 
ATOM      3  C   UNL     1       3.356  -1.156  -6.149  0.00  0.00    +0.006 C 
ATOM      4  C   UNL     1       3.185   0.355  -6.297  0.00  0.00    -0.072 C 
ATOM      5  N   UNL     1       4.377   1.085  -5.890  0.00  0.00    +0.386 N 
ATOM      6  C   UNL     1       5.003   0.708  -4.633  0.00  0.00    -0.072 C 
ATOM      7  C   UNL     1       5.127  -0.801  -4.452  0.00  0.00    +0.006 C 
ATOM      8  C   UNL     1       6.438   1.288  -4.637  0.00  0.00    -0.010 C 
ATOM      9  C   UNL     1       4.277   1.320  -3.433  0.00  0.00    -0.010 C 
ATOM     10  C   UNL     1       1.940   0.822  -5.544  0.00  0.00    -0.010 C 
ATOM     11  C   UNL     1       2.949   0.646  -7.797  0.00  0.00    -0.010 C 
ATOM     12  H   UNL     1       5.074   1.001  -6.635  0.00  0.00    -0.084 HD
ATOM     13  H   UNL     1       4.146   2.080  -5.850  0.00  0.00    -0.084 HD
ENDBRANCH   1   2
BRANCH   1  14
ATOM     14  C   UNL     1       2.706  -3.595  -4.195  0.00  0.00    +0.124 C 
BRANCH  14  19
ATOM     15  C   UNL     1       1.494  -2.030  -0.968  0.00  0.00    +0.162 A 
ATOM     16  C   UNL     1       2.021  -2.903  -0.029  0.00  0.00    +0.049 A 
ATOM     17  C   UNL     1       2.764  -3.994  -0.440  0.00  0.00    +0.004 A 
ATOM     18  C   UNL     1       2.985  -4.217  -1.786  0.00  0.00    +0.009 A 
ATOM     19  C   UNL     1       2.463  -3.349  -2.728  0.00  0.00    +0.012 A 
ATOM     20  C   UNL     1       1.712  -2.258  -2.323  0.00  0.00    +0.163 A 
BRANCH  20  21
ATOM     21  O   UNL     1       1.192  -1.407  -3.249  0.00  0.00    -0.503 OA
ATOM     22  H   UNL     1       1.782  -0.679  -3.488  0.00  0.00    +0.292 HD
ENDBRANCH  20  21
BRANCH  15  23
ATOM     23  O   UNL     1       0.762  -0.957  -0.565  0.00  0.00    -0.489 OA
BRANCH  23  25
ATOM     24  C   UNL     1      -0.263   0.464   1.099  0.00  0.00    +0.048 C 
ATOM     25  C   UNL     1       0.580  -0.787   0.842  0.00  0.00    +0.226 C 
ENDBRANCH  23  25
ENDBRANCH  15  23
ENDBRANCH  14  19
ENDBRANCH   1  14
BRANCH   1  26
ATOM     26  C   UNL     1       4.474  -3.526  -5.848  0.00  0.00    +0.140 C 
BRANCH  26  27
ATOM     27  C   UNL     1       5.949  -3.241  -5.966  0.00  0.00    +0.055 A 
ATOM     28  C   UNL     1       6.863  -4.175  -5.515  0.00  0.00    +0.024 A 
ATOM     29  C   UNL     1       8.218  -3.903  -5.628  0.00  0.00    +0.003 A 
ATOM     30  C   UNL     1       8.604  -2.697  -6.194  0.00  0.00    +0.020 A 
ATOM     31  C   UNL     1       7.633  -1.812  -6.622  0.00  0.00    +0.111 A 
ATOM     32  N   UNL     1       6.353  -2.107  -6.503  0.00  0.00    -0.259 NA
ENDBRANCH  26  27
ENDBRANCH   1  26
TORSDOF 8
