REMARK  Name = ZINC04680395
REMARK  9 active torsions:
REMARK  status: ('A' for Active; 'I' for Inactive)
REMARK    1  A    between atoms: C_1  and  C_2
REMARK    2  A    between atoms: C_2  and  C_3
REMARK    3  A    between atoms: C_6  and  N_9
REMARK    4  A    between atoms: N_11  and  C_26
REMARK    5  A    between atoms: C_15  and  C_16
REMARK    6  A    between atoms: C_20  and  O_23
REMARK    7  A    between atoms: C_21  and  O_22
REMARK    8  A    between atoms: O_23  and  C_24
REMARK    9  A    between atoms: C_26  and  C_27
REMARK                            x       y       z     vdW  Elec       q    Type
REMARK                         _______ _______ _______ _____ _____    ______ ____
ROOT
ATOM      1  N   UNL     1      -4.591   3.492  -0.890  0.00  0.00    -0.225 NA
ATOM      2  C   UNL     1      -4.087   2.796   0.104  0.00  0.00    +0.168 C 
ATOM      3  N   UNL     1      -3.628   3.251   1.321  0.00  0.00    -0.246 N 
ATOM      4  C   UNL     1      -3.152   2.406   2.220  0.00  0.00    +0.259 C 
ATOM      5  O   UNL     1      -2.748   2.790   3.303  0.00  0.00    -0.269 OA
ATOM      6  C   UNL     1      -3.128   0.979   1.850  0.00  0.00    +0.078 C 
ATOM      7  C   UNL     1      -2.695  -0.090   2.567  0.00  0.00    +0.032 C 
ATOM      8  S   UNL     1      -3.828   1.033   0.207  0.00  0.00    -0.049 S 
ENDROOT
BRANCH   1  12
ATOM      9  C   UNL     1      -4.326   7.621  -0.874  0.00  0.00    -0.047 A 
ATOM     10  C   UNL     1      -3.248   6.864  -1.297  0.00  0.00    +0.006 A 
ATOM     11  C   UNL     1      -3.329   5.487  -1.305  0.00  0.00    +0.028 A 
ATOM     12  C   UNL     1      -4.503   4.857  -0.884  0.00  0.00    +0.067 A 
ATOM     13  C   UNL     1      -5.589   5.628  -0.464  0.00  0.00    +0.028 A 
ATOM     14  C   UNL     1      -5.492   7.004  -0.456  0.00  0.00    +0.006 A 
BRANCH   9  16
ATOM     15  C   UNL     1      -4.701   9.671  -2.217  0.00  0.00    +0.009 C 
ATOM     16  C   UNL     1      -4.230   9.125  -0.868  0.00  0.00    +0.032 C 
ENDBRANCH   9  16
ENDBRANCH   1  12
BRANCH   7  17
ATOM     17  C   UNL     1      -2.007   0.115   3.848  0.00  0.00    +0.021 A 
ATOM     18  C   UNL     1      -1.038   1.119   3.973  0.00  0.00    +0.012 A 
ATOM     19  C   UNL     1      -0.399   1.312   5.178  0.00  0.00    +0.004 A 
ATOM     20  C   UNL     1      -0.700   0.509   6.266  0.00  0.00    +0.049 A 
ATOM     21  C   UNL     1      -1.652  -0.492   6.157  0.00  0.00    +0.162 A 
ATOM     22  C   UNL     1      -2.311  -0.697   4.950  0.00  0.00    +0.166 A 
BRANCH  22  23
ATOM     23  O   UNL     1      -3.244  -1.677   4.840  0.00  0.00    -0.503 OA
ATOM     24  H   UNL     1      -2.887  -2.531   4.561  0.00  0.00    +0.292 HD
ENDBRANCH  22  23
BRANCH  21  25
ATOM     25  O   UNL     1      -1.941  -1.275   7.231  0.00  0.00    -0.491 OA
ATOM     26  C   UNL     1      -1.226  -1.009   8.439  0.00  0.00    +0.277 C 
ENDBRANCH  21  25
ENDBRANCH   7  17
BRANCH   3  27
ATOM     27  C   UNL     1      -3.675   4.684   1.625  0.00  0.00    +0.112 C 
ATOM     28  C   UNL     1      -4.921   4.988   2.458  0.00  0.00    +0.025 C 
ENDBRANCH   3  27
TORSDOF 6
