REMARK  Name = ZINC18192916
REMARK  7 active torsions:
REMARK  status: ('A' for Active; 'I' for Inactive)
REMARK    1  A    between atoms: C_1  and  C_2
REMARK    2  A    between atoms: C_5  and  C_8
REMARK    3  A    between atoms: N_16  and  C_19
REMARK    4  A    between atoms: C_20  and  C_27
REMARK    5  A    between atoms: C_22  and  C_26
REMARK    6  A    between atoms: C_24  and  C_25
REMARK    7  A    between atoms: N_29  and  C_30
REMARK                            x       y       z     vdW  Elec       q    Type
REMARK                         _______ _______ _______ _____ _____    ______ ____
ROOT
ATOM      1  C   UNL     1       0.142  -4.279  -0.279  0.00  0.00    +0.157 C 
ATOM      2  C   UNL     1       1.553  -4.819   0.050  0.00  0.00    +0.145 C 
ATOM      3  C   UNL     1       1.512  -5.024   1.588  0.00  0.00    +0.249 C 
ATOM      4  C   UNL     1       2.539  -4.037   2.097  0.00  0.00    +0.259 C 
ATOM      5  O   UNL     1       2.848  -3.883   3.260  0.00  0.00    -0.272 OA
ATOM      6  N   UNL     1       3.055  -3.360   1.065  0.00  0.00    -0.207 N 
ATOM      7  C   UNL     1       2.569  -3.718  -0.148  0.00  0.00    +0.235 C 
ATOM      8  O   UNL     1       2.886  -3.241  -1.217  0.00  0.00    -0.274 OA
ATOM      9  O   UNL     1       0.198  -4.606   2.000  0.00  0.00    -0.257 OA
ATOM     10  N   UNL     1      -0.667  -4.745   0.873  0.00  0.00    -0.244 N 
ENDROOT
BRANCH   6  11
ATOM     11  C   UNL     1       4.027  -2.362   1.222  0.00  0.00    +0.050 A 
ATOM     12  C   UNL     1       3.659  -1.093   1.647  0.00  0.00    -0.028 A 
ATOM     13  C   UNL     1       4.619  -0.112   1.801  0.00  0.00    +0.008 A 
ATOM     14  C   UNL     1       5.946  -0.393   1.532  0.00  0.00    -0.050 A 
ATOM     15  C   UNL     1       6.316  -1.656   1.108  0.00  0.00    +0.008 A 
ATOM     16  C   UNL     1       5.361  -2.642   0.958  0.00  0.00    -0.028 A 
ATOM     17  C   UNL     1       5.766  -4.021   0.502  0.00  0.00    +0.046 C 
ATOM     18  C   UNL     1       6.990   0.680   1.700  0.00  0.00    +0.044 C 
ATOM     19  C   UNL     1       2.213  -0.786   1.941  0.00  0.00    +0.046 C 
ENDBRANCH   6  11
BRANCH   1  24
ATOM     20  C   UNL     1       0.169   1.493  -0.563  0.00  0.00    +0.044 C 
ATOM     21  C   UNL     1       0.162  -0.013  -0.489  0.00  0.00    -0.050 A 
ATOM     22  C   UNL     1       0.610  -0.759  -1.562  0.00  0.00    +0.004 A 
ATOM     23  C   UNL     1       0.604  -2.140  -1.494  0.00  0.00    +0.006 A 
ATOM     24  C   UNL     1       0.150  -2.774  -0.353  0.00  0.00    -0.022 A 
ATOM     25  C   UNL     1      -0.298  -2.027   0.721  0.00  0.00    +0.006 A 
ATOM     26  C   UNL     1      -0.287  -0.646   0.654  0.00  0.00    +0.004 A 
ENDBRANCH   1  24
BRANCH  10  27
ATOM     27  C   UNL     1      -1.978  -5.226   0.858  0.00  0.00    +0.065 A 
ATOM     28  C   UNL     1      -2.674  -5.314  -0.342  0.00  0.00    +0.028 A 
ATOM     29  C   UNL     1      -3.970  -5.790  -0.354  0.00  0.00    +0.002 A 
ATOM     30  C   UNL     1      -4.576  -6.179   0.827  0.00  0.00    +0.000 A 
ATOM     31  C   UNL     1      -3.887  -6.093   2.023  0.00  0.00    +0.002 A 
ATOM     32  C   UNL     1      -2.588  -5.623   2.041  0.00  0.00    +0.028 A 
ENDBRANCH  10  27
TORSDOF 3
