REMARK  Name = ZINC46055659
REMARK  9 active torsions:
REMARK  status: ('A' for Active; 'I' for Inactive)
REMARK    1  A    between atoms: C_1  and  C_2
REMARK    2  A    between atoms: C_2  and  C_4
REMARK    3  A    between atoms: C_2  and  N_10
REMARK    4  A    between atoms: C_4  and  C_5
REMARK    5  A    between atoms: C_11  and  C_13
REMARK    6  A    between atoms: N_16  and  C_19
REMARK    7  A    between atoms: C_19  and  C_20
REMARK    8  A    between atoms: N_28  and  C_29
REMARK    9  A    between atoms: C_29  and  C_30
REMARK                            x       y       z     vdW  Elec       q    Type
REMARK                         _______ _______ _______ _____ _____    ______ ____
ROOT
ATOM      1  C   UNL     1       2.663  -0.709   2.537  0.00  0.00    +0.071 C 
ATOM      2  C   UNL     1       2.534   0.209   3.756  0.00  0.00    -0.006 C 
ATOM      3  C   UNL     1       3.335  -0.381   4.919  0.00  0.00    -0.078 C 
ATOM      4  N   UNL     1       4.747  -0.495   4.537  0.00  0.00    +0.383 N 
ATOM      5  C   UNL     1       4.886  -1.430   3.414  0.00  0.00    -0.078 C 
ATOM      6  C   UNL     1       4.145  -0.880   2.193  0.00  0.00    -0.006 C 
ATOM      7  H   UNL     1       5.095   0.412   4.263  0.00  0.00    -0.081 HD
ENDROOT
BRANCH   1   9
ATOM      8  N   UNL     1       0.618   0.149   1.441  0.00  0.00    -0.312 N 
ATOM      9  C   UNL     1       1.941  -0.095   1.365  0.00  0.00    +0.216 C 
ATOM     10  O   UNL     1       2.551   0.180   0.353  0.00  0.00    -0.276 OA
ATOM     11  H   UNL     1       0.130  -0.070   2.250  0.00  0.00    +0.149 HD
BRANCH   8  13
ATOM     12  C   UNL     1       0.052   2.269   0.360  0.00  0.00    +0.028 C 
ATOM     13  C   UNL     1      -0.083   0.747   0.302  0.00  0.00    +0.077 C 
BRANCH  13  14
ATOM     14  C   UNL     1      -1.564   0.364   0.357  0.00  0.00    +0.096 C 
BRANCH  14  15
ATOM     15  C   UNL     1      -1.705  -1.125   0.176  0.00  0.00    +0.107 A 
ATOM     16  C   UNL     1      -1.708  -2.041   1.161  0.00  0.00    +0.045 A 
ATOM     17  C   UNL     1      -1.863  -3.304   0.546  0.00  0.00    +0.041 A 
ATOM     18  C   UNL     1      -1.945  -3.085  -0.778  0.00  0.00    +0.195 A 
ATOM     19  O   UNL     1      -1.855  -1.763  -0.997  0.00  0.00    -0.468 OA
ENDBRANCH  14  15
ENDBRANCH  13  14
ENDBRANCH   8  13
ENDBRANCH   1   9
BRANCH   4  20
ATOM     20  C   UNL     1       5.524  -0.988   5.682  0.00  0.00    -0.024 C 
BRANCH  20  21
ATOM     21  C   UNL     1       6.992  -0.968   5.339  0.00  0.00    +0.004 A 
ATOM     22  C   UNL     1       7.689  -2.015   4.871  0.00  0.00    +0.029 A 
ATOM     23  C   UNL     1       9.067  -1.559   4.675  0.00  0.00    +0.000 A 
ATOM     24  C   UNL     1      10.236  -2.171   4.219  0.00  0.00    +0.010 A 
ATOM     25  C   UNL     1      11.396  -1.452   4.151  0.00  0.00    +0.001 A 
ATOM     26  C   UNL     1      11.422  -0.117   4.531  0.00  0.00    +0.002 A 
ATOM     27  C   UNL     1      10.280   0.507   4.984  0.00  0.00    +0.026 A 
ATOM     28  C   UNL     1       9.088  -0.206   5.061  0.00  0.00    +0.049 A 
ATOM     29  N   UNL     1       7.810   0.123   5.455  0.00  0.00    -0.341 N 
BRANCH  29  30
ATOM     30  C   UNL     1       7.390   1.444   5.929  0.00  0.00    +0.157 C 
BRANCH  30  31
ATOM     31  C   UNL     1       7.663   1.557   7.407  0.00  0.00    -0.026 A 
ATOM     32  C   UNL     1       6.664   1.269   8.319  0.00  0.00    +0.005 A 
ATOM     33  C   UNL     1       6.914   1.373   9.674  0.00  0.00    +0.002 A 
ATOM     34  C   UNL     1       8.163   1.765  10.119  0.00  0.00    +0.020 A 
ATOM     35  C   UNL     1       9.162   2.053   9.207  0.00  0.00    +0.041 A 
ATOM     36  C   UNL     1       8.914   1.943   7.851  0.00  0.00    +0.025 A 
ATOM     37 CL   UNL     1      10.731   2.545   9.766  0.00  0.00    -0.084 Cl
ENDBRANCH  30  31
ENDBRANCH  29  30
ENDBRANCH  20  21
ENDBRANCH   4  20
TORSDOF 8
