REMARK  Name = ZINC12321946
REMARK  5 active torsions:
REMARK  status: ('A' for Active; 'I' for Inactive)
REMARK    1  A    between atoms: C_1  and  O_2
REMARK    2  A    between atoms: O_2  and  C_3
REMARK    3  A    between atoms: C_5  and  C_10
REMARK    4  A    between atoms: C_8  and  O_9
REMARK    5  A    between atoms: C_15  and  C_20
REMARK                            x       y       z     vdW  Elec       q    Type
REMARK                         _______ _______ _______ _____ _____    ______ ____
ROOT
ATOM      1  C   UNL     1       1.342   3.721  -0.026  0.00  0.00    +0.137 C 
ATOM      2  C   UNL     1       1.360   2.211   0.092  0.00  0.00    +0.037 C 
ATOM      3  C   UNL     1       0.348   1.331   0.100  0.00  0.00    +0.019 C 
ATOM      4  C   UNL     1       0.610  -0.164   0.191  0.00  0.00    +0.059 C 
ATOM      5  C   UNL     1       1.920  -0.505  -0.518  0.00  0.00    +0.032 C 
ATOM      6  C   UNL     1       3.035   0.267   0.199  0.00  0.00    +0.088 C 
ATOM      7  C   UNL     1       2.694   1.723   0.188  0.00  0.00    +0.163 C 
ATOM      8  O   UNL     1       3.600   2.529   0.265  0.00  0.00    -0.292 OA
ATOM      9  N   UNL     1      -0.976   1.655   0.052  0.00  0.00    -0.297 N 
ATOM     10  C   UNL     1      -1.481   2.627  -0.800  0.00  0.00    +0.208 A 
ATOM     11  C   UNL     1      -1.002   3.999  -0.702  0.00  0.00    +0.205 A 
ATOM     12  N   UNL     1      -1.687   4.739  -1.516  0.00  0.00    -0.032 NA
ATOM     13  O   UNL     1      -2.591   3.885  -2.204  0.00  0.00    -0.239 OA
ATOM     14  N   UNL     1      -2.402   2.567  -1.707  0.00  0.00    -0.032 NA
ATOM     15  N   UNL     1       0.043   4.346   0.152  0.00  0.00    -0.313 N 
ATOM     16  H   UNL     1      -1.591   1.186   0.637  0.00  0.00    +0.153 HD
ATOM     17  H   UNL     1      -0.095   4.998   0.858  0.00  0.00    +0.149 HD
ENDROOT
BRANCH   5  18
ATOM     18  C   UNL     1       2.181  -1.987  -0.430  0.00  0.00    -0.043 A 
ATOM     19  C   UNL     1       2.315  -2.592   0.806  0.00  0.00    +0.005 A 
ATOM     20  C   UNL     1       2.548  -3.952   0.887  0.00  0.00    +0.020 A 
ATOM     21  C   UNL     1       2.659  -4.705  -0.268  0.00  0.00    +0.041 A 
ATOM     22  C   UNL     1       2.530  -4.098  -1.504  0.00  0.00    +0.020 A 
ATOM     23  C   UNL     1       2.291  -2.739  -1.584  0.00  0.00    +0.005 A 
ATOM     24 CL   UNL     1       2.958  -6.412  -0.167  0.00  0.00    -0.084 Cl
ENDBRANCH   5  18
BRANCH   1  27
ATOM     25  C   UNL     1       3.530   5.142  -2.758  0.00  0.00    +0.162 A 
ATOM     26  C   UNL     1       3.049   4.797  -1.505  0.00  0.00    +0.055 A 
ATOM     27  C   UNL     1       1.863   4.096  -1.389  0.00  0.00    -0.019 A 
ATOM     28  C   UNL     1       1.158   3.733  -2.521  0.00  0.00    +0.009 A 
ATOM     29  C   UNL     1       1.630   4.079  -3.774  0.00  0.00    +0.049 A 
ATOM     30  C   UNL     1       2.817   4.781  -3.897  0.00  0.00    +0.158 A 
BRANCH  25  32
ATOM     31  C   UNL     1       5.375   6.167  -1.661  0.00  0.00    +0.277 C 
ATOM     32  O   UNL     1       4.697   5.831  -2.874  0.00  0.00    -0.491 OA
ENDBRANCH  25  32
BRANCH  30  33
ATOM     33  O   UNL     1       3.286   5.117  -5.129  0.00  0.00    -0.503 OA
ATOM     34  H   UNL     1       3.867   4.453  -5.523  0.00  0.00    +0.292 HD
ENDBRANCH  30  33
ENDBRANCH   1  27
TORSDOF 4
