REMARK  Name = ZINC11782942
REMARK  10 active torsions:
REMARK  status: ('A' for Active; 'I' for Inactive)
REMARK    1  A    between atoms: C_1  and  C_2
REMARK    2  A    between atoms: C_9  and  C_21
REMARK    3  A    between atoms: N_12  and  C_13
REMARK    4  A    between atoms: C_13  and  C_14
REMARK    5  A    between atoms: C_19  and  C_20
REMARK    6  A    between atoms: C_21  and  N_57
REMARK    7  A    between atoms: C_22  and  C_23
REMARK    8  A    between atoms: C_22  and  N_57
REMARK    9  A    between atoms: N_26  and  C_29
REMARK   10  A    between atoms: C_27  and  C_28
REMARK                            x       y       z     vdW  Elec       q    Type
REMARK                         _______ _______ _______ _____ _____    ______ ____
ROOT
ATOM      1  C   UNL     1      -2.968   6.048   8.127  0.00  0.00    +0.044 C 
ATOM      2  C   UNL     1      -3.457   5.013   7.147  0.00  0.00    -0.050 A 
ATOM      3  C   UNL     1      -4.298   3.997   7.581  0.00  0.00    +0.005 A 
ATOM      4  C   UNL     1      -4.758   3.040   6.703  0.00  0.00    +0.027 A 
ATOM      5  C   UNL     1      -4.376   3.090   5.366  0.00  0.00    +0.052 A 
ATOM      6  C   UNL     1      -3.523   4.121   4.929  0.00  0.00    -0.001 A 
ATOM      7  C   UNL     1      -3.070   5.082   5.839  0.00  0.00    +0.013 A 
ATOM      8  C   UNL     1      -3.123   4.162   3.521  0.00  0.00    +0.017 A 
ATOM      9  C   UNL     1      -3.599   3.208   2.684  0.00  0.00    +0.001 A 
ATOM     10  C   UNL     1      -4.452   2.195   3.173  0.00  0.00    +0.253 A 
ATOM     11  O   UNL     1      -4.865   1.344   2.405  0.00  0.00    -0.267 OA
ATOM     12  N   UNL     1      -4.821   2.146   4.465  0.00  0.00    -0.304 N 
ENDROOT
BRANCH  12  13
ATOM     13  C   UNL     1      -5.709   1.074   4.922  0.00  0.00    +0.160 C 
BRANCH  13  14
ATOM     14  C   UNL     1      -4.884  -0.066   5.461  0.00  0.00    -0.025 A 
ATOM     15  C   UNL     1      -3.507   0.047   5.525  0.00  0.00    +0.005 A 
ATOM     16  C   UNL     1      -2.750  -0.999   6.019  0.00  0.00    +0.000 A 
ATOM     17  C   UNL     1      -3.370  -2.158   6.449  0.00  0.00    +0.000 A 
ATOM     18  C   UNL     1      -4.746  -2.270   6.385  0.00  0.00    +0.004 A 
ATOM     19  C   UNL     1      -5.503  -1.223   5.895  0.00  0.00    -0.046 A 
ATOM     20  C   UNL     1      -7.004  -1.343   5.830  0.00  0.00    +0.044 C 
ENDBRANCH  13  14
ENDBRANCH  12  13
BRANCH   9  21
ATOM     21  C   UNL     1      -3.210   3.224   1.228  0.00  0.00    -0.041 C 
BRANCH  21  22
ATOM     22  N   UNL     1      -2.048   2.337   1.028  0.00  0.00    +0.385 N 
ATOM     23  H   UNL     1      -2.298   1.383   1.312  0.00  0.00    -0.085 HD
ATOM     24  H   UNL     1      -1.265   2.671   1.602  0.00  0.00    -0.085 HD
BRANCH  22  25
ATOM     25  C   UNL     1      -1.645   2.333  -0.391  0.00  0.00    -0.043 C 
BRANCH  25  26
ATOM     26  C   UNL     1      -0.459   1.421  -0.565  0.00  0.00    -0.024 A 
ATOM     27  C   UNL     1       0.878   1.819  -0.665  0.00  0.00    +0.136 A 
ATOM     28  N   UNL     1       1.614   0.748  -0.812  0.00  0.00    -0.179 NA
ATOM     29  N   UNL     1       0.768  -0.368  -0.810  0.00  0.00    -0.271 N 
ATOM     30  C   UNL     1      -0.499   0.071  -0.657  0.00  0.00    +0.037 A 
ATOM     31  C   UNL     1      -1.736  -0.786  -0.600  0.00  0.00    +0.065 C 
ATOM     32  C   UNL     1       1.184  -1.766  -0.951  0.00  0.00    +0.172 C 
ENDBRANCH  25  26
ENDBRANCH  22  25
ENDBRANCH  21  22
ENDBRANCH   9  21
TORSDOF 6
