REMARK  Name = ZINC28729755
REMARK  9 active torsions:
REMARK  status: ('A' for Active; 'I' for Inactive)
REMARK    1  A    between atoms: C_1  and  C_2
REMARK    2  A    between atoms: C_2  and  N_3
REMARK    3  A    between atoms: N_3  and  C_4
REMARK    4  A    between atoms: N_3  and  S_6
REMARK    5  A    between atoms: C_4  and  C_5
REMARK    6  A    between atoms: S_6  and  C_9
REMARK    7  A    between atoms: C_11  and  C_15
REMARK    8  A    between atoms: N_12  and  C_14
REMARK    9  A    between atoms: N_17  and  C_18
REMARK                            x       y       z     vdW  Elec       q    Type
REMARK                         _______ _______ _______ _____ _____    ______ ____
ROOT
ATOM      1  C   UNL     1       4.668  -0.947   1.057  0.00  0.00    +0.261 C 
ATOM      2  O   UNL     1       3.579  -0.566   1.441  0.00  0.00    -0.269 OA
ATOM      3  N   UNL     1       4.997  -0.844  -0.246  0.00  0.00    -0.303 N 
ATOM      4  H   UNL     1       6.013  -1.105  -0.579  0.00  0.00    +0.150 HD
ENDROOT
BRANCH   3   5
ATOM      5  C   UNL     1       4.003  -0.383  -1.218  0.00  0.00    +0.105 C 
ATOM      6  C   UNL     1       4.731   0.223  -2.405  0.00  0.00    +0.038 C 
ATOM      7  C   UNL     1       3.697   0.757  -3.408  0.00  0.00    +0.076 C 
ATOM      8  S   UNL     1       2.921  -0.685  -4.196  0.00  0.00    -0.125 S 
ATOM      9  C   UNL     1       2.582  -1.758  -2.835  0.00  0.00    +0.013 A 
ATOM     10  C   UNL     1       3.115  -1.537  -1.578  0.00  0.00    -0.012 A 
ATOM     11  C   UNL     1       2.816  -2.435  -0.557  0.00  0.00    +0.026 A 
ATOM     12  C   UNL     1       1.998  -3.522  -0.783  0.00  0.00    +0.041 A 
ATOM     13  C   UNL     1       1.458  -3.733  -2.039  0.00  0.00    +0.021 A 
ATOM     14  C   UNL     1       1.751  -2.855  -3.060  0.00  0.00    +0.016 A 
ATOM     15 CL   UNL     1       1.643  -4.625   0.510  0.00  0.00    -0.084 Cl
ENDBRANCH   3   5
BRANCH   1  18
ATOM     16  C   UNL     1       7.465  -2.389   2.929  0.00  0.00    +0.124 A 
ATOM     17  C   UNL     1       6.920  -1.902   1.737  0.00  0.00    +0.061 A 
ATOM     18  C   UNL     1       5.623  -1.520   2.011  0.00  0.00    +0.106 A 
ATOM     19  N   UNL     1       5.387  -1.781   3.342  0.00  0.00    -0.344 N 
ATOM     20  C   UNL     1       6.511  -2.307   3.887  0.00  0.00    +0.114 A 
ATOM     21  C   UNL     1       4.130  -1.530   4.051  0.00  0.00    +0.149 C 
BRANCH  16  22
ATOM     22  S   UNL     1       9.102  -3.005   3.145  0.00  0.00    +0.062 S 
ATOM     23  O   UNL     1       9.896  -2.417   2.125  0.00  0.00    -0.153 OA
ATOM     24  O   UNL     1       9.409  -2.866   4.526  0.00  0.00    -0.153 OA
BRANCH  22  25
ATOM     25  N   UNL     1       9.057  -4.631   2.832  0.00  0.00    -0.177 NA
BRANCH  25  27
ATOM     26  C   UNL     1      10.759  -5.500   1.305  0.00  0.00    +0.022 C 
ATOM     27  C   UNL     1       9.286  -5.121   1.470  0.00  0.00    +0.106 C 
ENDBRANCH  25  27
BRANCH  25  28
ATOM     28  C   UNL     1       8.790  -5.579   3.917  0.00  0.00    +0.106 C 
ATOM     29  C   UNL     1       7.298  -5.914   3.944  0.00  0.00    +0.022 C 
ENDBRANCH  25  28
ENDBRANCH  22  25
ENDBRANCH  16  22
ENDBRANCH   1  18
TORSDOF 6
