REMARK  Name = ZINC02387705
REMARK  8 active torsions:
REMARK  status: ('A' for Active; 'I' for Inactive)
REMARK    1  A    between atoms: C_1  and  C_2
REMARK    2  A    between atoms: C_5  and  C_8
REMARK    3  A    between atoms: C_11  and  S_14
REMARK    4  A    between atoms: N_12  and  N_13
REMARK    5  A    between atoms: S_14  and  C_15
REMARK    6  A    between atoms: C_15  and  C_16
REMARK    7  A    between atoms: N_18  and  C_19
REMARK    8  A    between atoms: C_24  and  C_25
REMARK                            x       y       z     vdW  Elec       q    Type
REMARK                         _______ _______ _______ _____ _____    ______ ____
ROOT
ATOM      1  C   UNL     1       6.659   9.715  -0.623  0.00  0.00    +0.182 A 
ATOM      2  N   UNL     1       7.036   8.471  -0.441  0.00  0.00    -0.127 NA
ATOM      3  N   UNL     1       6.007   7.704  -0.390  0.00  0.00    -0.121 NA
ATOM      4  C   UNL     1       4.909   8.410  -0.545  0.00  0.00    +0.209 A 
ATOM      5  N   UNL     1       5.285   9.714  -0.695  0.00  0.00    -0.224 N 
ENDROOT
BRANCH   1  10
ATOM      6  C   UNL     1      10.102  14.307  -1.040  0.00  0.00    +0.044 C 
ATOM      7  C   UNL     1       9.200  13.105  -0.930  0.00  0.00    -0.050 A 
ATOM      8  C   UNL     1       7.851  13.276  -0.677  0.00  0.00    +0.004 A 
ATOM      9  C   UNL     1       7.020  12.180  -0.576  0.00  0.00    +0.012 A 
ATOM     10  C   UNL     1       7.544  10.895  -0.730  0.00  0.00    +0.021 A 
ATOM     11  C   UNL     1       8.907  10.729  -0.979  0.00  0.00    +0.012 A 
ATOM     12  C   UNL     1       9.726  11.834  -1.083  0.00  0.00    +0.004 A 
ENDBRANCH   1  10
BRANCH   5  13
ATOM     13  N   UNL     1       4.467  10.793  -0.879  0.00  0.00    -0.295 N 
ATOM     14  H   UNL     1       4.277  11.256  -0.003  0.00  0.00    +0.163 HD
ATOM     15  H   UNL     1       4.862  11.435  -1.549  0.00  0.00    +0.163 HD
ENDBRANCH   5  13
BRANCH   4  16
ATOM     16  S   UNL     1       3.260   7.790  -0.550  0.00  0.00    -0.075 S 
BRANCH  16  17
ATOM     17  C   UNL     1       3.586   6.027  -0.303  0.00  0.00    +0.173 C 
BRANCH  17  18
ATOM     18  C   UNL     1       2.280   5.274  -0.273  0.00  0.00    +0.227 C 
ATOM     19  O   UNL     1       1.233   5.871  -0.406  0.00  0.00    -0.275 OA
ATOM     20  N   UNL     1       2.277   3.938  -0.099  0.00  0.00    -0.285 N 
ATOM     21  H   UNL     1       3.107   3.471   0.085  0.00  0.00    +0.155 HD
BRANCH  20  22
ATOM     22  C   UNL     1       1.076   3.224  -0.185  0.00  0.00    +0.038 A 
ATOM     23  C   UNL     1       0.014   3.735  -0.919  0.00  0.00    +0.043 A 
ATOM     24  C   UNL     1      -1.170   3.028  -1.002  0.00  0.00    +0.043 A 
ATOM     25  C   UNL     1      -1.296   1.809  -0.358  0.00  0.00    +0.020 A 
ATOM     26  C   UNL     1      -0.241   1.301   0.377  0.00  0.00    +0.006 A 
ATOM     27  C   UNL     1       0.945   2.003   0.464  0.00  0.00    -0.029 A 
ATOM     28  C   UNL     1       2.096   1.445   1.261  0.00  0.00    +0.045 C 
ATOM     29 CL   UNL     1      -2.499   3.665  -1.919  0.00  0.00    -0.083 Cl
ENDBRANCH  20  22
ENDBRANCH  17  18
ENDBRANCH  16  17
ENDBRANCH   4  16
TORSDOF 6
