REMARK  Name = ZINC19769351
REMARK  9 active torsions:
REMARK  status: ('A' for Active; 'I' for Inactive)
REMARK    1  A    between atoms: C_1  and  C_2
REMARK    2  A    between atoms: C_2  and  C_3
REMARK    3  A    between atoms: C_3  and  C_5
REMARK    4  A    between atoms: C_3  and  N_26
REMARK    5  A    between atoms: N_11  and  C_18
REMARK    6  A    between atoms: C_14  and  C_16
REMARK    7  A    between atoms: C_14  and  C_17
REMARK    8  A    between atoms: C_18  and  C_19
REMARK    9  A    between atoms: C_24  and  C_25
REMARK                            x       y       z     vdW  Elec       q    Type
REMARK                         _______ _______ _______ _____ _____    ______ ____
ROOT
ATOM      1  C   UNL     1      -0.010   1.452  -0.042  0.00  0.00    -0.060 A 
ATOM      2  C   UNL     1      -1.224   2.114  -0.034  0.00  0.00    +0.005 A 
ATOM      3  C   UNL     1      -1.264   3.496  -0.005  0.00  0.00    +0.048 A 
ATOM      4  C   UNL     1      -0.084   4.220   0.004  0.00  0.00    +0.143 A 
ATOM      5  C   UNL     1       1.140   3.553  -0.010  0.00  0.00    +0.079 A 
ATOM      6  C   UNL     1       1.173   2.168  -0.033  0.00  0.00    +0.029 A 
ATOM      7  N   UNL     1       2.327   4.298  -0.001  0.00  0.00    -0.261 N 
ATOM      8  C   UNL     1       2.276   5.606   0.335  0.00  0.00    +0.263 C 
ATOM      9  O   UNL     1       3.286   6.278   0.320  0.00  0.00    -0.271 OA
ATOM     10  C   UNL     1       0.960   6.226   0.729  0.00  0.00    +0.181 C 
ATOM     11  O   UNL     1      -0.105   5.579   0.028  0.00  0.00    -0.475 OA
ATOM     12  C   UNL     1       0.751   6.064   2.236  0.00  0.00    +0.065 C 
ATOM     13  C   UNL     1       0.973   7.715   0.375  0.00  0.00    +0.065 C 
ENDROOT
BRANCH   1  14
ATOM     14  C   UNL     1       0.024  -0.054  -0.068  0.00  0.00    -0.044 C 
BRANCH  14  15
ATOM     15  N   UNL     1      -1.028  -0.553  -0.964  0.00  0.00    +0.383 N 
ATOM     16  H   UNL     1      -0.858  -0.165  -1.979  0.00  0.00    -0.089 HD
ATOM     17  H   UNL     1      -2.009  -0.214  -0.601  0.00  0.00    -0.089 HD
ATOM     18  H   UNL     1      -1.002  -1.652  -0.983  0.00  0.00    -0.089 HD
ENDBRANCH  14  15
BRANCH  14  20
ATOM     19  C   UNL     1      -0.053  -2.116   1.342  0.00  0.00    +0.002 C 
ATOM     20  C   UNL     1      -0.211  -0.594   1.344  0.00  0.00    -0.015 C 
ENDBRANCH  14  20
ENDBRANCH   1  14
BRANCH   7  21
ATOM     21  C   UNL     1       3.603   3.669  -0.349  0.00  0.00    +0.149 C 
BRANCH  21  22
ATOM     22  C   UNL     1       3.773   3.674  -1.847  0.00  0.00    -0.027 A 
ATOM     23  C   UNL     1       2.849   4.322  -2.645  0.00  0.00    +0.005 A 
ATOM     24  C   UNL     1       3.005   4.327  -4.018  0.00  0.00    +0.000 A 
ATOM     25  C   UNL     1       4.086   3.685  -4.594  0.00  0.00    +0.000 A 
ATOM     26  C   UNL     1       5.010   3.038  -3.796  0.00  0.00    +0.003 A 
ATOM     27  C   UNL     1       4.856   3.037  -2.422  0.00  0.00    -0.046 A 
ATOM     28  C   UNL     1       5.867   2.336  -1.551  0.00  0.00    +0.044 C 
ENDBRANCH  21  22
ENDBRANCH   7  21
TORSDOF 5
