REMARK  Name = ZINC66051496
REMARK  9 active torsions:
REMARK  status: ('A' for Active; 'I' for Inactive)
REMARK    1  A    between atoms: C_1  and  N_2
REMARK    2  A    between atoms: N_2  and  C_3
REMARK    3  A    between atoms: N_2  and  C_20
REMARK    4  A    between atoms: C_3  and  C_4
REMARK    5  A    between atoms: N_6  and  C_7
REMARK    6  A    between atoms: C_7  and  C_8
REMARK    7  A    between atoms: C_8  and  C_9
REMARK    8  A    between atoms: C_8  and  C_17
REMARK    9  A    between atoms: C_9  and  C_10
REMARK                            x       y       z     vdW  Elec       q    Type
REMARK                         _______ _______ _______ _____ _____    ______ ____
ROOT
ATOM      1  C   UNL     1      -3.029  -2.367   0.503  0.00  0.00    +0.196 C 
ATOM      2  O   UNL     1      -1.930  -2.018   0.878  0.00  0.00    -0.278 OA
ATOM      3  N   UNL     1      -4.131  -1.919   1.136  0.00  0.00    -0.316 N 
ATOM      4  H   UNL     1      -5.011  -2.198   0.836  0.00  0.00    +0.149 HD
ENDROOT
BRANCH   1   5
ATOM      5  C   UNL     1      -3.163  -3.303  -0.671  0.00  0.00    +0.019 C 
BRANCH   5   7
ATOM      6  C   UNL     1      -1.186  -2.434  -1.717  0.00  0.00    -0.095 C 
ATOM      7  N   UNL     1      -1.827  -3.642  -1.181  0.00  0.00    +0.387 N 
ATOM      8  H   UNL     1      -1.266  -4.016  -0.430  0.00  0.00    -0.081 HD
BRANCH   7   9
ATOM      9  C   UNL     1      -1.950  -4.646  -2.246  0.00  0.00    -0.046 C 
ATOM     10  C   UNL     1      -0.553  -4.991  -2.786  0.00  0.00    +0.009 C 
ATOM     11  C   UNL     1      -0.677  -6.262  -3.675  0.00  0.00    +0.164 C 
ATOM     12  S   UNL     1      -1.856  -7.261  -2.671  0.00  0.00    -0.033 S 
ATOM     13  O   UNL     1      -1.119  -8.112  -1.804  0.00  0.00    -0.174 OA
ATOM     14  O   UNL     1      -2.837  -7.821  -3.533  0.00  0.00    -0.174 OA
ATOM     15  C   UNL     1      -2.626  -5.918  -1.679  0.00  0.00    +0.151 C 
ENDBRANCH   7   9
ENDBRANCH   5   7
ENDBRANCH   1   5
BRANCH   3  16
ATOM     16  C   UNL     1      -4.002  -1.009   2.277  0.00  0.00    +0.117 C 
BRANCH  16  17
ATOM     17  C   UNL     1      -5.393  -0.656   2.808  0.00  0.00    +0.096 C 
BRANCH  17  18
ATOM     18  C   UNL     1      -6.147   0.123   1.761  0.00  0.00    +0.215 C 
ATOM     19  O   UNL     1      -5.555   0.893   1.034  0.00  0.00    -0.276 OA
ATOM     20  N   UNL     1      -7.479  -0.036   1.632  0.00  0.00    -0.329 N 
ATOM     21  H   UNL     1      -7.941  -0.702   2.164  0.00  0.00    +0.145 HD
ATOM     22  H   UNL     1      -7.975   0.517   1.008  0.00  0.00    +0.145 HD
ENDBRANCH  17  18
BRANCH  17  23
ATOM     23  C   UNL     1      -5.255   0.193   4.073  0.00  0.00    +0.049 C 
BRANCH  23  24
ATOM     24  C   UNL     1      -4.630  -0.635   5.167  0.00  0.00    -0.046 A 
ATOM     25  C   UNL     1      -5.422  -1.443   5.961  0.00  0.00    +0.006 A 
ATOM     26  C   UNL     1      -4.849  -2.202   6.963  0.00  0.00    +0.038 A 
ATOM     27  C   UNL     1      -3.482  -2.154   7.173  0.00  0.00    +0.123 A 
ATOM     28  C   UNL     1      -2.689  -1.344   6.377  0.00  0.00    +0.038 A 
ATOM     29  C   UNL     1      -3.263  -0.589   5.372  0.00  0.00    +0.006 A 
ATOM     30  F   UNL     1      -2.921  -2.895   8.153  0.00  0.00    -0.205 F 
ENDBRANCH  23  24
ENDBRANCH  17  23
ENDBRANCH  16  17
ENDBRANCH   3  16
TORSDOF 8
