REMARK  Name = ZINC13805237
REMARK  6 active torsions:
REMARK  status: ('A' for Active; 'I' for Inactive)
REMARK    1  A    between atoms: C_1  and  O_2
REMARK    2  A    between atoms: O_2  and  C_3
REMARK    3  A    between atoms: C_6  and  C_9
REMARK    4  A    between atoms: C_23  and  S_33
REMARK    5  A    between atoms: C_26  and  C_28
REMARK    6  A    between atoms: S_33  and  C_34
REMARK                            x       y       z     vdW  Elec       q    Type
REMARK                         _______ _______ _______ _____ _____    ______ ____
ROOT
ATOM      1  C   UNL     1      -4.981  -2.629   0.035  0.00  0.00    +0.234 C 
ATOM      2  C   UNL     1      -5.381  -2.958  -1.386  0.00  0.00    +0.026 C 
ATOM      3  C   UNL     1      -4.979  -4.111  -1.924  0.00  0.00    +0.050 C 
ATOM      4  C   UNL     1      -4.171  -5.035  -1.093  0.00  0.00    +0.038 A 
ATOM      5  C   UNL     1      -3.438  -6.071  -1.659  0.00  0.00    +0.013 A 
ATOM      6  C   UNL     1      -2.700  -6.907  -0.844  0.00  0.00    +0.001 A 
ATOM      7  C   UNL     1      -2.688  -6.716   0.527  0.00  0.00    +0.004 A 
ATOM      8  C   UNL     1      -3.414  -5.686   1.099  0.00  0.00    +0.046 A 
ATOM      9  C   UNL     1      -4.157  -4.842   0.295  0.00  0.00    +0.131 A 
ATOM     10  O   UNL     1      -4.881  -3.819   0.816  0.00  0.00    -0.479 OA
ATOM     11  N   UNL     1      -5.291  -4.468  -3.241  0.00  0.00    -0.283 N 
ATOM     12  C   UNL     1      -5.806  -3.480  -4.065  0.00  0.00    +0.220 A 
ATOM     13  N   UNL     1      -5.968  -3.458  -5.359  0.00  0.00    -0.187 NA
ATOM     14  C   UNL     1      -6.500  -2.281  -5.723  0.00  0.00    +0.210 A 
ATOM     15  N   UNL     1      -6.682  -1.543  -4.650  0.00  0.00    -0.141 NA
ATOM     16  N   UNL     1      -6.244  -2.298  -3.563  0.00  0.00    -0.220 N 
ATOM     17  C   UNL     1      -6.228  -1.966  -2.143  0.00  0.00    +0.179 C 
ATOM     18  H   UNL     1      -5.153  -5.372  -3.564  0.00  0.00    +0.155 HD
ENDROOT
BRANCH   1  22
ATOM     19  C   UNL     1      -1.200  -0.637   0.009  0.00  0.00    +0.120 A 
ATOM     20  C   UNL     1      -1.264  -2.010  -0.180  0.00  0.00    +0.046 A 
ATOM     21  C   UNL     1      -2.487  -2.652  -0.171  0.00  0.00    +0.011 A 
ATOM     22  C   UNL     1      -3.648  -1.927   0.026  0.00  0.00    -0.003 A 
ATOM     23  C   UNL     1      -3.587  -0.558   0.214  0.00  0.00    +0.011 A 
ATOM     24  C   UNL     1      -2.366   0.087   0.212  0.00  0.00    +0.046 A 
BRANCH  19  26
ATOM     25  C   UNL     1       1.160  -0.813  -0.213  0.00  0.00    +0.277 C 
ATOM     26  O   UNL     1       0.002  -0.004   0.001  0.00  0.00    -0.495 OA
ENDBRANCH  19  26
ENDBRANCH   1  22
BRANCH  17  27
ATOM     27  C   UNL     1      -7.636  -1.999  -1.606  0.00  0.00    +0.019 A 
ATOM     28  C   UNL     1      -8.360  -0.999  -1.048  0.00  0.00    +0.013 A 
ATOM     29  C   UNL     1      -9.649  -1.262  -0.622  0.00  0.00    +0.008 A 
ATOM     30  C   UNL     1     -10.150  -2.512  -0.776  0.00  0.00    +0.045 A 
ATOM     31  S   UNL     1      -8.785  -3.364  -1.549  0.00  0.00    -0.099 S 
ENDBRANCH  17  27
BRANCH  14  32
ATOM     32  S   UNL     1      -6.891  -1.802  -7.373  0.00  0.00    -0.088 S 
ATOM     33  C   UNL     1      -6.410  -3.237  -8.373  0.00  0.00    +0.093 C 
ENDBRANCH  14  32
TORSDOF 4
