REMARK  Name = ZINC44585276
REMARK  8 active torsions:
REMARK  status: ('A' for Active; 'I' for Inactive)
REMARK    1  A    between atoms: C_2  and  C_3
REMARK    2  A    between atoms: C_3  and  N_4
REMARK    3  A    between atoms: C_5  and  C_29
REMARK    4  A    between atoms: C_8  and  S_9
REMARK    5  A    between atoms: S_9  and  C_10
REMARK    6  A    between atoms: C_10  and  C_11
REMARK    7  A    between atoms: C_16  and  C_19
REMARK    8  A    between atoms: C_32  and  N_35
REMARK                            x       y       z     vdW  Elec       q    Type
REMARK                         _______ _______ _______ _____ _____    ______ ____
ROOT
ATOM      1  C   UNL     1       0.348  -5.650  -0.089  0.00  0.00    +0.173 C 
ENDROOT
BRANCH   1   2
ATOM      2  C   UNL     1       0.078  -6.553  -1.264  0.00  0.00    +0.229 C 
ATOM      3  O   UNL     1       0.341  -6.181  -2.388  0.00  0.00    -0.275 OA
ATOM      4  N   UNL     1      -0.457  -7.775  -1.067  0.00  0.00    -0.264 N 
ATOM      5  C   UNL     1      -0.707  -8.608  -2.150  0.00  0.00    +0.165 A 
ATOM      6  N   UNL     1      -1.224  -9.816  -2.146  0.00  0.00    -0.225 NA
ATOM      7  C   UNL     1      -1.401 -10.489  -3.276  0.00  0.00    +0.082 A 
ATOM      8  C   UNL     1      -1.020  -9.862  -4.429  0.00  0.00    +0.077 A 
ATOM      9  S   UNL     1      -0.426  -8.307  -3.782  0.00  0.00    -0.060 S 
ATOM     10  H   UNL     1      -0.668  -8.072  -0.168  0.00  0.00    +0.157 HD
BRANCH   7  11
ATOM     11  C   UNL     1      -1.983 -11.854  -3.287  0.00  0.00    +0.026 A 
ATOM     12  C   UNL     1      -2.201 -12.631  -4.374  0.00  0.00    +0.093 A 
ATOM     13  N   UNL     1      -2.751 -13.823  -3.988  0.00  0.00    -0.360 N 
ATOM     14  H   UNL     1      -2.995 -14.543  -4.590  0.00  0.00    +0.165 HD
ATOM     15  C   UNL     1      -2.905 -13.851  -2.619  0.00  0.00    +0.047 A 
ATOM     16  C   UNL     1      -2.428 -12.628  -2.117  0.00  0.00    +0.009 A 
ATOM     17  C   UNL     1      -2.457 -12.379  -0.746  0.00  0.00    +0.010 A 
ATOM     18  C   UNL     1      -2.946 -13.328   0.107  0.00  0.00    +0.001 A 
ATOM     19  C   UNL     1      -3.416 -14.539  -0.382  0.00  0.00    +0.002 A 
ATOM     20  C   UNL     1      -3.403 -14.802  -1.734  0.00  0.00    +0.026 A 
ENDBRANCH   7  11
ENDBRANCH   1   2
BRANCH   1  21
ATOM     21  S   UNL     1       1.063  -4.090  -0.677  0.00  0.00    -0.077 S 
BRANCH  21  26
ATOM     22  N   UNL     1       1.843  -1.897   0.875  0.00  0.00    -0.298 N 
ATOM     23  C   UNL     1       1.843  -1.580   2.214  0.00  0.00    +0.165 A 
ATOM     24  N   UNL     1       1.349  -2.613   2.854  0.00  0.00    -0.128 NA
ATOM     25  N   UNL     1       1.043  -3.542   2.020  0.00  0.00    -0.122 NA
ATOM     26  C   UNL     1       1.319  -3.156   0.795  0.00  0.00    +0.193 A 
BRANCH  23  27
ATOM     27  C   UNL     1       2.313  -0.315   2.817  0.00  0.00    +0.019 A 
ATOM     28  C   UNL     1       2.927  -0.324   4.071  0.00  0.00    +0.013 A 
ATOM     29  C   UNL     1       3.364   0.858   4.631  0.00  0.00    +0.023 A 
ATOM     30  C   UNL     1       3.193   2.057   3.948  0.00  0.00    +0.025 A 
ATOM     31  C   UNL     1       2.582   2.069   2.700  0.00  0.00    +0.023 A 
ATOM     32  C   UNL     1       2.148   0.890   2.132  0.00  0.00    +0.013 A 
BRANCH  30  33
ATOM     33  N   UNL     1       3.635   3.252   4.518  0.00  0.00    -0.358 N 
ATOM     34  H   UNL     1       4.062   3.245   5.390  0.00  0.00    +0.142 HD
ATOM     35  H   UNL     1       3.517   4.089   4.043  0.00  0.00    +0.142 HD
ENDBRANCH  30  33
ENDBRANCH  23  27
BRANCH  22  36
ATOM     36  C   UNL     1       2.304  -1.057  -0.234  0.00  0.00    +0.152 C 
BRANCH  36  38
ATOM     37  C   UNL     1       1.159   0.966  -0.981  0.00  0.00    +0.005 C 
ATOM     38  C   UNL     1       1.127  -0.336  -0.840  0.00  0.00    -0.013 C 
ENDBRANCH  36  38
ENDBRANCH  22  36
ENDBRANCH  21  26
ENDBRANCH   1  21
TORSDOF 8
