REMARK  Name = ZINC25471575
REMARK  5 active torsions:
REMARK  status: ('A' for Active; 'I' for Inactive)
REMARK    1  A    between atoms: C_9  and  C_18
REMARK    2  A    between atoms: C_18  and  N_19
REMARK    3  A    between atoms: C_20  and  C_22
REMARK    4  A    between atoms: C_27  and  S_28
REMARK    5  A    between atoms: S_28  and  C_29
REMARK                            x       y       z     vdW  Elec       q    Type
REMARK                         _______ _______ _______ _____ _____    ______ ____
ROOT
ATOM      1  N   UNL     1      -0.842   1.427   1.242  0.00  0.00    -0.311 N 
ATOM      2  C   UNL     1      -0.327   1.131   2.452  0.00  0.00    +0.245 C 
ATOM      3  O   UNL     1       0.772   0.616   2.536  0.00  0.00    -0.270 OA
ATOM      4  H   UNL     1      -1.835   1.893   1.167  0.00  0.00    +0.149 HD
ENDROOT
BRANCH   2   5
ATOM      5  C   UNL     1      -1.095   1.430   3.674  0.00  0.00    +0.050 A 
ATOM      6  C   UNL     1      -2.356   2.027   3.583  0.00  0.00    +0.014 A 
ATOM      7  C   UNL     1      -3.071   2.299   4.728  0.00  0.00    +0.001 A 
ATOM      8  C   UNL     1      -2.543   1.995   5.973  0.00  0.00    +0.001 A 
ATOM      9  C   UNL     1      -1.298   1.411   6.081  0.00  0.00    +0.015 A 
ATOM     10  C   UNL     1      -0.563   1.123   4.936  0.00  0.00    +0.020 A 
BRANCH  10  11
ATOM     11  S   UNL     1       1.027   0.377   5.070  0.00  0.00    -0.119 S 
BRANCH  11  12
ATOM     12  C   UNL     1       1.348   0.344   6.855  0.00  0.00    +0.074 C 
ATOM     13  C   UNL     1       1.609   1.772   7.362  0.00  0.00    +0.039 C 
ATOM     14  C   UNL     1       2.192   1.725   8.795  0.00  0.00    +0.167 C 
ATOM     15  S   UNL     1       3.058   0.103   8.825  0.00  0.00    -0.030 S 
ATOM     16  O   UNL     1       2.445  -0.731   9.799  0.00  0.00    -0.174 OA
ATOM     17  O   UNL     1       4.460   0.328   8.879  0.00  0.00    -0.174 OA
ATOM     18  C   UNL     1       2.615  -0.511   7.145  0.00  0.00    +0.180 C 
ENDBRANCH  11  12
ENDBRANCH  10  11
ENDBRANCH   2   5
BRANCH   1  19
ATOM     19  C   UNL     1      -0.078   1.129   0.028  0.00  0.00    +0.109 C 
BRANCH  19  28
ATOM     20  C   UNL     1       0.431  -2.820  -2.830  0.00  0.00    +0.000 A 
ATOM     21  C   UNL     1       1.575  -2.049  -2.745  0.00  0.00    +0.000 A 
ATOM     22  C   UNL     1       1.487  -0.668  -2.624  0.00  0.00    +0.004 A 
ATOM     23  C   UNL     1       0.251  -0.089  -2.590  0.00  0.00    -0.036 A 
ATOM     24  C   UNL     1      -0.903  -0.865  -2.675  0.00  0.00    -0.036 A 
ATOM     25  C   UNL     1      -0.823  -2.223  -2.795  0.00  0.00    +0.004 A 
ATOM     26  C   UNL     1      -2.200  -0.073  -2.623  0.00  0.00    +0.050 C 
ATOM     27  C   UNL     1      -2.147   0.711  -1.293  0.00  0.00    +0.018 C 
ATOM     28  C   UNL     1      -0.883   1.561  -1.199  0.00  0.00    +0.019 C 
ATOM     29  C   UNL     1      -0.005   1.405  -2.460  0.00  0.00    +0.054 C 
ATOM     30  C   UNL     1      -0.912   1.754  -3.629  0.00  0.00    -0.036 A 
ATOM     31  C   UNL     1      -2.066   0.978  -3.715  0.00  0.00    -0.036 A 
ATOM     32  C   UNL     1      -2.973   1.182  -4.715  0.00  0.00    +0.004 A 
ATOM     33  C   UNL     1      -2.725   2.180  -5.649  0.00  0.00    +0.000 A 
ATOM     34  C   UNL     1      -1.581   2.951  -5.564  0.00  0.00    +0.000 A 
ATOM     35  C   UNL     1      -0.662   2.736  -4.544  0.00  0.00    +0.004 A 
ENDBRANCH  19  28
ENDBRANCH   1  19
TORSDOF 5
