REMARK  Name = ZINC19893058
REMARK  7 active torsions:
REMARK  status: ('A' for Active; 'I' for Inactive)
REMARK    1  A    between atoms: C_1  and  O_2
REMARK    2  A    between atoms: O_2  and  C_3
REMARK    3  A    between atoms: C_8  and  C_9
REMARK    4  A    between atoms: C_9  and  C_11
REMARK    5  A    between atoms: C_9  and  N_22
REMARK    6  A    between atoms: C_20  and  O_21
REMARK    7  A    between atoms: C_23  and  C_25
REMARK                            x       y       z     vdW  Elec       q    Type
REMARK                         _______ _______ _______ _____ _____    ______ ____
ROOT
ATOM      1  C   UNL     1       0.262  -2.695   0.043  0.00  0.00    +0.141 C 
ENDROOT
BRANCH   1   2
ATOM      2  C   UNL     1      -1.202  -2.798  -0.299  0.00  0.00    +0.026 A 
ATOM      3  C   UNL     1      -2.148  -2.036   0.406  0.00  0.00    -0.009 A 
ATOM      4  C   UNL     1      -1.759  -1.166   1.440  0.00  0.00    +0.009 A 
ATOM      5  C   UNL     1      -2.702  -0.443   2.103  0.00  0.00    +0.001 A 
ATOM      6  C   UNL     1      -4.052  -0.551   1.772  0.00  0.00    +0.001 A 
ATOM      7  C   UNL     1      -4.466  -1.383   0.777  0.00  0.00    +0.008 A 
ATOM      8  C   UNL     1      -3.521  -2.145   0.070  0.00  0.00    -0.017 A 
ATOM      9  C   UNL     1      -3.912  -3.014  -0.964  0.00  0.00    +0.012 A 
ATOM     10  C   UNL     1      -2.972  -3.738  -1.628  0.00  0.00    +0.046 A 
ATOM     11  C   UNL     1      -1.616  -3.628  -1.301  0.00  0.00    +0.123 A 
BRANCH  11  12
ATOM     12  O   UNL     1      -0.700  -4.360  -1.987  0.00  0.00    -0.506 OA
ATOM     13  H   UNL     1      -0.596  -5.265  -1.662  0.00  0.00    +0.292 HD
ENDBRANCH  11  12
ENDBRANCH   1   2
BRANCH   1  19
ATOM     14  C   UNL     1       1.014  -0.553  -1.021  0.00  0.00    +0.125 A 
ATOM     15  C   UNL     1       1.681   0.140  -2.021  0.00  0.00    +0.046 A 
ATOM     16  C   UNL     1       2.305  -0.552  -3.041  0.00  0.00    +0.004 A 
ATOM     17  C   UNL     1       2.266  -1.934  -3.065  0.00  0.00    +0.001 A 
ATOM     18  C   UNL     1       1.601  -2.627  -2.070  0.00  0.00    +0.009 A 
ATOM     19  C   UNL     1       0.980  -1.939  -1.044  0.00  0.00    +0.019 A 
BRANCH  14  21
ATOM     20  C   UNL     1       0.475   1.552  -0.057  0.00  0.00    +0.277 C 
ATOM     21  O   UNL     1       0.399   0.126  -0.017  0.00  0.00    -0.495 OA
ENDBRANCH  14  21
ENDBRANCH   1  19
BRANCH   1  22
ATOM     22  N   UNL     1       0.831  -4.039   0.162  0.00  0.00    -0.304 N 
ATOM     23  C   UNL     1       1.887  -4.255   0.971  0.00  0.00    +0.217 C 
ATOM     24  O   UNL     1       2.366  -3.336   1.601  0.00  0.00    -0.275 OA
ATOM     25  H   UNL     1       0.448  -4.775  -0.341  0.00  0.00    +0.150 HD
BRANCH  23  26
ATOM     26  C   UNL     1       2.473  -5.638   1.093  0.00  0.00    +0.075 C 
ATOM     27  C   UNL     1       1.405  -6.600   1.617  0.00  0.00    +0.013 C 
ATOM     28  C   UNL     1       1.999  -8.004   1.740  0.00  0.00    +0.001 C 
ATOM     29  C   UNL     1       3.179  -7.974   2.714  0.00  0.00    +0.000 C 
ATOM     30  C   UNL     1       4.248  -7.012   2.191  0.00  0.00    +0.001 C 
ATOM     31  C   UNL     1       3.653  -5.608   2.067  0.00  0.00    +0.013 C 
ENDBRANCH  23  26
ENDBRANCH   1  22
TORSDOF 6
