REMARK  Name = ZINC04477115
REMARK  7 active torsions:
REMARK  status: ('A' for Active; 'I' for Inactive)
REMARK    1  A    between atoms: C_1  and  C_2
REMARK    2  A    between atoms: C_5  and  C_8
REMARK    3  A    between atoms: C_8  and  C_28
REMARK    4  A    between atoms: N_11  and  C_15
REMARK    5  A    between atoms: C_15  and  C_16
REMARK    6  A    between atoms: C_19  and  C_27
REMARK    7  A    between atoms: C_24  and  C_26
REMARK                            x       y       z     vdW  Elec       q    Type
REMARK                         _______ _______ _______ _____ _____    ______ ____
ROOT
ATOM      1  C   UNL     1       0.269  -4.710  -0.936  0.00  0.00    +0.135 C 
ATOM      2  C   UNL     1       1.197  -4.962   0.236  0.00  0.00    +0.251 C 
ATOM      3  O   UNL     1       1.203  -4.385   1.302  0.00  0.00    -0.272 OA
ATOM      4  N   UNL     1       2.013  -5.962  -0.154  0.00  0.00    -0.215 N 
ATOM      5  C   UNL     1       1.732  -6.372  -1.396  0.00  0.00    +0.310 C 
ATOM      6  O   UNL     1       2.332  -7.263  -1.964  0.00  0.00    -0.252 OA
ATOM      7  N   UNL     1       0.711  -5.689  -1.945  0.00  0.00    -0.281 N 
ATOM      8  C   UNL     1      -1.186  -4.966  -0.540  0.00  0.00    +0.047 C 
ATOM      9  H   UNL     1       0.339  -5.817  -2.831  0.00  0.00    +0.152 HD
ENDROOT
BRANCH   1  14
ATOM     10  C   UNL     1       0.909   0.680  -2.917  0.00  0.00    +0.044 C 
ATOM     11  C   UNL     1       0.743  -0.726  -2.400  0.00  0.00    -0.050 A 
ATOM     12  C   UNL     1       0.459  -1.755  -3.278  0.00  0.00    +0.004 A 
ATOM     13  C   UNL     1       0.306  -3.045  -2.804  0.00  0.00    +0.006 A 
ATOM     14  C   UNL     1       0.437  -3.305  -1.453  0.00  0.00    -0.015 A 
ATOM     15  C   UNL     1       0.721  -2.275  -0.575  0.00  0.00    +0.006 A 
ATOM     16  C   UNL     1       0.878  -0.986  -1.050  0.00  0.00    +0.004 A 
ENDBRANCH   1  14
BRANCH   4  17
ATOM     17  C   UNL     1       3.076  -6.528   0.680  0.00  0.00    +0.213 C 
BRANCH  17  18
ATOM     18  C   UNL     1       2.523  -7.674   1.488  0.00  0.00    +0.234 C 
ATOM     19  O   UNL     1       1.326  -7.865   1.531  0.00  0.00    -0.274 OA
ATOM     20  N   UNL     1       3.360  -8.487   2.163  0.00  0.00    -0.295 N 
ATOM     21  C   UNL     1       2.942  -9.845   2.540  0.00  0.00    +0.073 C 
ATOM     22  C   UNL     1       3.150 -10.024   4.047  0.00  0.00    +0.022 C 
ATOM     23  C   UNL     1       4.601  -9.692   4.401  0.00  0.00    +0.004 C 
ATOM     24  C   UNL     1       4.894  -8.233   4.044  0.00  0.00    +0.022 C 
ATOM     25  C   UNL     1       4.708  -8.035   2.532  0.00  0.00    +0.073 C 
ATOM     26  C   UNL     1       4.866  -6.554   2.183  0.00  0.00    +0.028 C 
ATOM     27  C   UNL     1       1.464 -10.041   2.196  0.00  0.00    +0.028 C 
ENDBRANCH  17  18
ENDBRANCH   4  17
TORSDOF 3
