REMARK  Name = ZINC36685702
REMARK  8 active torsions:
REMARK  status: ('A' for Active; 'I' for Inactive)
REMARK    1  A    between atoms: C_1  and  C_2
REMARK    2  A    between atoms: C_2  and  C_3
REMARK    3  A    between atoms: C_3  and  N_4
REMARK    4  A    between atoms: C_10  and  N_21
REMARK    5  A    between atoms: C_11  and  C_12
REMARK    6  A    between atoms: C_22  and  C_24
REMARK    7  A    between atoms: C_24  and  S_25
REMARK    8  A    between atoms: S_25  and  C_26
REMARK                            x       y       z     vdW  Elec       q    Type
REMARK                         _______ _______ _______ _____ _____    ______ ____
ROOT
ATOM      1  N   UNL     1      -1.413  -2.002   0.005  0.00  0.00    -0.297 NA
ATOM      2  C   UNL     1      -2.761  -2.546  -0.213  0.00  0.00    +0.089 C 
ATOM      3  C   UNL     1      -2.677  -4.027  -0.592  0.00  0.00    +0.052 C 
ATOM      4  C   UNL     1      -1.819  -4.739   0.450  0.00  0.00    -0.023 A 
ATOM      5  C   UNL     1      -1.006  -4.017   1.259  0.00  0.00    +0.009 A 
ATOM      6  S   UNL     1      -0.217  -5.217   2.293  0.00  0.00    -0.076 S 
ATOM      7  C   UNL     1      -0.981  -6.688   1.631  0.00  0.00    +0.082 A 
ATOM      8  C   UNL     1      -1.808  -6.174   0.645  0.00  0.00    +0.039 A 
ATOM      9  C   UNL     1      -0.835  -2.530   1.255  0.00  0.00    +0.127 C 
ENDROOT
BRANCH   8  10
ATOM     10  C   UNL     1      -2.650  -7.059  -0.177  0.00  0.00    +0.112 A 
ATOM     11  N   UNL     1      -3.481  -6.741  -1.149  0.00  0.00    -0.239 NA
ATOM     12  C   UNL     1      -4.194  -7.666  -1.823  0.00  0.00    +0.079 A 
ATOM     13  C   UNL     1      -5.114  -7.461  -2.878  0.00  0.00    +0.029 A 
ATOM     14  C   UNL     1      -5.761  -8.520  -3.459  0.00  0.00    +0.002 A 
ATOM     15  C   UNL     1      -5.542  -9.823  -3.037  0.00  0.00    +0.001 A 
ATOM     16  C   UNL     1      -4.650 -10.061  -2.007  0.00  0.00    +0.017 A 
ATOM     17  C   UNL     1      -3.996  -9.007  -1.420  0.00  0.00    +0.040 A 
ATOM     18  S   UNL     1      -2.800  -8.839  -0.116  0.00  0.00    -0.067 S 
ENDBRANCH   8  10
BRANCH   7  19
ATOM     19  N   UNL     1      -0.793  -8.013   2.009  0.00  0.00    -0.279 N 
ATOM     20  C   UNL     1       0.066  -8.316   3.002  0.00  0.00    +0.228 C 
ATOM     21  O   UNL     1       0.676  -7.432   3.567  0.00  0.00    -0.275 OA
ATOM     22  H   UNL     1      -1.280  -8.720   1.557  0.00  0.00    +0.155 HD
BRANCH  20  23
ATOM     23  C   UNL     1       0.270  -9.752   3.411  0.00  0.00    +0.170 C 
BRANCH  23  24
ATOM     24  S   UNL     1       1.477  -9.831   4.763  0.00  0.00    -0.116 S 
BRANCH  24  25
ATOM     25  C   UNL     1       1.603 -11.551   5.122  0.00  0.00    +0.008 A 
ATOM     26  C   UNL     1       0.854 -12.470   4.398  0.00  0.00    +0.016 A 
ATOM     27  C   UNL     1       0.956 -13.818   4.682  0.00  0.00    +0.021 A 
ATOM     28  C   UNL     1       1.802 -14.253   5.686  0.00  0.00    +0.041 A 
ATOM     29  C   UNL     1       2.549 -13.340   6.410  0.00  0.00    +0.021 A 
ATOM     30  C   UNL     1       2.456 -11.992   6.127  0.00  0.00    +0.016 A 
ATOM     31 CL   UNL     1       1.926 -15.948   6.041  0.00  0.00    -0.084 Cl
ENDBRANCH  24  25
ENDBRANCH  23  24
ENDBRANCH  20  23
ENDBRANCH   7  19
BRANCH   1  32
ATOM     32  C   UNL     1      -1.433  -0.534   0.013  0.00  0.00    +0.084 C 
BRANCH  32  34
ATOM     33  C   UNL     1      -0.019   1.526   0.010  0.00  0.00    +0.005 C 
ATOM     34  C   UNL     1       0.002  -0.004   0.002  0.00  0.00    +0.012 C 
ENDBRANCH  32  34
ENDBRANCH   1  32
TORSDOF 7
