REMARK  Name = ZINC36633782
REMARK  6 active torsions:
REMARK  status: ('A' for Active; 'I' for Inactive)
REMARK    1  A    between atoms: C_1  and  O_2
REMARK    2  A    between atoms: O_2  and  C_3
REMARK    3  A    between atoms: C_5  and  C_10
REMARK    4  A    between atoms: C_8  and  O_9
REMARK    5  A    between atoms: C_18  and  C_29
REMARK    6  A    between atoms: C_21  and  C_23
REMARK                            x       y       z     vdW  Elec       q    Type
REMARK                         _______ _______ _______ _____ _____    ______ ____
ROOT
ATOM      1  C   UNL     1      -4.852   0.219   0.038  0.00  0.00    +0.028 C 
ATOM      2  C   UNL     1      -6.048  -0.415  -0.057  0.00  0.00    +0.079 C 
ATOM      3  C   UNL     1      -7.414   0.147  -0.174  0.00  0.00    +0.276 C 
ATOM      4  O   UNL     1      -7.615   1.351  -0.199  0.00  0.00    -0.267 OA
ATOM      5  N   UNL     1      -8.398  -0.721  -0.250  0.00  0.00    -0.152 NA
ATOM      6  C   UNL     1      -8.194  -2.030  -0.224  0.00  0.00    +0.174 C 
ATOM      7  S   UNL     1      -6.418  -2.165  -0.084  0.00  0.00    -0.050 S 
ATOM      8  N   UNL     1      -9.120  -3.036  -0.294  0.00  0.00    -0.195 N 
ATOM      9  C   UNL     1     -10.575  -2.853  -0.422  0.00  0.00    +0.136 C 
ATOM     10  C   UNL     1     -11.120  -4.295  -0.455  0.00  0.00    +0.087 C 
ATOM     11  C   UNL     1      -9.881  -5.155  -0.339  0.00  0.00    +0.069 C 
ATOM     12  N   UNL     1      -8.839  -4.401  -0.262  0.00  0.00    -0.182 NA
ENDROOT
BRANCH   9  13
ATOM     13  C   UNL     1     -11.121  -2.103   0.765  0.00  0.00    -0.025 A 
ATOM     14  C   UNL     1     -10.620  -2.350   2.029  0.00  0.00    +0.007 A 
ATOM     15  C   UNL     1     -11.120  -1.663   3.119  0.00  0.00    +0.020 A 
ATOM     16  C   UNL     1     -12.124  -0.727   2.944  0.00  0.00    +0.041 A 
ATOM     17  C   UNL     1     -12.626  -0.480   1.678  0.00  0.00    +0.020 A 
ATOM     18  C   UNL     1     -12.121  -1.164   0.589  0.00  0.00    +0.007 A 
ATOM     19 CL   UNL     1     -12.754   0.137   4.311  0.00  0.00    -0.084 Cl
ENDBRANCH   9  13
BRANCH   1  22
ATOM     20  C   UNL     1      -1.238  -0.661   0.516  0.00  0.00    +0.162 A 
ATOM     21  C   UNL     1      -2.379   0.067   0.245  0.00  0.00    +0.057 A 
ATOM     22  C   UNL     1      -3.634  -0.549   0.325  0.00  0.00    -0.020 A 
ATOM     23  C   UNL     1      -3.724  -1.901   0.679  0.00  0.00    +0.012 A 
ATOM     24  C   UNL     1      -2.580  -2.619   0.948  0.00  0.00    +0.050 A 
ATOM     25  C   UNL     1      -1.336  -2.008   0.864  0.00  0.00    +0.158 A 
BRANCH  20  27
ATOM     26  C   UNL     1       0.008   1.317   0.079  0.00  0.00    +0.277 C 
ATOM     27  O   UNL     1      -0.018  -0.066   0.440  0.00  0.00    -0.491 OA
ENDBRANCH  20  27
BRANCH  25  28
ATOM     28  O   UNL     1      -0.211  -2.723   1.125  0.00  0.00    -0.503 OA
ATOM     29  H   UNL     1       0.059  -2.706   2.053  0.00  0.00    +0.292 HD
ENDBRANCH  25  28
ENDBRANCH   1  22
BRANCH  11  30
ATOM     30  C   UNL     1      -9.867  -6.629  -0.323  0.00  0.00    -0.002 A 
ATOM     31  C   UNL     1     -11.064  -7.343  -0.425  0.00  0.00    +0.010 A 
ATOM     32  C   UNL     1     -11.043  -8.722  -0.409  0.00  0.00    +0.001 A 
ATOM     33  C   UNL     1      -9.842  -9.399  -0.292  0.00  0.00    +0.000 A 
ATOM     34  C   UNL     1      -8.653  -8.698  -0.190  0.00  0.00    +0.001 A 
ATOM     35  C   UNL     1      -8.658  -7.319  -0.211  0.00  0.00    +0.010 A 
ENDBRANCH  11  30
TORSDOF 5
