REMARK  Name = ZINC65795076
REMARK  4 active torsions:
REMARK  status: ('A' for Active; 'I' for Inactive)
REMARK    1  A    between atoms: C_3  and  N_20
REMARK    2  A    between atoms: C_6  and  O_7
REMARK    3  A    between atoms: O_7  and  S_8
REMARK    4  A    between atoms: S_8  and  C_11
REMARK                            x       y       z     vdW  Elec       q    Type
REMARK                         _______ _______ _______ _____ _____    ______ ____
ROOT
ATOM      1  O   UNL     1      -1.165  -0.700   0.010  0.00  0.00    -0.342 OA
ENDROOT
BRANCH   1   7
ATOM      2  C   UNL     1      -0.017   1.383   0.010  0.00  0.00    +0.051 A 
ATOM      3  C   UNL     1       1.171   2.090   0.002  0.00  0.00    +0.039 A 
ATOM      4  C   UNL     1       2.377   1.417  -0.013  0.00  0.00    +0.161 A 
ATOM      5  C   UNL     1       2.400   0.032  -0.021  0.00  0.00    +0.157 A 
ATOM      6  C   UNL     1       1.214  -0.679  -0.014  0.00  0.00    +0.089 A 
ATOM      7  C   UNL     1       0.002  -0.004   0.002  0.00  0.00    +0.160 A 
ATOM      8  F   UNL     1       3.581  -0.624  -0.035  0.00  0.00    -0.203 F 
BRANCH   4   9
ATOM      9  N   UNL     1       3.647   2.177  -0.022  0.00  0.00    +0.059 N 
ATOM     10  O   UNL     1       3.629   3.386  -0.015  0.00  0.00    -0.126 OA
ATOM     11  O   UNL     1       4.704   1.589  -0.035  0.00  0.00    -0.126 OA
ENDBRANCH   4   9
ENDBRANCH   1   7
BRANCH   1  12
ATOM     12  S   UNL     1      -1.710  -1.010  -1.377  0.00  0.00    +0.154 S 
ATOM     13  O   UNL     1      -3.013  -1.545  -1.191  0.00  0.00    -0.131 OA
ATOM     14  O   UNL     1      -1.466   0.140  -2.175  0.00  0.00    -0.131 OA
BRANCH  12  15
ATOM     15  C   UNL     1      -0.724  -2.308  -2.047  0.00  0.00    +0.163 A 
ATOM     16  C   UNL     1       0.410  -2.007  -2.778  0.00  0.00    +0.035 A 
ATOM     17  C   UNL     1       1.184  -3.023  -3.304  0.00  0.00    +0.022 A 
ATOM     18  C   UNL     1       0.825  -4.344  -3.099  0.00  0.00    +0.044 A 
ATOM     19  C   UNL     1      -0.309  -4.647  -2.367  0.00  0.00    +0.060 A 
ATOM     20  C   UNL     1      -1.081  -3.628  -1.836  0.00  0.00    +0.153 A 
ATOM     21  F   UNL     1      -2.187  -3.923  -1.117  0.00  0.00    -0.203 F 
ATOM     22 CL   UNL     1       1.798  -5.621  -3.760  0.00  0.00    -0.083 Cl
ENDBRANCH  12  15
ENDBRANCH   1  12
TORSDOF 4
