REMARK  Name = ZINC35679341
REMARK  7 active torsions:
REMARK  status: ('A' for Active; 'I' for Inactive)
REMARK    1  A    between atoms: C_1  and  C_2
REMARK    2  A    between atoms: C_5  and  C_21
REMARK    3  A    between atoms: N_8  and  S_10
REMARK    4  A    between atoms: S_10  and  C_13
REMARK    5  A    between atoms: C_16  and  C_18
REMARK    6  A    between atoms: C_18  and  C_19
REMARK    7  A    between atoms: C_19  and  N_20
REMARK                            x       y       z     vdW  Elec       q    Type
REMARK                         _______ _______ _______ _____ _____    ______ ____
ROOT
ATOM      1  S   UNL     1       1.999  -2.914   1.419  0.00  0.00    +0.067 S 
ATOM      2  O   UNL     1       2.998  -2.098   2.015  0.00  0.00    -0.152 OA
ATOM      3  O   UNL     1       1.587  -4.150   1.986  0.00  0.00    -0.152 OA
ENDROOT
BRANCH   1   9
ATOM      4  C   UNL     1      -0.019   1.526   0.010  0.00  0.00    +0.009 C 
ATOM      5  C   UNL     1       0.002  -0.004   0.002  0.00  0.00    +0.002 C 
ATOM      6  C   UNL     1      -1.433  -0.534   0.015  0.00  0.00    +0.009 C 
ATOM      7  C   UNL     1      -1.414  -2.064  -0.027  0.00  0.00    +0.002 C 
ATOM      8  C   UNL     1      -0.692  -2.596   1.215  0.00  0.00    +0.112 C 
ATOM      9  N   UNL     1       0.639  -1.977   1.288  0.00  0.00    -0.176 NA
ATOM     10  C   UNL     1       0.742  -0.512   1.244  0.00  0.00    +0.112 C 
ATOM     11  C   UNL     1      -2.850  -2.592  -0.049  0.00  0.00    +0.009 C 
ENDBRANCH   1   9
BRANCH   1  12
ATOM     12  C   UNL     1       2.547  -3.268  -0.217  0.00  0.00    +0.143 A 
ATOM     13  C   UNL     1       3.413  -2.575  -0.996  0.00  0.00    +0.036 A 
ATOM     14  C   UNL     1       3.700  -3.046  -2.263  0.00  0.00    +0.013 A 
ATOM     15  C   UNL     1       3.107  -4.188  -2.690  0.00  0.00    -0.010 A 
ATOM     16  S   UNL     1       2.111  -4.637  -1.277  0.00  0.00    -0.074 S 
BRANCH  15  17
ATOM     17  C   UNL     1       3.253  -4.897  -4.011  0.00  0.00    +0.023 C 
BRANCH  17  18
ATOM     18  C   UNL     1       4.399  -5.907  -3.924  0.00  0.00    -0.081 C 
BRANCH  18  19
ATOM     19  N   UNL     1       4.542  -6.598  -5.212  0.00  0.00    +0.378 N 
ATOM     20  H   UNL     1       3.684  -7.082  -5.431  0.00  0.00    -0.090 HD
ATOM     21  H   UNL     1       4.742  -5.924  -5.936  0.00  0.00    -0.090 HD
ATOM     22  H   UNL     1       5.298  -7.264  -5.155  0.00  0.00    -0.090 HD
ENDBRANCH  18  19
ENDBRANCH  17  18
ENDBRANCH  15  17
ENDBRANCH   1  12
TORSDOF 5
