REMARK  Name = ZINC01889857
REMARK  6 active torsions:
REMARK  status: ('A' for Active; 'I' for Inactive)
REMARK    1  A    between atoms: C_3  and  C_8
REMARK    2  A    between atoms: C_11  and  C_22
REMARK    3  A    between atoms: C_16  and  C_18
REMARK    4  A    between atoms: C_18  and  C_19
REMARK    5  A    between atoms: C_19  and  C_20
REMARK    6  A    between atoms: C_20  and  O_21
REMARK                            x       y       z     vdW  Elec       q    Type
REMARK                         _______ _______ _______ _____ _____    ______ ____
ROOT
ATOM      1  C   UNL     1       3.672   2.183  -0.022  0.00  0.00    +0.147 C 
ATOM      2  C   UNL     1       4.482   1.823  -1.273  0.00  0.00    +0.087 C 
ATOM      3  C   UNL     1       5.149   0.485  -1.118  0.00  0.00    +0.055 C 
ATOM      4  N   UNL     1       5.590   0.048   0.031  0.00  0.00    -0.215 NA
ATOM      5  C   UNL     1       5.374   0.799   1.143  0.00  0.00    +0.250 A 
ATOM      6  N   UNL     1       4.468   1.827   1.151  0.00  0.00    -0.221 N 
ATOM      7  N   UNL     1       4.500   2.377   2.428  0.00  0.00    -0.153 NA
ATOM      8  C   UNL     1       5.371   1.680   3.119  0.00  0.00    +0.153 A 
ATOM      9  N   UNL     1       5.892   0.724   2.344  0.00  0.00    -0.194 NA
ENDROOT
BRANCH   1  12
ATOM     10  C   UNL     1      -0.017   1.378   0.010  0.00  0.00    +0.001 A 
ATOM     11  C   UNL     1       1.171   2.086   0.002  0.00  0.00    +0.006 A 
ATOM     12  C   UNL     1       2.378   1.411  -0.013  0.00  0.00    -0.022 A 
ATOM     13  C   UNL     1       2.397   0.029  -0.022  0.00  0.00    +0.021 A 
ATOM     14  C   UNL     1       1.210  -0.679  -0.014  0.00  0.00    +0.018 A 
ATOM     15  C   UNL     1       0.002  -0.004   0.002  0.00  0.00    +0.015 A 
ATOM     16 BR   UNL     1       1.236  -2.570  -0.025  0.00  0.00    -0.050 Br
ENDBRANCH   1  12
BRANCH   3  17
ATOM     17  C   UNL     1       5.311  -0.366  -2.307  0.00  0.00    -0.003 A 
ATOM     18  C   UNL     1       4.854   0.075  -3.554  0.00  0.00    +0.011 A 
ATOM     19  C   UNL     1       5.009  -0.728  -4.664  0.00  0.00    +0.016 A 
ATOM     20  C   UNL     1       5.615  -1.968  -4.547  0.00  0.00    +0.018 A 
ATOM     21  C   UNL     1       6.070  -2.411  -3.316  0.00  0.00    +0.016 A 
ATOM     22  C   UNL     1       5.927  -1.617  -2.198  0.00  0.00    +0.011 A 
ATOM     23 BR   UNL     1       5.823  -3.061  -6.075  0.00  0.00    -0.050 Br
ENDBRANCH   3  17
BRANCH   8  24
ATOM     24  C   UNL     1       5.728   1.919   4.564  0.00  0.00    +0.080 C 
BRANCH  24  25
ATOM     25  C   UNL     1       4.801   1.097   5.462  0.00  0.00    +0.035 C 
BRANCH  25  26
ATOM     26  C   UNL     1       5.164   1.341   6.928  0.00  0.00    +0.156 C 
BRANCH  26  27
ATOM     27  O   UNL     1       4.298   0.573   7.766  0.00  0.00    -0.395 OA
ATOM     28  H   UNL     1       4.471   0.679   8.712  0.00  0.00    +0.209 HD
ENDBRANCH  26  27
ENDBRANCH  25  26
ENDBRANCH  24  25
ENDBRANCH   8  24
TORSDOF 6
