REMARK  Name = ZINC27564178
REMARK  8 active torsions:
REMARK  status: ('A' for Active; 'I' for Inactive)
REMARK    1  A    between atoms: C_1  and  C_2
REMARK    2  A    between atoms: C_5  and  C_15
REMARK    3  A    between atoms: C_7  and  O_8
REMARK    4  A    between atoms: O_8  and  C_9
REMARK    5  A    between atoms: C_15  and  C_17
REMARK    6  A    between atoms: C_15  and  C_28
REMARK    7  A    between atoms: C_17  and  C_18
REMARK    8  A    between atoms: C_28  and  O_29
REMARK                            x       y       z     vdW  Elec       q    Type
REMARK                         _______ _______ _______ _____ _____    ______ ____
ROOT
ATOM      1  C   UNL     1       0.204   1.499   0.014  0.00  0.00    +0.049 C 
ATOM      2  C   UNL     1      -0.213   0.051   0.016  0.00  0.00    +0.008 A 
ATOM      3  C   UNL     1      -0.528  -0.588  -1.166  0.00  0.00    +0.089 A 
ATOM      4  N   UNL     1      -0.894  -1.856  -1.173  0.00  0.00    -0.364 N 
ATOM      5  C   UNL     1      -0.975  -2.563  -0.062  0.00  0.00    +0.025 A 
ATOM      6  C   UNL     1      -0.678  -1.997   1.161  0.00  0.00    +0.068 A 
ATOM      7  C   UNL     1      -0.281  -0.663   1.210  0.00  0.00    +0.134 A 
ATOM      8  H   UNL     1      -1.110  -2.279  -2.018  0.00  0.00    +0.165 HD
ENDROOT
BRANCH   7   9
ATOM      9  O   UNL     1       0.025  -0.071   2.393  0.00  0.00    -0.456 OA
BRANCH   9  10
ATOM     10  C   UNL     1      -0.064  -0.820   3.523  0.00  0.00    +0.128 A 
ATOM     11  C   UNL     1       1.037  -1.535   3.972  0.00  0.00    +0.046 A 
ATOM     12  C   UNL     1       0.944  -2.296   5.121  0.00  0.00    +0.004 A 
ATOM     13  C   UNL     1      -0.246  -2.346   5.823  0.00  0.00    +0.000 A 
ATOM     14  C   UNL     1      -1.345  -1.635   5.378  0.00  0.00    +0.004 A 
ATOM     15  C   UNL     1      -1.255  -0.868   4.233  0.00  0.00    +0.046 A 
ENDBRANCH   9  10
ENDBRANCH   7   9
BRANCH   5  16
ATOM     16  C   UNL     1      -1.399  -4.008  -0.129  0.00  0.00    +0.065 C 
BRANCH  16  17
ATOM     17  C   UNL     1      -2.438  -4.184  -1.238  0.00  0.00    +0.047 C 
BRANCH  17  18
ATOM     18  C   UNL     1      -2.952  -5.600  -1.226  0.00  0.00    -0.039 A 
ATOM     19  C   UNL     1      -2.395  -6.538  -2.040  0.00  0.00    +0.004 A 
ATOM     20  C   UNL     1      -2.857  -7.852  -2.042  0.00  0.00    +0.001 A 
ATOM     21  C   UNL     1      -3.879  -8.237  -1.230  0.00  0.00    +0.008 A 
ATOM     22  C   UNL     1      -4.480  -7.297  -0.375  0.00  0.00    -0.018 A 
ATOM     23  C   UNL     1      -4.006  -5.961  -0.369  0.00  0.00    -0.015 A 
ATOM     24  C   UNL     1      -4.603  -5.023   0.490  0.00  0.00    +0.009 A 
ATOM     25  C   UNL     1      -5.621  -5.409   1.306  0.00  0.00    +0.001 A 
ATOM     26  C   UNL     1      -6.083  -6.724   1.305  0.00  0.00    +0.001 A 
ATOM     27  C   UNL     1      -5.538  -7.657   0.477  0.00  0.00    +0.008 A 
ENDBRANCH  17  18
ENDBRANCH  16  17
BRANCH  16  28
ATOM     28  C   UNL     1      -0.181  -4.884  -0.428  0.00  0.00    +0.165 C 
BRANCH  28  29
ATOM     29  O   UNL     1       0.739  -4.810   0.663  0.00  0.00    -0.394 OA
ATOM     30  H   UNL     1       1.537  -5.342   0.542  0.00  0.00    +0.209 HD
ENDBRANCH  28  29
ENDBRANCH  16  28
ENDBRANCH   5  16
TORSDOF 7
