REMARK  Name = ZINC36531037
REMARK  13 active torsions:
REMARK  status: ('A' for Active; 'I' for Inactive)
REMARK    1  A    between atoms: C_1  and  C_2
REMARK    2  A    between atoms: C_5  and  S_8
REMARK    3  A    between atoms: S_8  and  C_11
REMARK    4  A    between atoms: C_11  and  N_12
REMARK    5  A    between atoms: C_13  and  C_15
REMARK    6  A    between atoms: C_15  and  C_17
REMARK    7  A    between atoms: C_15  and  N_26
REMARK    8  A    between atoms: C_17  and  C_19
REMARK    9  A    between atoms: C_17  and  C_20
REMARK   10  A    between atoms: N_26  and  C_27
REMARK   11  A    between atoms: C_28  and  C_30
REMARK   12  A    between atoms: C_31  and  O_37
REMARK   13  A    between atoms: C_35  and  O_36
REMARK                            x       y       z     vdW  Elec       q    Type
REMARK                         _______ _______ _______ _____ _____    ______ ____
ROOT
ATOM      1  C   UNL     1       3.207  -4.941   3.534  0.00  0.00    +0.169 C 
ENDROOT
BRANCH   1   3
ATOM      2  N   UNL     1       2.445  -4.534   1.216  0.00  0.00    -0.295 N 
ATOM      3  C   UNL     1       2.566  -5.393   2.247  0.00  0.00    +0.235 C 
ATOM      4  O   UNL     1       2.159  -6.531   2.139  0.00  0.00    -0.274 OA
ATOM      5  H   UNL     1       2.770  -3.624   1.302  0.00  0.00    +0.150 HD
BRANCH   2   6
ATOM      6  C   UNL     1       1.822  -4.974  -0.035  0.00  0.00    +0.278 C 
BRANCH   6   7
ATOM      7  S   UNL     1       0.063  -4.530  -0.023  0.00  0.00    +0.013 S 
ATOM      8  O   UNL     1      -0.528  -4.907   1.213  0.00  0.00    -0.168 OA
ATOM      9  O   UNL     1      -0.542  -4.894  -1.256  0.00  0.00    -0.168 OA
BRANCH   7  14
ATOM     10  C   UNL     1      -0.018   1.503   0.010  0.00  0.00    +0.044 C 
ATOM     11  C   UNL     1       0.002  -0.004   0.002  0.00  0.00    -0.050 A 
ATOM     12  C   UNL     1       0.006  -0.689  -1.199  0.00  0.00    +0.005 A 
ATOM     13  C   UNL     1       0.025  -2.071  -1.206  0.00  0.00    +0.027 A 
ATOM     14  C   UNL     1       0.040  -2.768  -0.013  0.00  0.00    +0.090 A 
ATOM     15  C   UNL     1       0.037  -2.084   1.188  0.00  0.00    +0.027 A 
ATOM     16  C   UNL     1       0.023  -0.702   1.195  0.00  0.00    +0.005 A 
ENDBRANCH   7  14
ENDBRANCH   6   7
ENDBRANCH   2   6
ENDBRANCH   1   3
BRANCH   1  17
ATOM     17  N   UNL     1       3.219  -6.051   4.490  0.00  0.00    -0.288 N 
ATOM     18  C   UNL     1       3.922  -7.293   4.162  0.00  0.00    +0.133 C 
ATOM     19  C   UNL     1       2.582  -5.928   5.672  0.00  0.00    +0.254 C 
ATOM     20  O   UNL     1       1.998  -4.897   5.944  0.00  0.00    -0.270 OA
BRANCH  19  21
ATOM     21  C   UNL     1       2.594  -7.044   6.633  0.00  0.00    +0.119 A 
ATOM     22  C   UNL     1       3.608  -7.135   7.597  0.00  0.00    +0.133 A 
ATOM     23  C   UNL     1       3.610  -8.188   8.497  0.00  0.00    +0.046 A 
ATOM     24  C   UNL     1       2.616  -9.148   8.447  0.00  0.00    +0.007 A 
ATOM     25  C   UNL     1       1.611  -9.068   7.500  0.00  0.00    +0.046 A 
ATOM     26  C   UNL     1       1.588  -8.020   6.594  0.00  0.00    +0.133 A 
BRANCH  26  27
ATOM     27  O   UNL     1       0.598  -7.941   5.670  0.00  0.00    -0.506 OA
ATOM     28  H   UNL     1       0.796  -8.397   4.841  0.00  0.00    +0.292 HD
ENDBRANCH  26  27
BRANCH  22  29
ATOM     29  O   UNL     1       4.585  -6.194   7.648  0.00  0.00    -0.506 OA
ATOM     30  H   UNL     1       4.379  -5.444   8.222  0.00  0.00    +0.292 HD
ENDBRANCH  22  29
ENDBRANCH  19  21
ENDBRANCH   1  17
BRANCH   1  31
ATOM     31  C   UNL     1       4.643  -4.490   3.257  0.00  0.00    +0.045 C 
ATOM     32  C   UNL     1       5.294  -4.031   4.563  0.00  0.00    +0.015 C 
BRANCH  31  33
ATOM     33  C   UNL     1       4.631  -3.349   2.273  0.00  0.00    -0.042 A 
ATOM     34  C   UNL     1       3.972  -2.175   2.585  0.00  0.00    +0.004 A 
ATOM     35  C   UNL     1       3.961  -1.127   1.683  0.00  0.00    +0.000 A 
ATOM     36  C   UNL     1       4.609  -1.255   0.469  0.00  0.00    +0.000 A 
ATOM     37  C   UNL     1       5.269  -2.429   0.157  0.00  0.00    +0.000 A 
ATOM     38  C   UNL     1       5.284  -3.474   1.061  0.00  0.00    +0.004 A 
ENDBRANCH  31  33
ENDBRANCH   1  31
TORSDOF 10
