REMARK  Name = ZINC52584874
REMARK  11 active torsions:
REMARK  status: ('A' for Active; 'I' for Inactive)
REMARK    1  A    between atoms: C_4  and  C_7
REMARK    2  A    between atoms: C_7  and  C_8
REMARK    3  A    between atoms: C_8  and  N_9
REMARK    4  A    between atoms: C_10  and  C_12
REMARK    5  A    between atoms: C_12  and  C_14
REMARK    6  A    between atoms: C_12  and  N_24
REMARK    7  A    between atoms: C_14  and  C_15
REMARK    8  A    between atoms: C_25  and  C_27
REMARK    9  A    between atoms: C_27  and  N_28
REMARK   10  A    between atoms: N_28  and  C_29
REMARK   11  A    between atoms: C_29  and  C_30
REMARK                            x       y       z     vdW  Elec       q    Type
REMARK                         _______ _______ _______ _____ _____    ______ ____
ROOT
ATOM      1  C   UNL     1       7.365  -2.749   2.524  0.00  0.00    +0.163 C 
ENDROOT
BRANCH   1   3
ATOM      2  N   UNL     1       5.450  -1.678   1.382  0.00  0.00    -0.313 N 
ATOM      3  C   UNL     1       6.050  -2.013   2.541  0.00  0.00    +0.234 C 
ATOM      4  O   UNL     1       5.532  -1.722   3.599  0.00  0.00    -0.274 OA
ATOM      5  H   UNL     1       5.864  -1.911   0.536  0.00  0.00    +0.149 HD
BRANCH   2   6
ATOM      6  C   UNL     1       4.171  -0.963   1.399  0.00  0.00    +0.109 C 
BRANCH   6   7
ATOM      7  C   UNL     1       3.711  -0.707  -0.038  0.00  0.00    +0.054 C 
BRANCH   7  11
ATOM      8  C   UNL     1      -0.017   1.378   0.010  0.00  0.00    +0.000 A 
ATOM      9  C   UNL     1       1.171   2.086   0.002  0.00  0.00    +0.000 A 
ATOM     10  C   UNL     1       2.377   1.411  -0.013  0.00  0.00    +0.004 A 
ATOM     11  C   UNL     1       2.396   0.029  -0.020  0.00  0.00    -0.046 A 
ATOM     12  C   UNL     1       1.208  -0.679  -0.012  0.00  0.00    +0.004 A 
ATOM     13  C   UNL     1       0.002  -0.004   0.002  0.00  0.00    +0.000 A 
ENDBRANCH   7  11
ENDBRANCH   6   7
ENDBRANCH   2   6
ENDBRANCH   1   3
BRANCH   1  14
ATOM     14  N   UNL     1       7.806  -2.994   3.899  0.00  0.00    -0.303 N 
ATOM     15  C   UNL     1       9.116  -3.162   4.168  0.00  0.00    +0.228 C 
ATOM     16  O   UNL     1       9.930  -3.109   3.270  0.00  0.00    -0.274 OA
ATOM     17  H   UNL     1       7.155  -3.036   4.617  0.00  0.00    +0.149 HD
BRANCH  15  18
ATOM     18  C   UNL     1       9.569  -3.414   5.582  0.00  0.00    +0.177 C 
BRANCH  18  19
ATOM     19  N   UNL     1      11.031  -3.561   5.610  0.00  0.00    -0.304 NA
ATOM     20  H   UNL     1      11.332  -4.291   4.983  0.00  0.00    +0.123 HD
BRANCH  19  21
ATOM     21  C   UNL     1      11.510  -3.808   6.976  0.00  0.00    +0.118 C 
BRANCH  21  22
ATOM     22  C   UNL     1      13.010  -3.953   6.964  0.00  0.00    -0.015 A 
ATOM     23  C   UNL     1      13.593  -5.197   6.780  0.00  0.00    +0.008 A 
ATOM     24  C   UNL     1      14.977  -5.283   6.776  0.00  0.00    +0.020 A 
ATOM     25  C   UNL     1      15.723  -4.133   6.955  0.00  0.00    +0.111 A 
ATOM     26  N   UNL     1      15.134  -2.967   7.128  0.00  0.00    -0.263 NA
ATOM     27  C   UNL     1      13.821  -2.847   7.131  0.00  0.00    +0.115 A 
ENDBRANCH  21  22
ENDBRANCH  19  21
ENDBRANCH  18  19
ENDBRANCH  15  18
ENDBRANCH   1  14
BRANCH   1  28
ATOM     28  C   UNL     1       7.193  -4.085   1.798  0.00  0.00    +0.065 C 
BRANCH  28  29
ATOM     29  C   UNL     1       8.532  -4.764   1.672  0.00  0.00    -0.039 C 
ATOM     30  C   UNL     1       9.050  -5.700   2.501  0.00  0.00    -0.001 A 
ATOM     31  C   UNL     1       8.542  -6.339   3.720  0.00  0.00    +0.010 A 
ATOM     32  C   UNL     1       9.308  -7.261   4.346  0.00  0.00    +0.001 A 
ATOM     33  C   UNL     1      10.572  -7.622   3.859  0.00  0.00    +0.002 A 
ATOM     34  C   UNL     1      11.107  -7.079   2.745  0.00  0.00    +0.026 A 
ATOM     35  C   UNL     1      10.388  -6.098   2.007  0.00  0.00    +0.043 A 
ATOM     36  N   UNL     1      10.685  -5.435   0.916  0.00  0.00    -0.380 N 
ATOM     37  C   UNL     1       9.566  -4.544   0.591  0.00  0.00    +0.144 C 
ATOM     38  H   UNL     1      11.507  -5.521   0.408  0.00  0.00    +0.160 HD
ENDBRANCH  28  29
ENDBRANCH   1  28
TORSDOF 11
