REMARK  Name = ZINC08618274
REMARK  9 active torsions:
REMARK  status: ('A' for Active; 'I' for Inactive)
REMARK    1  A    between atoms: C_1  and  C_2
REMARK    2  A    between atoms: C_3  and  C_29
REMARK    3  A    between atoms: C_4  and  C_16
REMARK    4  A    between atoms: C_10  and  C_14
REMARK    5  A    between atoms: C_10  and  C_15
REMARK    6  A    between atoms: C_20  and  C_21
REMARK    7  A    between atoms: C_22  and  C_23
REMARK    8  A    between atoms: C_29  and  O_31
REMARK    9  A    between atoms: O_31  and  C_32
REMARK                            x       y       z     vdW  Elec       q    Type
REMARK                         _______ _______ _______ _____ _____    ______ ____
ROOT
ATOM      1  C   UNL     1      -0.023   1.042   0.019  0.00  0.00    +0.061 C 
ATOM      2  C   UNL     1      -0.723   1.549   1.253  0.00  0.00    +0.031 C 
ATOM      3  C   UNL     1      -0.036   1.689   2.400  0.00  0.00    +0.154 C 
ATOM      4  C   UNL     1      -0.700   2.197   3.648  0.00  0.00    +0.075 C 
ATOM      5  C   UNL     1      -2.200   2.082   3.546  0.00  0.00    +0.025 C 
ATOM      6  C   UNL     1      -2.798   1.934   2.347  0.00  0.00    +0.049 C 
ATOM      7  N   UNL     1      -2.052   1.863   1.199  0.00  0.00    -0.260 NA
ATOM      8  C   UNL     1      -4.300   1.824   2.236  0.00  0.00    +0.062 C 
ATOM      9  C   UNL     1      -4.866   1.173   3.499  0.00  0.00    -0.023 C 
ATOM     10  C   UNL     1      -4.452   2.018   4.709  0.00  0.00    +0.086 C 
ATOM     11  C   UNL     1      -2.953   2.138   4.732  0.00  0.00    +0.162 C 
ATOM     12  O   UNL     1      -2.382   2.287   5.794  0.00  0.00    -0.292 OA
ATOM     13  C   UNL     1      -4.303  -0.242   3.643  0.00  0.00    +0.011 C 
ATOM     14  C   UNL     1      -6.393   1.113   3.412  0.00  0.00    +0.011 C 
ENDROOT
BRANCH   4  15
ATOM     15  C   UNL     1      -0.328   3.642   3.861  0.00  0.00    -0.016 A 
ATOM     16  C   UNL     1      -0.628   4.578   2.936  0.00  0.00    +0.050 A 
ATOM     17  S   UNL     1       0.013   6.074   3.663  0.00  0.00    -0.104 S 
ATOM     18  C   UNL     1       0.667   5.390   5.175  0.00  0.00    +0.062 A 
ATOM     19  C   UNL     1       0.362   4.059   5.053  0.00  0.00    +0.036 A 
BRANCH  19  20
ATOM     20  C   UNL     1       0.716   3.119   6.073  0.00  0.00    -0.060 C 
ATOM     21  C   UNL     1       1.007   2.349   6.910  0.00  0.00    -0.061 C 
BRANCH  21  22
ATOM     22  C   UNL     1       1.361   1.409   7.931  0.00  0.00    +0.025 A 
ATOM     23  C   UNL     1       1.034   0.058   7.786  0.00  0.00    +0.017 A 
ATOM     24  C   UNL     1       1.383  -0.842   8.770  0.00  0.00    +0.001 A 
ATOM     25  C   UNL     1       2.047  -0.408   9.905  0.00  0.00    +0.000 A 
ATOM     26  C   UNL     1       2.369   0.928  10.058  0.00  0.00    +0.001 A 
ATOM     27  C   UNL     1       2.031   1.839   9.079  0.00  0.00    +0.017 A 
ENDBRANCH  21  22
ENDBRANCH  19  20
ENDBRANCH   4  15
BRANCH   3  28
ATOM     28  C   UNL     1       1.338   1.356   2.431  0.00  0.00    +0.316 C 
ATOM     29  O   UNL     1       1.913   1.049   1.404  0.00  0.00    -0.250 OA
BRANCH  28  30
ATOM     30  O   UNL     1       2.012   1.379   3.600  0.00  0.00    -0.467 OA
ATOM     31  C   UNL     1       3.397   1.031   3.558  0.00  0.00    +0.280 C 
ENDBRANCH  28  30
ENDBRANCH   3  28
TORSDOF 5
