REMARK  Name = ZINC08322955
REMARK  2 active torsions:
REMARK  status: ('A' for Active; 'I' for Inactive)
REMARK    1  A    between atoms: C_6  and  C_10
REMARK    2  A    between atoms: N_17  and  C_18
REMARK                            x       y       z     vdW  Elec       q    Type
REMARK                         _______ _______ _______ _____ _____    ______ ____
ROOT
ATOM      1  C   UNL     1      -2.543   1.468   0.021  0.00  0.00    +0.049 C 
ATOM      2  C   UNL     1      -1.247   1.939   0.018  0.00  0.00    +0.081 C 
ATOM      3  C   UNL     1      -0.015   1.219   0.009  0.00  0.00    +0.276 C 
ATOM      4  O   UNL     1       0.002  -0.004   0.002  0.00  0.00    -0.267 OA
ATOM      5  N   UNL     1       1.103   1.913   0.002  0.00  0.00    -0.154 NA
ATOM      6  C   UNL     1       1.103   3.239   0.009  0.00  0.00    +0.152 C 
ATOM      7  S   UNL     1      -0.642   3.622   0.028  0.00  0.00    -0.052 S 
ATOM      8  N   UNL     1       2.173   4.099   0.003  0.00  0.00    -0.322 N 
ATOM      9  H   UNL     1       2.025   5.058   0.010  0.00  0.00    +0.148 HD
ENDROOT
BRANCH   1  15
ATOM     10  C   UNL     1      -5.200   1.620  -1.889  0.00  0.00    +0.101 A 
ATOM     11  C   UNL     1      -6.351   1.933  -2.486  0.00  0.00    +0.067 A 
ATOM     12  S   UNL     1      -6.874   3.359  -1.546  0.00  0.00    -0.058 S 
ATOM     13  C   UNL     1      -5.492   3.425  -0.430  0.00  0.00    +0.179 A 
ATOM     14  N   UNL     1      -4.729   2.365  -0.833  0.00  0.00    -0.292 N 
ATOM     15  C   UNL     1      -3.619   2.372   0.031  0.00  0.00    +0.086 A 
ATOM     16  C   UNL     1      -3.788   3.447   0.891  0.00  0.00    +0.156 A 
ATOM     17  N   UNL     1      -4.928   4.050   0.574  0.00  0.00    -0.209 NA
ATOM     18 CL   UNL     1      -2.699   3.922   2.158  0.00  0.00    -0.060 Cl
ENDBRANCH   1  15
BRANCH   8  19
ATOM     19  C   UNL     1       3.539   3.569  -0.012  0.00  0.00    +0.072 C 
ATOM     20  C   UNL     1       3.982   3.260   1.419  0.00  0.00    +0.022 C 
ATOM     21  C   UNL     1       5.409   2.707   1.403  0.00  0.00    +0.002 C 
ATOM     22  C   UNL     1       6.351   3.745   0.790  0.00  0.00    +0.000 C 
ATOM     23  C   UNL     1       5.908   4.054  -0.641  0.00  0.00    +0.002 C 
ATOM     24  C   UNL     1       4.482   4.607  -0.625  0.00  0.00    +0.022 C 
ENDBRANCH   8  19
TORSDOF 2
