REMARK  Name = ZINC09369103
REMARK  7 active torsions:
REMARK  status: ('A' for Active; 'I' for Inactive)
REMARK    1  A    between atoms: C_5  and  N_7
REMARK    2  A    between atoms: C_8  and  C_10
REMARK    3  A    between atoms: C_10  and  S_11
REMARK    4  A    between atoms: S_11  and  C_12
REMARK    5  A    between atoms: C_18  and  C_20
REMARK    6  A    between atoms: C_20  and  O_21
REMARK    7  A    between atoms: O_21  and  C_22
REMARK                            x       y       z     vdW  Elec       q    Type
REMARK                         _______ _______ _______ _____ _____    ______ ____
ROOT
ATOM      1  C   UNL     1      -1.850   2.405   5.995  0.00  0.00    +0.160 A 
ATOM      2  N   UNL     1      -2.418   2.799   4.864  0.00  0.00    -0.133 NA
ATOM      3  N   UNL     1      -1.945   2.486   3.737  0.00  0.00    -0.125 NA
ATOM      4  C   UNL     1      -0.855   1.747   3.614  0.00  0.00    +0.189 A 
ATOM      5  S   UNL     1      -0.473   1.466   5.341  0.00  0.00    -0.024 S 
ATOM      6  N   UNL     1      -0.196   1.307   2.469  0.00  0.00    -0.260 N 
ATOM      7  C   UNL     1      -0.669   1.637   1.251  0.00  0.00    +0.256 C 
ATOM      8  O   UNL     1      -1.669   2.317   1.152  0.00  0.00    -0.272 OA
ATOM      9  H   UNL     1       0.603   0.763   2.548  0.00  0.00    +0.157 HD
ENDROOT
BRANCH   1  10
ATOM     10  S   UNL     1      -2.321   2.712   7.665  0.00  0.00    -0.088 S 
BRANCH  10  11
ATOM     11  C   UNL     1      -3.816   3.728   7.520  0.00  0.00    +0.172 C 
BRANCH  11  13
ATOM     12  N   UNL     1      -5.439   4.819   9.036  0.00  0.00    -0.283 N 
ATOM     13  C   UNL     1      -4.330   4.066   8.896  0.00  0.00    +0.228 C 
ATOM     14  O   UNL     1      -3.744   3.661   9.878  0.00  0.00    -0.275 OA
ATOM     15  H   UNL     1      -5.870   5.197   8.253  0.00  0.00    +0.155 HD
BRANCH  12  20
ATOM     16  C   UNL     1      -5.648   5.430  12.657  0.00  0.00    +0.002 A 
ATOM     17  C   UNL     1      -7.017   5.522  12.830  0.00  0.00    +0.003 A 
ATOM     18  C   UNL     1      -7.865   5.381  11.747  0.00  0.00    +0.040 A 
ATOM     19  C   UNL     1      -7.345   5.148  10.486  0.00  0.00    +0.144 A 
ATOM     20  C   UNL     1      -5.969   5.055  10.310  0.00  0.00    +0.069 A 
ATOM     21  C   UNL     1      -5.122   5.191  11.402  0.00  0.00    +0.026 A 
ATOM     22  F   UNL     1      -8.174   5.010   9.428  0.00  0.00    -0.204 F 
ENDBRANCH  12  20
ENDBRANCH  11  13
ENDBRANCH  10  11
ENDBRANCH   1  10
BRANCH   7  23
ATOM     23  C   UNL     1       0.044   1.161   0.011  0.00  0.00    +0.325 C 
BRANCH  23  24
ATOM     24  O   UNL     1      -0.645   1.638  -1.147  0.00  0.00    -0.481 OA
BRANCH  24  25
ATOM     25  C   UNL     1      -0.128   1.295  -2.357  0.00  0.00    +0.140 A 
ATOM     26  C   UNL     1       1.018   0.516  -2.427  0.00  0.00    +0.048 A 
ATOM     27  C   UNL     1       1.542   0.169  -3.657  0.00  0.00    +0.023 A 
ATOM     28  C   UNL     1       0.925   0.597  -4.819  0.00  0.00    +0.043 A 
ATOM     29  C   UNL     1      -0.218   1.374  -4.752  0.00  0.00    +0.043 A 
ATOM     30  C   UNL     1      -0.749   1.719  -3.523  0.00  0.00    +0.084 A 
ATOM     31 CL   UNL     1      -2.188   2.687  -3.439  0.00  0.00    -0.080 Cl
ATOM     32 CL   UNL     1       1.585   0.159  -6.364  0.00  0.00    -0.083 Cl
ENDBRANCH  24  25
ENDBRANCH  23  24
ENDBRANCH   7  23
TORSDOF 7
