REMARK  Name = ZINC01077374
REMARK  9 active torsions:
REMARK  status: ('A' for Active; 'I' for Inactive)
REMARK    1  A    between atoms: C_1  and  C_2
REMARK    2  A    between atoms: C_2  and  O_3
REMARK    3  A    between atoms: O_3  and  C_4
REMARK    4  A    between atoms: C_7  and  C_12
REMARK    5  A    between atoms: C_9  and  O_10
REMARK    6  A    between atoms: O_10  and  C_11
REMARK    7  A    between atoms: C_17  and  C_27
REMARK    8  A    between atoms: C_30  and  C_36
REMARK    9  A    between atoms: C_31  and  N_33
REMARK                            x       y       z     vdW  Elec       q    Type
REMARK                         _______ _______ _______ _____ _____    ______ ____
ROOT
ATOM      1  C   UNL     1      -2.644   1.599   0.224  0.00  0.00    +0.032 C 
ATOM      2  C   UNL     1      -2.439   0.486  -0.802  0.00  0.00    +0.059 C 
ATOM      3  C   UNL     1      -3.597  -0.496  -0.737  0.00  0.00    +0.017 C 
ATOM      4  C   UNL     1      -4.218  -0.742   0.429  0.00  0.00    +0.036 C 
ATOM      5  C   UNL     1      -5.372  -1.693   0.636  0.00  0.00    +0.136 C 
ATOM      6  N   UNL     1      -5.640  -2.566  -0.488  0.00  0.00    -0.331 N 
ATOM      7  C   UNL     1      -6.066  -2.051  -1.711  0.00  0.00    +0.049 A 
ATOM      8  C   UNL     1      -7.344  -2.291  -2.191  0.00  0.00    +0.025 A 
ATOM      9  C   UNL     1      -7.763  -1.667  -3.353  0.00  0.00    +0.002 A 
ATOM     10  C   UNL     1      -6.914  -0.812  -4.032  0.00  0.00    +0.002 A 
ATOM     11  C   UNL     1      -5.629  -0.588  -3.568  0.00  0.00    +0.025 A 
ATOM     12  C   UNL     1      -5.204  -1.225  -2.416  0.00  0.00    +0.052 A 
ATOM     13  N   UNL     1      -3.913  -1.082  -1.920  0.00  0.00    -0.316 N 
ATOM     14  C   UNL     1      -3.810  -0.071   1.607  0.00  0.00    +0.163 C 
ATOM     15  O   UNL     1      -4.372  -0.332   2.653  0.00  0.00    -0.292 OA
ATOM     16  C   UNL     1      -2.711   0.948   1.611  0.00  0.00    +0.088 C 
ATOM     17  H   UNL     1      -5.521  -3.524  -0.388  0.00  0.00    +0.147 HD
ATOM     18  H   UNL     1      -3.184  -1.426  -2.459  0.00  0.00    +0.152 HD
ENDROOT
BRANCH   5  19
ATOM     19  C   UNL     1      -6.612  -0.885   0.919  0.00  0.00    -0.021 A 
ATOM     20  C   UNL     1      -7.103  -0.015  -0.037  0.00  0.00    +0.006 A 
ATOM     21  C   UNL     1      -8.243   0.722   0.221  0.00  0.00    +0.006 A 
ATOM     22  C   UNL     1      -8.886   0.598   1.438  0.00  0.00    -0.020 A 
ATOM     23  C   UNL     1      -8.392  -0.268   2.395  0.00  0.00    +0.129 A 
ATOM     24  C   UNL     1      -7.255  -1.010   2.136  0.00  0.00    +0.038 A 
ATOM     25  C   UNL     1     -10.126   1.406   1.722  0.00  0.00    +0.046 C 
BRANCH  23  26
ATOM     26  N   UNL     1      -9.081  -0.402   3.699  0.00  0.00    +0.057 N 
ATOM     27  O   UNL     1      -9.573   0.578   4.231  0.00  0.00    -0.126 OA
ATOM     28  O   UNL     1      -9.156  -1.490   4.240  0.00  0.00    -0.126 OA
ENDBRANCH  23  26
ENDBRANCH   5  19
BRANCH   1  32
ATOM     29  C   UNL     1       0.642   4.332   0.062  0.00  0.00    +0.162 A 
ATOM     30  C   UNL     1       0.865   2.990   0.327  0.00  0.00    +0.050 A 
ATOM     31  C   UNL     1      -0.199   2.110   0.383  0.00  0.00    +0.008 A 
ATOM     32  C   UNL     1      -1.488   2.564   0.169  0.00  0.00    -0.040 A 
ATOM     33  C   UNL     1      -1.718   3.902  -0.091  0.00  0.00    +0.053 A 
ATOM     34  C   UNL     1      -0.655   4.790  -0.148  0.00  0.00    +0.162 A 
BRANCH  34  35
ATOM     35  O   UNL     1      -0.879   6.106  -0.408  0.00  0.00    -0.491 OA
ATOM     36  C   UNL     1      -2.236   6.504  -0.613  0.00  0.00    +0.277 C 
ENDBRANCH  34  35
BRANCH  29  37
ATOM     37  O   UNL     1       1.688   5.199   0.007  0.00  0.00    -0.489 OA
BRANCH  37  39
ATOM     38  C   UNL     1       4.032   5.775   0.132  0.00  0.00    +0.048 C 
ATOM     39  C   UNL     1       2.992   4.658   0.233  0.00  0.00    +0.226 C 
ENDBRANCH  37  39
ENDBRANCH  29  37
ENDBRANCH   1  32
TORSDOF 6
