REMARK  Name = ZINC09193099
REMARK  10 active torsions:
REMARK  status: ('A' for Active; 'I' for Inactive)
REMARK    1  A    between atoms: C_1  and  C_2
REMARK    2  A    between atoms: C_6  and  O_8
REMARK    3  A    between atoms: O_8  and  C_9
REMARK    4  A    between atoms: C_9  and  C_10
REMARK    5  A    between atoms: C_16  and  C_17
REMARK    6  A    between atoms: C_19  and  C_31
REMARK    7  A    between atoms: N_20  and  C_23
REMARK    8  A    between atoms: C_21  and  C_22
REMARK    9  A    between atoms: C_25  and  C_30
REMARK   10  A    between atoms: C_28  and  C_29
REMARK                            x       y       z     vdW  Elec       q    Type
REMARK                         _______ _______ _______ _____ _____    ______ ____
ROOT
ATOM      1  C   UNL     1      -0.759  -4.405   3.944  0.00  0.00    +0.137 C 
ATOM      2  N   UNL     1      -0.699  -3.927   5.154  0.00  0.00    -0.166 NA
ATOM      3  N   UNL     1      -0.407  -4.739   6.229  0.00  0.00    -0.152 N 
ATOM      4  C   UNL     1      -0.404  -4.345   7.584  0.00  0.00    +0.153 C 
ATOM      5  N   UNL     1      -1.065  -3.310   8.032  0.00  0.00    -0.283 NA
ATOM      6  C   UNL     1       0.426  -5.224   8.453  0.00  0.00    +0.081 C 
ATOM      7  C   UNL     1       1.105  -4.731   9.549  0.00  0.00    +0.026 C 
ATOM      8  C   UNL     1       0.484  -6.658   8.079  0.00  0.00    +0.273 C 
ATOM      9  O   UNL     1       0.726  -7.515   8.913  0.00  0.00    -0.268 OA
ATOM     10  N   UNL     1       0.262  -6.987   6.791  0.00  0.00    -0.152 NA
ATOM     11  C   UNL     1      -0.121  -6.059   5.950  0.00  0.00    +0.181 C 
ATOM     12  S   UNL     1      -0.392  -6.135   4.199  0.00  0.00    -0.035 S 
ATOM     13  H   UNL     1      -1.558  -2.746   7.417  0.00  0.00    +0.188 HD
ENDROOT
BRANCH   7  14
ATOM     14  C   UNL     1       1.157  -3.333   9.781  0.00  0.00    -0.003 A 
ATOM     15  C   UNL     1       1.121  -2.265   8.771  0.00  0.00    +0.031 A 
ATOM     16  C   UNL     1       1.193  -1.105   9.443  0.00  0.00    +0.022 A 
ATOM     17  N   UNL     1       1.270  -1.364  10.784  0.00  0.00    -0.317 N 
ATOM     18  C   UNL     1       1.244  -2.693  11.007  0.00  0.00    +0.028 A 
ATOM     19  C   UNL     1       1.304  -3.366  12.354  0.00  0.00    +0.064 C 
ATOM     20  C   UNL     1       1.190   0.267   8.819  0.00  0.00    +0.064 C 
BRANCH  17  21
ATOM     21  C   UNL     1       1.359  -0.387  11.784  0.00  0.00    +0.050 A 
ATOM     22  C   UNL     1       0.204   0.125  12.360  0.00  0.00    +0.029 A 
ATOM     23  C   UNL     1       0.295   1.089  13.346  0.00  0.00    -0.048 A 
ATOM     24  C   UNL     1       1.534   1.543  13.758  0.00  0.00    +0.004 A 
ATOM     25  C   UNL     1       2.686   1.036  13.186  0.00  0.00    +0.005 A 
ATOM     26  C   UNL     1       2.602   0.067  12.204  0.00  0.00    -0.027 A 
ATOM     27  C   UNL     1       3.857  -0.491  11.586  0.00  0.00    +0.046 C 
ATOM     28  C   UNL     1      -0.958   1.645  13.972  0.00  0.00    +0.044 C 
ENDBRANCH  17  21
ENDBRANCH   7  14
BRANCH   1  29
ATOM     29  C   UNL     1      -1.067  -3.683   2.657  0.00  0.00    +0.293 C 
BRANCH  29  30
ATOM     30  O   UNL     1      -1.299  -2.300   2.930  0.00  0.00    -0.485 OA
BRANCH  30  36
ATOM     31  C   UNL     1      -2.383   2.130   1.192  0.00  0.00    +0.044 C 
ATOM     32  C   UNL     1      -2.126   0.660   0.983  0.00  0.00    -0.047 A 
ATOM     33  C   UNL     1      -2.188   0.122  -0.289  0.00  0.00    +0.003 A 
ATOM     34  C   UNL     1      -1.953  -1.227  -0.484  0.00  0.00    +0.004 A 
ATOM     35  C   UNL     1      -1.655  -2.040   0.592  0.00  0.00    +0.045 A 
ATOM     36  C   UNL     1      -1.592  -1.502   1.869  0.00  0.00    +0.121 A 
ATOM     37  C   UNL     1      -1.822  -0.147   2.062  0.00  0.00    +0.049 A 
ENDBRANCH  30  36
ENDBRANCH  29  30
ENDBRANCH   1  29
TORSDOF 5
