REMARK  Name = ZINC04713896
REMARK  5 active torsions:
REMARK  status: ('A' for Active; 'I' for Inactive)
REMARK    1  A    between atoms: C_1  and  C_2
REMARK    2  A    between atoms: C_5  and  C_9
REMARK    3  A    between atoms: C_7  and  C_8
REMARK    4  A    between atoms: C_12  and  C_13
REMARK    5  A    between atoms: C_17  and  N_19
REMARK                            x       y       z     vdW  Elec       q    Type
REMARK                         _______ _______ _______ _____ _____    ______ ____
ROOT
ATOM      1  C   UNL     1       3.658   2.157  -0.014  0.00  0.00    +0.140 C 
ATOM      2  C   UNL     1       3.746   3.503   0.024  0.00  0.00    +0.062 C 
ATOM      3  C   UNL     1       5.181   3.831  -0.033  0.00  0.00    +0.063 C 
ATOM      4  C   UNL     1       5.765   5.080  -0.022  0.00  0.00    +0.023 C 
ATOM      5  C   UNL     1       5.852   2.517  -0.106  0.00  0.00    +0.345 C 
ATOM      6  O   UNL     1       7.049   2.314  -0.168  0.00  0.00    -0.245 OA
ATOM      7  O   UNL     1       4.878   1.589  -0.084  0.00  0.00    -0.422 OA
ENDROOT
BRANCH   1  12
ATOM      8  C   UNL     1      -1.287  -0.780   0.130  0.00  0.00    +0.044 C 
ATOM      9  C   UNL     1       0.009  -0.010   0.092  0.00  0.00    -0.047 A 
ATOM     10  C   UNL     1      -0.010   1.373   0.136  0.00  0.00    +0.004 A 
ATOM     11  C   UNL     1       1.171   2.083   0.101  0.00  0.00    +0.012 A 
ATOM     12  C   UNL     1       2.389   1.403   0.022  0.00  0.00    +0.018 A 
ATOM     13  C   UNL     1       2.401   0.008  -0.022  0.00  0.00    +0.015 A 
ATOM     14  C   UNL     1       1.211  -0.690   0.013  0.00  0.00    -0.047 A 
ATOM     15  C   UNL     1       1.221  -2.196  -0.035  0.00  0.00    +0.044 C 
ENDBRANCH   1  12
BRANCH   4  16
ATOM     16  C   UNL     1       4.929   6.281  -0.119  0.00  0.00    -0.022 A 
ATOM     17  C   UNL     1       3.668   6.214  -0.726  0.00  0.00    +0.008 A 
ATOM     18  C   UNL     1       2.887   7.347  -0.808  0.00  0.00    +0.003 A 
ATOM     19  C   UNL     1       3.351   8.551  -0.305  0.00  0.00    +0.033 A 
ATOM     20  C   UNL     1       4.598   8.627   0.291  0.00  0.00    +0.127 A 
ATOM     21  C   UNL     1       5.390   7.503   0.387  0.00  0.00    +0.040 A 
BRANCH  20  22
ATOM     22  N   UNL     1       5.083   9.919   0.826  0.00  0.00    +0.056 N 
ATOM     23  O   UNL     1       6.180   9.988   1.351  0.00  0.00    -0.126 OA
ATOM     24  O   UNL     1       4.384  10.914   0.741  0.00  0.00    -0.126 OA
ENDBRANCH  20  22
ENDBRANCH   4  16
TORSDOF 3
