REMARK  Name = ZINC01224692
REMARK  11 active torsions:
REMARK  status: ('A' for Active; 'I' for Inactive)
REMARK    1  A    between atoms: C_1  and  C_2
REMARK    2  A    between atoms: C_5  and  N_9
REMARK    3  A    between atoms: C_6  and  C_8
REMARK    4  A    between atoms: N_9  and  C_10
REMARK    5  A    between atoms: C_10  and  N_12
REMARK    6  A    between atoms: N_12  and  C_13
REMARK    7  A    between atoms: N_12  and  C_23
REMARK    8  A    between atoms: C_13  and  C_14
REMARK    9  A    between atoms: C_23  and  C_24
REMARK   10  A    between atoms: C_28  and  C_37
REMARK   11  A    between atoms: C_29  and  C_36
REMARK                            x       y       z     vdW  Elec       q    Type
REMARK                         _______ _______ _______ _____ _____    ______ ____
ROOT
ATOM      1  N   UNL     1       1.008   4.090   1.388  0.00  0.00    -0.304 N 
ENDROOT
BRANCH   1   2
ATOM      2  C   UNL     1       2.271   4.168   1.853  0.00  0.00    +0.138 C 
ATOM      3  S   UNL     1       2.554   4.471   3.514  0.00  0.00    -0.018 S 
BRANCH   2   4
ATOM      4  N   UNL     1       3.310   4.007   1.011  0.00  0.00    -0.297 N 
ATOM      5  H   UNL     1       3.153   3.912   0.059  0.00  0.00    +0.154 HD
BRANCH   4  10
ATOM      6  C   UNL     1       8.608   3.886   3.035  0.00  0.00    +0.044 C 
ATOM      7  C   UNL     1       7.201   3.918   2.498  0.00  0.00    -0.050 A 
ATOM      8  C   UNL     1       6.174   3.332   3.216  0.00  0.00    +0.005 A 
ATOM      9  C   UNL     1       4.884   3.360   2.726  0.00  0.00    +0.024 A 
ATOM     10  C   UNL     1       4.617   3.977   1.510  0.00  0.00    +0.036 A 
ATOM     11  C   UNL     1       5.651   4.559   0.789  0.00  0.00    -0.029 A 
ATOM     12  C   UNL     1       6.939   4.533   1.287  0.00  0.00    +0.008 A 
ATOM     13  C   UNL     1       5.367   5.225  -0.533  0.00  0.00    +0.045 C 
ENDBRANCH   4  10
ENDBRANCH   2   4
ENDBRANCH   1   2
BRANCH   1  14
ATOM     14  C   UNL     1       0.765   3.755  -0.017  0.00  0.00    +0.142 C 
BRANCH  14  15
ATOM     15  C   UNL     1       0.531   2.272  -0.147  0.00  0.00    -0.026 A 
ATOM     16  C   UNL     1       1.582   1.433  -0.469  0.00  0.00    +0.009 A 
ATOM     17  C   UNL     1       1.372   0.072  -0.590  0.00  0.00    +0.050 A 
ATOM     18  C   UNL     1       0.107  -0.455  -0.387  0.00  0.00    +0.166 A 
ATOM     19  C   UNL     1      -0.952   0.389  -0.061  0.00  0.00    +0.167 A 
ATOM     20  C   UNL     1      -0.734   1.752   0.058  0.00  0.00    +0.054 A 
ATOM     21  O   UNL     1      -2.081  -0.363   0.086  0.00  0.00    -0.453 OA
ATOM     22  C   UNL     1      -1.791  -1.621  -0.552  0.00  0.00    +0.466 C 
ATOM     23  O   UNL     1      -0.359  -1.737  -0.444  0.00  0.00    -0.453 OA
ENDBRANCH  14  15
ENDBRANCH   1  14
BRANCH   1  24
ATOM     24  C   UNL     1      -0.121   4.340   2.288  0.00  0.00    +0.147 C 
BRANCH  24  25
ATOM     25  C   UNL     1      -0.558   5.776   2.157  0.00  0.00    +0.035 A 
ATOM     26  C   UNL     1      -1.570   6.100   1.314  0.00  0.00    +0.020 A 
ATOM     27  C   UNL     1      -1.971   7.504   1.210  0.00  0.00    -0.001 A 
ATOM     28  C   UNL     1      -3.008   7.899   0.358  0.00  0.00    +0.013 A 
ATOM     29  C   UNL     1      -3.358   9.217   0.283  0.00  0.00    -0.047 A 
ATOM     30  C   UNL     1      -2.694  10.169   1.046  0.00  0.00    -0.046 A 
ATOM     31  C   UNL     1      -1.671   9.803   1.893  0.00  0.00    +0.030 A 
ATOM     32  C   UNL     1      -1.296   8.466   1.985  0.00  0.00    +0.049 A 
ATOM     33  N   UNL     1      -0.276   8.071   2.824  0.00  0.00    -0.322 N 
ATOM     34  H   UNL     1       0.188   8.735   3.357  0.00  0.00    +0.169 HD
ATOM     35  C   UNL     1       0.082   6.778   2.917  0.00  0.00    +0.254 A 
ATOM     36  O   UNL     1       0.986   6.465   3.672  0.00  0.00    -0.268 OA
ATOM     37  C   UNL     1      -3.098  11.617   0.948  0.00  0.00    +0.044 C 
ATOM     38  C   UNL     1      -4.475   9.643  -0.635  0.00  0.00    +0.044 C 
ENDBRANCH  24  25
ENDBRANCH   1  24
TORSDOF 7
