REMARK  Name = ZINC63351331
REMARK  7 active torsions:
REMARK  status: ('A' for Active; 'I' for Inactive)
REMARK    1  A    between atoms: C_1  and  C_2
REMARK    2  A    between atoms: C_2  and  C_3
REMARK    3  A    between atoms: C_2  and  C_4
REMARK    4  A    between atoms: C_4  and  N_5
REMARK    5  A    between atoms: C_6  and  C_8
REMARK    6  A    between atoms: C_11  and  N_14
REMARK    7  A    between atoms: C_17  and  C_33
REMARK                            x       y       z     vdW  Elec       q    Type
REMARK                         _______ _______ _______ _____ _____    ______ ____
ROOT
ATOM      1  N   UNL     1      -2.510  -8.305  -0.623  0.00  0.00    -0.192 N 
ATOM      2  C   UNL     1      -3.609  -9.084  -0.560  0.00  0.00    +0.253 C 
ATOM      3  O   UNL     1      -4.750  -8.727  -0.358  0.00  0.00    -0.272 OA
ATOM      4  C   UNL     1      -3.122 -10.496  -0.794  0.00  0.00    +0.137 C 
ATOM      5  C   UNL     1      -3.464 -11.390   0.398  0.00  0.00    +0.139 C 
ATOM      6  C   UNL     1      -2.156 -11.743   1.091  0.00  0.00    -0.034 C 
ATOM      7  C   UNL     1      -2.293 -11.361   2.359  0.00  0.00    -0.001 A 
ATOM      8  C   UNL     1      -1.401 -11.496   3.521  0.00  0.00    +0.010 A 
ATOM      9  C   UNL     1      -1.857 -10.975   4.691  0.00  0.00    +0.001 A 
ATOM     10  C   UNL     1      -3.098 -10.342   4.818  0.00  0.00    +0.002 A 
ATOM     11  C   UNL     1      -3.983 -10.178   3.803  0.00  0.00    +0.026 A 
ATOM     12  C   UNL     1      -3.617 -10.689   2.524  0.00  0.00    +0.043 A 
ATOM     13  N   UNL     1      -4.282 -10.688   1.390  0.00  0.00    -0.375 N 
ATOM     14  C   UNL     1      -0.966 -12.337   0.379  0.00  0.00    +0.052 C 
ATOM     15  C   UNL     1      -0.687 -11.449  -0.850  0.00  0.00    +0.115 C 
ATOM     16  N   UNL     1      -1.653 -10.347  -0.838  0.00  0.00    -0.268 N 
ATOM     17  C   UNL     1      -1.401  -9.030  -0.823  0.00  0.00    +0.316 C 
ATOM     18  O   UNL     1      -0.294  -8.550  -0.970  0.00  0.00    -0.252 OA
ATOM     19  C   UNL     1      -3.665 -11.063  -2.107  0.00  0.00    +0.044 C 
ATOM     20  H   UNL     1      -5.153 -10.293   1.230  0.00  0.00    +0.160 HD
ENDROOT
BRANCH   1  24
ATOM     21  C   UNL     1      -2.558  -4.152  -0.259  0.00  0.00    +0.037 A 
ATOM     22  C   UNL     1      -1.341  -4.834  -0.337  0.00  0.00    +0.015 A 
ATOM     23  C   UNL     1      -1.329  -6.206  -0.457  0.00  0.00    +0.025 A 
ATOM     24  C   UNL     1      -2.526  -6.912  -0.501  0.00  0.00    +0.045 A 
ATOM     25  C   UNL     1      -3.739  -6.237  -0.424  0.00  0.00    +0.025 A 
ATOM     26  C   UNL     1      -3.759  -4.866  -0.298  0.00  0.00    +0.015 A 
BRANCH  21  28
ATOM     27  N   UNL     1      -1.416  -1.995  -0.092  0.00  0.00    -0.311 N 
ATOM     28  C   UNL     1      -2.575  -2.682  -0.130  0.00  0.00    +0.244 C 
ATOM     29  O   UNL     1      -3.635  -2.090  -0.057  0.00  0.00    -0.270 OA
ATOM     30  H   UNL     1      -0.570  -2.467  -0.149  0.00  0.00    +0.149 HD
BRANCH  27  31
ATOM     31  C   UNL     1      -1.433  -0.536   0.037  0.00  0.00    +0.107 C 
BRANCH  31  33
ATOM     32  C   UNL     1      -0.015   1.521   0.064  0.00  0.00    +0.009 C 
ATOM     33  C   UNL     1       0.004  -0.009   0.055  0.00  0.00    -0.000 C 
ATOM     34  C   UNL     1       0.717  -0.517   1.309  0.00  0.00    +0.009 C 
ENDBRANCH  31  33
ENDBRANCH  27  31
ENDBRANCH  21  28
ENDBRANCH   1  24
TORSDOF 4
