REMARK  Name = ZINC12717661
REMARK  7 active torsions:
REMARK  status: ('A' for Active; 'I' for Inactive)
REMARK    1  A    between atoms: C_2  and  C_3
REMARK    2  A    between atoms: C_6  and  C_9
REMARK    3  A    between atoms: C_9  and  N_64
REMARK    4  A    between atoms: C_12  and  N_66
REMARK    5  A    between atoms: C_17  and  C_20
REMARK    6  A    between atoms: N_22  and  C_23
REMARK    7  A    between atoms: C_23  and  C_24
REMARK                            x       y       z     vdW  Elec       q    Type
REMARK                         _______ _______ _______ _____ _____    ______ ____
ROOT
ATOM      1  C   UNL     1       2.118   1.169  -1.290  0.00  0.00    -0.078 C 
ATOM      2  C   UNL     1       1.423   1.617  -0.003  0.00  0.00    -0.006 C 
ATOM      3  C   UNL     1      -0.013   1.086   0.008  0.00  0.00    +0.071 C 
ATOM      4  C   UNL     1      -0.746   1.595  -1.236  0.00  0.00    -0.006 C 
ATOM      5  C   UNL     1       0.012   1.147  -2.488  0.00  0.00    -0.078 C 
ATOM      6  N   UNL     1       1.378   1.711  -2.449  0.00  0.00    +0.382 N 
ATOM      7  H   UNL     1       1.314   2.731  -2.356  0.00  0.00    -0.081 HD
ENDROOT
BRANCH   6  10
ATOM      8  C   UNL     1       2.071   1.680  -6.181  0.00  0.00    -0.080 C 
ATOM      9  C   UNL     1       1.294   1.935  -4.887  0.00  0.00    -0.034 C 
ATOM     10  C   UNL     1       2.093   1.387  -3.701  0.00  0.00    -0.072 C 
ATOM     11  C   UNL     1       3.471   2.054  -3.672  0.00  0.00    -0.034 C 
ATOM     12  C   UNL     1       4.185   1.796  -5.001  0.00  0.00    -0.080 C 
ATOM     13  N   UNL     1       3.377   2.368  -6.099  0.00  0.00    +0.382 N 
ATOM     14  H   UNL     1       3.217   3.365  -5.910  0.00  0.00    -0.081 HD
BRANCH  13  15
ATOM     15  C   UNL     1       4.100   2.232  -7.381  0.00  0.00    -0.043 C 
BRANCH  15  19
ATOM     16  C   UNL     1       8.135   3.547  -6.859  0.00  0.00    +0.025 A 
ATOM     17  C   UNL     1       7.805   2.205  -6.665  0.00  0.00    +0.017 A 
ATOM     18  C   UNL     1       6.501   1.787  -6.835  0.00  0.00    +0.003 A 
ATOM     19  C   UNL     1       5.522   2.696  -7.197  0.00  0.00    -0.064 A 
ATOM     20  C   UNL     1       5.844   4.026  -7.397  0.00  0.00    +0.003 A 
ATOM     21  C   UNL     1       7.144   4.458  -7.225  0.00  0.00    +0.017 A 
BRANCH  16  23
ATOM     22  C   UNL     1      10.595   4.348  -6.541  0.00  0.00    +0.009 C 
ATOM     23  C   UNL     1       9.487   3.987  -6.684  0.00  0.00    -0.070 C 
ENDBRANCH  16  23
ENDBRANCH  15  19
ENDBRANCH  13  15
ENDBRANCH   6  10
BRANCH   3  24
ATOM     24  C   UNL     1      -0.721   1.573   1.246  0.00  0.00    +0.216 C 
ATOM     25  O   UNL     1      -0.135   2.274   2.043  0.00  0.00    -0.276 OA
ATOM     26  N   UNL     1      -2.005   1.230   1.467  0.00  0.00    -0.313 N 
ATOM     27  H   UNL     1      -2.474   0.669   0.829  0.00  0.00    +0.149 HD
BRANCH  26  28
ATOM     28  C   UNL     1      -2.693   1.703   2.671  0.00  0.00    +0.135 C 
BRANCH  28  29
ATOM     29  C   UNL     1      -4.129   1.174   2.679  0.00  0.00    +0.135 C 
ATOM     30  C   UNL     1      -4.912   1.762   3.873  0.00  0.00    +0.035 C 
ATOM     31  C   UNL     1      -5.812   0.597   4.342  0.00  0.00    +0.031 C 
ATOM     32  C   UNL     1      -5.467  -0.557   3.375  0.00  0.00    +0.160 C 
ATOM     33  O   UNL     1      -4.138  -0.253   2.898  0.00  0.00    -0.375 OA
ENDBRANCH  28  29
ENDBRANCH  26  28
ENDBRANCH   3  24
TORSDOF 7
