REMARK  Name = ZINC57898561
REMARK  8 active torsions:
REMARK  status: ('A' for Active; 'I' for Inactive)
REMARK    1  A    between atoms: C_1  and  C_2
REMARK    2  A    between atoms: C_2  and  C_3
REMARK    3  A    between atoms: C_2  and  C_4
REMARK    4  A    between atoms: C_2  and  N_5
REMARK    5  A    between atoms: C_6  and  C_8
REMARK    6  A    between atoms: C_8  and  N_9
REMARK    7  A    between atoms: C_10  and  C_12
REMARK    8  A    between atoms: C_21  and  C_24
REMARK                            x       y       z     vdW  Elec       q    Type
REMARK                         _______ _______ _______ _____ _____    ______ ____
ROOT
ATOM      1  C   UNL     1       6.290   0.102  -3.708  0.00  0.00    +0.048 C 
ATOM      2  C   UNL     1       7.030  -0.405  -2.469  0.00  0.00    +0.019 C 
ATOM      3  C   UNL     1       8.465   0.124  -2.480  0.00  0.00    -0.009 C 
ATOM      4  C   UNL     1       8.444   1.654  -2.471  0.00  0.00    +0.007 C 
ATOM      5  C   UNL     1       7.704   2.161  -3.711  0.00  0.00    -0.009 C 
ATOM      6  C   UNL     1       6.269   1.631  -3.700  0.00  0.00    +0.019 C 
ATOM      7  C   UNL     1       8.420   1.668  -4.970  0.00  0.00    +0.015 C 
ATOM      8  C   UNL     1       8.441   0.138  -4.978  0.00  0.00    -0.003 C 
ATOM      9  C   UNL     1       9.181  -0.369  -3.739  0.00  0.00    +0.015 C 
ATOM     10  C   UNL     1       7.006  -0.392  -4.967  0.00  0.00    +0.027 C 
ENDROOT
BRANCH   8  11
ATOM     11  C   UNL     1       9.146  -0.348  -6.218  0.00  0.00    -0.041 A 
ATOM     12  C   UNL     1       8.475  -1.143  -7.129  0.00  0.00    +0.004 A 
ATOM     13  C   UNL     1       9.122  -1.588  -8.266  0.00  0.00    +0.000 A 
ATOM     14  C   UNL     1      10.440  -1.240  -8.493  0.00  0.00    +0.000 A 
ATOM     15  C   UNL     1      11.111  -0.445  -7.583  0.00  0.00    +0.000 A 
ATOM     16  C   UNL     1      10.463   0.005  -6.447  0.00  0.00    +0.004 A 
ENDBRANCH   8  11
BRANCH   1  18
ATOM     17  N   UNL     1       4.051  -0.111  -2.677  0.00  0.00    -0.306 N 
ATOM     18  C   UNL     1       4.876  -0.420  -3.698  0.00  0.00    +0.220 C 
ATOM     19  O   UNL     1       4.480  -1.118  -4.607  0.00  0.00    -0.275 OA
ATOM     20  H   UNL     1       4.368   0.447  -1.950  0.00  0.00    +0.149 HD
BRANCH  17  21
ATOM     21  C   UNL     1       2.677  -0.618  -2.667  0.00  0.00    +0.200 C 
BRANCH  21  23
ATOM     22  N   UNL     1       0.688  -0.476  -1.203  0.00  0.00    -0.309 N 
ATOM     23  C   UNL     1       1.972  -0.132  -1.427  0.00  0.00    +0.231 C 
ATOM     24  O   UNL     1       2.559   0.569  -0.630  0.00  0.00    -0.274 OA
ATOM     25  H   UNL     1       0.218  -1.037  -1.840  0.00  0.00    +0.149 HD
BRANCH  22  27
ATOM     26  C   UNL     1      -0.019   1.526   0.010  0.00  0.00    +0.031 C 
ATOM     27  C   UNL     1       0.002  -0.004   0.002  0.00  0.00    +0.026 C 
ATOM     28  C   UNL     1       0.742  -0.511   1.242  0.00  0.00    +0.031 C 
ATOM     29  C   UNL     1      -1.433  -0.534   0.013  0.00  0.00    +0.031 C 
ENDBRANCH  22  27
ENDBRANCH  21  23
ENDBRANCH  17  21
ENDBRANCH   1  18
TORSDOF 5
