REMARK  Name = ZINC41781041
REMARK  7 active torsions:
REMARK  status: ('A' for Active; 'I' for Inactive)
REMARK    1  A    between atoms: C_1  and  C_2
REMARK    2  A    between atoms: C_7  and  N_12
REMARK    3  A    between atoms: C_9  and  C_11
REMARK    4  A    between atoms: C_13  and  C_15
REMARK    5  A    between atoms: C_15  and  C_16
REMARK    6  A    between atoms: C_16  and  C_18
REMARK    7  A    between atoms: C_16  and  N_25
REMARK                            x       y       z     vdW  Elec       q    Type
REMARK                         _______ _______ _______ _____ _____    ______ ____
ROOT
ATOM      1  C   UNL     1       1.455  -5.656   4.471  0.00  0.00    +0.113 C 
ENDROOT
BRANCH   1   2
ATOM      2  C   UNL     1       2.291  -6.030   5.668  0.00  0.00    -0.026 A 
ATOM      3  C   UNL     1       2.044  -5.441   6.894  0.00  0.00    +0.005 A 
ATOM      4  C   UNL     1       2.810  -5.785   7.993  0.00  0.00    +0.001 A 
ATOM      5  C   UNL     1       3.823  -6.717   7.865  0.00  0.00    +0.015 A 
ATOM      6  C   UNL     1       4.069  -7.306   6.639  0.00  0.00    +0.018 A 
ATOM      7  C   UNL     1       3.299  -6.966   5.541  0.00  0.00    +0.020 A 
ATOM      8 BR   UNL     1       5.455  -8.581   6.463  0.00  0.00    -0.050 Br
ENDBRANCH   1   2
BRANCH   1   9
ATOM      9  N   UNL     1       0.040  -5.643   4.848  0.00  0.00    -0.292 N 
ATOM     10  C   UNL     1      -0.680  -6.781   4.805  0.00  0.00    +0.298 C 
ATOM     11  O   UNL     1      -0.135  -7.835   4.540  0.00  0.00    -0.253 OA
ATOM     12  N   UNL     1      -2.004  -6.752   5.054  0.00  0.00    -0.313 N 
ATOM     13  H   UNL     1      -0.380  -4.814   5.129  0.00  0.00    +0.151 HD
ATOM     14  H   UNL     1      -2.439  -5.911   5.265  0.00  0.00    +0.146 HD
ATOM     15  H   UNL     1      -2.522  -7.571   5.023  0.00  0.00    +0.146 HD
ENDBRANCH   1   9
BRANCH   1  16
ATOM     16  C   UNL     1       1.864  -4.266   3.978  0.00  0.00    +0.123 C 
BRANCH  16  18
ATOM     17  N   UNL     1       1.318  -2.763   2.091  0.00  0.00    -0.312 N 
ATOM     18  C   UNL     1       1.117  -3.943   2.710  0.00  0.00    +0.215 C 
ATOM     19  O   UNL     1       0.334  -4.745   2.246  0.00  0.00    -0.276 OA
ATOM     20  H   UNL     1       1.945  -2.121   2.462  0.00  0.00    +0.149 HD
BRANCH  17  26
ATOM     21  C   UNL     1      -0.371   0.917  -0.746  0.00  0.00    +0.008 C 
ATOM     22  C   UNL     1      -0.269  -0.601  -0.587  0.00  0.00    -0.009 C 
ATOM     23  C   UNL     1       0.479  -1.190  -1.785  0.00  0.00    +0.003 C 
ATOM     24  C   UNL     1       0.581  -2.708  -1.626  0.00  0.00    +0.002 C 
ATOM     25  C   UNL     1       1.340  -3.037  -0.339  0.00  0.00    +0.022 C 
ATOM     26  C   UNL     1       0.592  -2.448   0.859  0.00  0.00    +0.076 C 
ATOM     27  C   UNL     1       0.490  -0.930   0.700  0.00  0.00    +0.009 C 
ATOM     28  C   UNL     1      -0.259  -0.341   1.898  0.00  0.00    +0.009 C 
ENDBRANCH  17  26
ENDBRANCH  16  18
ENDBRANCH   1  16
TORSDOF 5
