REMARK  Name = ZINC04706113
REMARK  11 active torsions:
REMARK  status: ('A' for Active; 'I' for Inactive)
REMARK    1  A    between atoms: C_4  and  N_83
REMARK    2  A    between atoms: C_7  and  N_8
REMARK    3  A    between atoms: C_7  and  N_83
REMARK    4  A    between atoms: N_8  and  C_9
REMARK    5  A    between atoms: C_9  and  C_11
REMARK    6  A    between atoms: C_11  and  N_13
REMARK    7  A    between atoms: N_13  and  C_14
REMARK    8  A    between atoms: C_14  and  N_85
REMARK    9  A    between atoms: C_15  and  N_85
REMARK   10  A    between atoms: C_21  and  N_85
REMARK   11  A    between atoms: C_27  and  N_83
REMARK                            x       y       z     vdW  Elec       q    Type
REMARK                         _______ _______ _______ _____ _____    ______ ____
ROOT
ATOM      1  C   UNL     1      -1.045   2.966  -2.066  0.00  0.00    +0.099 C 
ATOM      2  S   UNL     1       0.173   3.772  -1.173  0.00  0.00    -0.033 S 
ENDROOT
BRANCH   1   3
ATOM      3  N   UNL     1      -1.396   1.706  -1.741  0.00  0.00    -0.353 N 
ATOM      4  H   UNL     1      -2.087   1.249  -2.247  0.00  0.00    +0.144 HD
BRANCH   3   5
ATOM      5  C   UNL     1      -0.736   1.026  -0.623  0.00  0.00    +0.027 C 
BRANCH   5   6
ATOM      6  N   UNL     1      -1.558   1.211   0.592  0.00  0.00    +0.394 N 
ATOM      7  H   UNL     1      -2.028   2.122   0.541  0.00  0.00    -0.079 HD
BRANCH   6  11
ATOM      8  C   UNL     1      -3.872  -2.257  -0.389  0.00  0.00    -0.000 C 
ATOM      9  C   UNL     1      -4.536  -0.882  -0.490  0.00  0.00    -0.002 C 
ATOM     10  C   UNL     1      -3.457   0.199  -0.577  0.00  0.00    -0.015 C 
ATOM     11  C   UNL     1      -2.580   0.147   0.676  0.00  0.00    -0.066 C 
ATOM     12  C   UNL     1      -1.917  -1.228   0.777  0.00  0.00    -0.015 C 
ATOM     13  C   UNL     1      -2.995  -2.310   0.863  0.00  0.00    -0.002 C 
ENDBRANCH   6  11
BRANCH   6  14
ATOM     14  C   UNL     1      -0.697   1.181   1.793  0.00  0.00    -0.066 C 
ATOM     15  C   UNL     1      -1.578   1.286   3.040  0.00  0.00    -0.015 C 
ATOM     16  C   UNL     1      -0.695   1.282   4.289  0.00  0.00    -0.002 C 
ATOM     17  C   UNL     1       0.265   2.472   4.240  0.00  0.00    -0.000 C 
ATOM     18  C   UNL     1       1.145   2.367   2.994  0.00  0.00    -0.002 C 
ATOM     19  C   UNL     1       0.262   2.371   1.744  0.00  0.00    -0.015 C 
ENDBRANCH   6  14
ENDBRANCH   5   6
ENDBRANCH   3   5
ENDBRANCH   1   3
BRANCH   1  20
ATOM     20  C   UNL     1      -1.711   3.652  -3.194  0.00  0.00    +0.099 C 
ATOM     21  S   UNL     1      -2.929   2.846  -4.087  0.00  0.00    -0.033 S 
BRANCH  20  22
ATOM     22  N   UNL     1      -1.360   4.912  -3.519  0.00  0.00    -0.353 N 
ATOM     23  H   UNL     1      -0.669   5.369  -3.013  0.00  0.00    +0.144 HD
BRANCH  22  24
ATOM     24  C   UNL     1      -2.020   5.591  -4.637  0.00  0.00    +0.027 C 
BRANCH  24  25
ATOM     25  N   UNL     1      -3.159   6.370  -4.107  0.00  0.00    +0.394 N 
ATOM     26  H   UNL     1      -3.546   5.882  -3.291  0.00  0.00    -0.079 HD
BRANCH  25  27
ATOM     27  C   UNL     1      -2.704   7.714  -3.692  0.00  0.00    -0.066 C 
ATOM     28  C   UNL     1      -2.151   8.487  -4.892  0.00  0.00    -0.015 C 
ATOM     29  C   UNL     1      -1.688   9.872  -4.436  0.00  0.00    -0.002 C 
ATOM     30  C   UNL     1      -0.593   9.721  -3.378  0.00  0.00    -0.000 C 
ATOM     31  C   UNL     1      -1.145   8.948  -2.179  0.00  0.00    -0.002 C 
ATOM     32  C   UNL     1      -1.609   7.563  -2.635  0.00  0.00    -0.015 C 
ENDBRANCH  25  27
BRANCH  25  33
ATOM     33  C   UNL     1      -4.212   6.489  -5.138  0.00  0.00    -0.066 C 
ATOM     34  C   UNL     1      -5.340   7.370  -4.598  0.00  0.00    -0.015 C 
ATOM     35  C   UNL     1      -6.448   7.481  -5.648  0.00  0.00    -0.002 C 
ATOM     36  C   UNL     1      -6.995   6.086  -5.961  0.00  0.00    -0.000 C 
ATOM     37  C   UNL     1      -5.866   5.205  -6.500  0.00  0.00    -0.002 C 
ATOM     38  C   UNL     1      -4.758   5.095  -5.451  0.00  0.00    -0.015 C 
ENDBRANCH  25  33
ENDBRANCH  24  25
ENDBRANCH  22  24
ENDBRANCH  20  22
ENDBRANCH   1  20
TORSDOF 11
