REMARK  Name = ZINC05555334
REMARK  7 active torsions:
REMARK  status: ('A' for Active; 'I' for Inactive)
REMARK    1  A    between atoms: C_1  and  O_2
REMARK    2  A    between atoms: O_2  and  C_3
REMARK    3  A    between atoms: C_6  and  O_24
REMARK    4  A    between atoms: C_7  and  C_9
REMARK    5  A    between atoms: N_15  and  C_16
REMARK    6  A    between atoms: C_19  and  O_22
REMARK    7  A    between atoms: O_24  and  C_25
REMARK                            x       y       z     vdW  Elec       q    Type
REMARK                         _______ _______ _______ _____ _____    ______ ____
ROOT
ATOM      1  C   UNL     1      -2.555  -4.136   0.015  0.00  0.00    +0.032 C 
ATOM      2  C   UNL     1      -1.415  -4.865  -0.097  0.00  0.00    +0.078 C 
ATOM      3  C   UNL     1      -0.012  -4.410  -0.121  0.00  0.00    +0.256 C 
ATOM      4  O   UNL     1       0.276  -3.231  -0.035  0.00  0.00    -0.269 OA
ATOM      5  N   UNL     1       0.918  -5.342  -0.241  0.00  0.00    -0.260 N 
ATOM      6  C   UNL     1       0.572  -6.673  -0.337  0.00  0.00    +0.166 C 
ATOM      7  N   UNL     1       1.361  -7.716  -0.459  0.00  0.00    -0.226 NA
ATOM      8  S   UNL     1      -1.211  -6.634  -0.246  0.00  0.00    -0.049 S 
ATOM      9  H   UNL     1       1.854  -5.087  -0.261  0.00  0.00    +0.157 HD
ENDROOT
BRANCH   1  14
ATOM     10  C   UNL     1      -1.510  -0.854   1.499  0.00  0.00    +0.121 A 
ATOM     11  C   UNL     1      -2.346   0.026   0.823  0.00  0.00    +0.049 A 
ATOM     12  C   UNL     1      -3.247  -0.445  -0.112  0.00  0.00    +0.050 A 
ATOM     13  C   UNL     1      -3.323  -1.802  -0.384  0.00  0.00    +0.127 A 
ATOM     14  C   UNL     1      -2.482  -2.697   0.295  0.00  0.00    +0.021 A 
ATOM     15  C   UNL     1      -1.569  -2.209   1.237  0.00  0.00    +0.057 A 
BRANCH  10  17
ATOM     16  C   UNL     1      -0.618   1.033   2.640  0.00  0.00    +0.277 C 
ATOM     17  O   UNL     1      -0.626  -0.379   2.418  0.00  0.00    -0.495 OA
ENDBRANCH  10  17
BRANCH  13  18
ATOM     18  O   UNL     1      -4.210  -2.263  -1.303  0.00  0.00    -0.495 OA
ATOM     19  C   UNL     1      -5.034  -1.294  -1.954  0.00  0.00    +0.277 C 
ENDBRANCH  13  18
ENDBRANCH   1  14
BRANCH   7  20
ATOM     20  C   UNL     1       0.826  -8.974  -0.541  0.00  0.00    +0.067 A 
ATOM     21  C   UNL     1      -0.200  -9.356   0.326  0.00  0.00    +0.031 A 
ATOM     22  C   UNL     1      -0.736 -10.624   0.240  0.00  0.00    +0.047 A 
ATOM     23  C   UNL     1      -0.258 -11.519  -0.707  0.00  0.00    +0.117 A 
ATOM     24  C   UNL     1       0.761 -11.143  -1.571  0.00  0.00    +0.047 A 
ATOM     25  C   UNL     1       1.300  -9.876  -1.495  0.00  0.00    +0.031 A 
BRANCH  23  26
ATOM     26  O   UNL     1      -0.790 -12.768  -0.788  0.00  0.00    -0.507 OA
ATOM     27  H   UNL     1      -1.543 -12.837  -1.391  0.00  0.00    +0.292 HD
ENDBRANCH  23  26
ENDBRANCH   7  20
TORSDOF 5
