REMARK  Name = ZINC05729588
REMARK  6 active torsions:
REMARK  status: ('A' for Active; 'I' for Inactive)
REMARK    1  A    between atoms: C_4  and  C_7
REMARK    2  A    between atoms: C_7  and  C_9
REMARK    3  A    between atoms: C_7  and  S_23
REMARK    4  A    between atoms: C_9  and  C_11
REMARK    5  A    between atoms: C_11  and  C_21
REMARK    6  A    between atoms: S_23  and  C_24
REMARK                            x       y       z     vdW  Elec       q    Type
REMARK                         _______ _______ _______ _____ _____    ______ ____
ROOT
ATOM      1  C   UNL     1      -5.392   3.289  -0.053  0.00  0.00    +0.194 C 
ATOM      2  O   UNL     1      -5.584   4.430   0.320  0.00  0.00    -0.290 OA
ENDROOT
BRANCH   1   3
ATOM      3  C   UNL     1      -6.452   2.537  -0.585  0.00  0.00    +0.131 C 
ATOM      4  C   UNL     1      -7.736   3.103  -0.685  0.00  0.00    +0.114 C 
ATOM      5  N   UNL     1      -8.073   4.360  -0.298  0.00  0.00    -0.300 N 
ATOM      6  C   UNL     1      -9.426   4.549  -0.559  0.00  0.00    +0.054 A 
ATOM      7  C   UNL     1     -10.287   5.621  -0.370  0.00  0.00    +0.025 A 
ATOM      8  C   UNL     1     -11.615   5.508  -0.730  0.00  0.00    +0.002 A 
ATOM      9  C   UNL     1     -12.092   4.329  -1.279  0.00  0.00    +0.002 A 
ATOM     10  C   UNL     1     -11.244   3.257  -1.471  0.00  0.00    +0.025 A 
ATOM     11  C   UNL     1      -9.907   3.360  -1.112  0.00  0.00    +0.054 A 
ATOM     12  N   UNL     1      -8.835   2.477  -1.180  0.00  0.00    -0.300 N 
ATOM     13  H   UNL     1      -7.312   5.024   0.138  0.00  0.00    +0.153 HD
ATOM     14  H   UNL     1      -8.762   1.442  -1.544  0.00  0.00    +0.153 HD
BRANCH   3  15
ATOM     15  C   UNL     1      -6.226   1.193  -1.025  0.00  0.00    +0.106 C 
ATOM     16  N   UNL     1      -6.047   0.127  -1.374  0.00  0.00    -0.191 NA
ENDBRANCH   3  15
ENDBRANCH   1   3
BRANCH   1  17
ATOM     17  C   UNL     1      -4.017   2.683   0.054  0.00  0.00    +0.153 C 
BRANCH  17  21
ATOM     18  C   UNL     1      -3.721   0.460   3.690  0.00  0.00    +0.000 A 
ATOM     19  C   UNL     1      -3.541  -0.175   2.475  0.00  0.00    +0.000 A 
ATOM     20  C   UNL     1      -3.636   0.544   1.299  0.00  0.00    +0.005 A 
ATOM     21  C   UNL     1      -3.913   1.898   1.337  0.00  0.00    -0.027 A 
ATOM     22  C   UNL     1      -4.088   2.534   2.552  0.00  0.00    +0.005 A 
ATOM     23  C   UNL     1      -3.997   1.814   3.728  0.00  0.00    +0.000 A 
ENDBRANCH  17  21
BRANCH  17  24
ATOM     24  S   UNL     1      -2.772   4.002   0.050  0.00  0.00    -0.109 S 
BRANCH  24  25
ATOM     25  C   UNL     1      -1.236   3.139   0.030  0.00  0.00    +0.009 A 
ATOM     26  C   UNL     1      -1.218   1.749   0.017  0.00  0.00    +0.015 A 
ATOM     27  C   UNL     1      -0.013   1.076   0.008  0.00  0.00    +0.001 A 
ATOM     28  C   UNL     1       1.176   1.783   0.000  0.00  0.00    +0.000 A 
ATOM     29  C   UNL     1       1.162   3.166   0.008  0.00  0.00    +0.001 A 
ATOM     30  C   UNL     1      -0.040   3.846   0.023  0.00  0.00    +0.015 A 
ENDBRANCH  24  25
ENDBRANCH  17  24
ENDBRANCH   1  17
TORSDOF 6
