REMARK  Name = ZINC66411744
REMARK  7 active torsions:
REMARK  status: ('A' for Active; 'I' for Inactive)
REMARK    1  A    between atoms: C_1  and  C_2
REMARK    2  A    between atoms: C_2  and  C_4
REMARK    3  A    between atoms: C_2  and  N_15
REMARK    4  A    between atoms: C_7  and  O_10
REMARK    5  A    between atoms: O_10  and  C_11
REMARK    6  A    between atoms: C_18  and  O_21
REMARK    7  A    between atoms: O_21  and  C_22
REMARK                            x       y       z     vdW  Elec       q    Type
REMARK                         _______ _______ _______ _____ _____    ______ ____
ROOT
ATOM      1  C   UNL     1      -0.019   1.526   0.010  0.00  0.00    -0.008 C 
ATOM      2  C   UNL     1       0.002  -0.004   0.002  0.00  0.00    -0.041 C 
ENDROOT
BRANCH   2   3
ATOM      3  N   UNL     1       0.713  -0.491   1.192  0.00  0.00    +0.384 N 
ATOM      4  C   UNL     1       0.030  -0.009   2.399  0.00  0.00    -0.075 C 
ATOM      5  C   UNL     1       0.811  -0.445   3.640  0.00  0.00    +0.013 C 
ATOM      6  C   UNL     1       0.893  -1.974   3.674  0.00  0.00    +0.114 C 
ATOM      7  C   UNL     1       1.540  -2.469   2.377  0.00  0.00    +0.013 C 
ATOM      8  C   UNL     1       0.732  -1.958   1.183  0.00  0.00    -0.075 C 
ATOM      9  H   UNL     1       1.660  -0.143   1.183  0.00  0.00    -0.081 HD
BRANCH   6  10
ATOM     10  O   UNL     1       1.685  -2.385   4.790  0.00  0.00    -0.380 OA
ATOM     11  C   UNL     1       1.313  -3.655   5.330  0.00  0.00    +0.194 C 
ENDBRANCH   6  10
ENDBRANCH   2   3
BRANCH   2  12
ATOM     12  C   UNL     1       0.707  -0.490  -1.238  0.00  0.00    -0.061 A 
ATOM     13  C   UNL     1       2.089  -0.510  -1.283  0.00  0.00    +0.005 A 
ATOM     14  C   UNL     1       2.738  -0.955  -2.418  0.00  0.00    +0.046 A 
ATOM     15  C   UNL     1       2.002  -1.382  -3.514  0.00  0.00    +0.130 A 
ATOM     16  C   UNL     1       0.616  -1.361  -3.466  0.00  0.00    +0.046 A 
ATOM     17  C   UNL     1      -0.028  -0.920  -2.327  0.00  0.00    +0.005 A 
BRANCH  15  18
ATOM     18  O   UNL     1       2.638  -1.819  -4.633  0.00  0.00    -0.406 OA
BRANCH  18  19
ATOM     19  C   UNL     1       1.817  -2.244  -5.722  0.00  0.00    +0.575 C 
ATOM     20  F   UNL     1       1.011  -1.179  -6.140  0.00  0.00    -0.133 F 
ATOM     21  F   UNL     1       2.628  -2.659  -6.784  0.00  0.00    -0.133 F 
ATOM     22  F   UNL     1       1.008  -3.308  -5.309  0.00  0.00    -0.133 F 
ENDBRANCH  18  19
ENDBRANCH  15  18
ENDBRANCH   2  12
TORSDOF 5
