REMARK  Name = ZINC10273235
REMARK  7 active torsions:
REMARK  status: ('A' for Active; 'I' for Inactive)
REMARK    1  A    between atoms: C_1  and  C_2
REMARK    2  A    between atoms: C_5  and  C_8
REMARK    3  A    between atoms: C_8  and  N_9
REMARK    4  A    between atoms: N_13  and  C_17
REMARK    5  A    between atoms: C_19  and  C_26
REMARK    6  A    between atoms: C_22  and  O_23
REMARK    7  A    between atoms: O_23  and  C_24
REMARK                            x       y       z     vdW  Elec       q    Type
REMARK                         _______ _______ _______ _____ _____    ______ ____
ROOT
ATOM      1  N   UNL     1      -1.106   0.785   6.550  0.00  0.00    -0.321 N 
ATOM      2  C   UNL     1      -1.836   1.234   5.457  0.00  0.00    +0.185 A 
ATOM      3  C   UNL     1      -1.224   2.132   4.474  0.00  0.00    +0.296 A 
ATOM      4  O   UNL     1      -0.067   2.499   4.598  0.00  0.00    -0.264 OA
ATOM      5  N   UNL     1      -1.973   2.549   3.428  0.00  0.00    -0.276 N 
ATOM      6  C   UNL     1      -3.262   2.113   3.320  0.00  0.00    +0.114 A 
ATOM      7  C   UNL     1      -3.791   1.281   4.241  0.00  0.00    +0.131 A 
ATOM      8  N   UNL     1      -3.085   0.854   5.287  0.00  0.00    -0.234 NA
ATOM      9  H   UNL     1      -0.186   1.069   6.669  0.00  0.00    +0.148 HD
ENDROOT
BRANCH   5  10
ATOM     10  C   UNL     1      -1.432   3.412   2.467  0.00  0.00    +0.091 A 
ATOM     11  C   UNL     1      -1.532   4.786   2.631  0.00  0.00    +0.034 A 
ATOM     12  C   UNL     1      -1.004   5.635   1.678  0.00  0.00    -0.030 A 
ATOM     13  C   UNL     1      -0.368   5.119   0.562  0.00  0.00    +0.047 A 
ATOM     14  C   UNL     1      -0.259   3.750   0.395  0.00  0.00    +0.068 A 
ATOM     15  C   UNL     1      -0.787   2.892   1.346  0.00  0.00    +0.145 A 
ATOM     16 CL   UNL     1       0.294   6.192  -0.631  0.00  0.00    -0.083 Cl
ATOM     17  C   UNL     1      -1.119   7.128   1.854  0.00  0.00    +0.045 C 
BRANCH  15  18
ATOM     18  O   UNL     1      -0.682   1.547   1.184  0.00  0.00    -0.493 OA
ATOM     19  C   UNL     1      -0.013   1.086   0.008  0.00  0.00    +0.277 C 
ENDBRANCH  15  18
ENDBRANCH   5  10
BRANCH   1  20
ATOM     20  C   UNL     1      -1.726  -0.117   7.524  0.00  0.00    +0.138 C 
BRANCH  20  25
ATOM     21  C   UNL     1       2.095  -1.400  11.665  0.00  0.00    +0.044 C 
ATOM     22  C   UNL     1       1.098  -1.066  10.585  0.00  0.00    -0.050 A 
ATOM     23  C   UNL     1       0.269   0.031  10.726  0.00  0.00    +0.003 A 
ATOM     24  C   UNL     1      -0.645   0.338   9.735  0.00  0.00    +0.005 A 
ATOM     25  C   UNL     1      -0.729  -0.452   8.604  0.00  0.00    -0.030 A 
ATOM     26  C   UNL     1       0.097  -1.552   8.466  0.00  0.00    +0.005 A 
ATOM     27  C   UNL     1       1.014  -1.856   9.454  0.00  0.00    +0.003 A 
ENDBRANCH  20  25
ENDBRANCH   1  20
TORSDOF 4
