REMARK  Name = ZINC58281607
REMARK  6 active torsions:
REMARK  status: ('A' for Active; 'I' for Inactive)
REMARK    1  A    between atoms: C_1  and  C_2
REMARK    2  A    between atoms: C_2  and  C_4
REMARK    3  A    between atoms: C_2  and  N_16
REMARK    4  A    between atoms: C_8  and  C_10
REMARK    5  A    between atoms: C_17  and  C_19
REMARK    6  A    between atoms: C_19  and  C_20
REMARK                            x       y       z     vdW  Elec       q    Type
REMARK                         _______ _______ _______ _____ _____    ______ ____
ROOT
ATOM      1  C   UNL     1      -0.019   1.526   0.010  0.00  0.00    +0.036 C 
ATOM      2  C   UNL     1       0.002  -0.004   0.002  0.00  0.00    +0.134 C 
ENDROOT
BRANCH   2   3
ATOM      3  C   UNL     1       0.707  -0.490  -1.238  0.00  0.00    +0.105 A 
ATOM      4  N   UNL     1       2.031  -0.739  -1.341  0.00  0.00    -0.348 N 
ATOM      5  H   UNL     1       2.691  -0.638  -0.637  0.00  0.00    +0.167 HD
ATOM      6  C   UNL     1       2.271  -1.159  -2.619  0.00  0.00    +0.110 A 
ATOM      7  C   UNL     1       1.074  -1.154  -3.262  0.00  0.00    +0.064 A 
ATOM      8  N   UNL     1       0.138  -0.744  -2.382  0.00  0.00    -0.342 N 
ATOM      9  H   UNL     1      -0.809  -0.650  -2.572  0.00  0.00    +0.167 HD
BRANCH   7  10
ATOM     10  C   UNL     1       0.839  -1.537  -4.676  0.00  0.00    -0.000 A 
ATOM     11  C   UNL     1      -0.447  -1.479  -5.212  0.00  0.00    +0.010 A 
ATOM     12  C   UNL     1      -0.660  -1.837  -6.527  0.00  0.00    +0.001 A 
ATOM     13  C   UNL     1       0.399  -2.253  -7.314  0.00  0.00    +0.000 A 
ATOM     14  C   UNL     1       1.677  -2.313  -6.788  0.00  0.00    +0.001 A 
ATOM     15  C   UNL     1       1.903  -1.951  -5.475  0.00  0.00    +0.010 A 
ENDBRANCH   7  10
ENDBRANCH   2   3
BRANCH   2  16
ATOM     16  N   UNL     1       0.711  -0.489   1.189  0.00  0.00    -0.306 N 
ATOM     17  C   UNL     1       0.051  -0.633   2.355  0.00  0.00    +0.218 C 
ATOM     18  O   UNL     1      -1.129  -0.361   2.423  0.00  0.00    -0.275 OA
ATOM     19  H   UNL     1       1.654  -0.707   1.135  0.00  0.00    +0.149 HD
BRANCH  17  20
ATOM     20  C   UNL     1       0.780  -1.133   3.576  0.00  0.00    +0.133 C 
BRANCH  20  21
ATOM     21  C   UNL     1      -0.176  -1.203   4.739  0.00  0.00    -0.014 A 
ATOM     22  C   UNL     1      -0.370  -0.257   5.672  0.00  0.00    +0.087 A 
ATOM     23  N   UNL     1      -1.315  -0.673   6.569  0.00  0.00    -0.360 N 
ATOM     24  H   UNL     1      -1.623  -0.161   7.332  0.00  0.00    +0.165 HD
ATOM     25  C   UNL     1      -1.765  -1.929   6.226  0.00  0.00    +0.047 A 
ATOM     26  C   UNL     1      -1.076  -2.313   5.061  0.00  0.00    +0.003 A 
ATOM     27  C   UNL     1      -1.336  -3.553   4.475  0.00  0.00    +0.010 A 
ATOM     28  C   UNL     1      -2.262  -4.387   5.035  0.00  0.00    +0.001 A 
ATOM     29  C   UNL     1      -2.947  -4.012   6.182  0.00  0.00    +0.002 A 
ATOM     30  C   UNL     1      -2.700  -2.796   6.782  0.00  0.00    +0.026 A 
ENDBRANCH  20  21
ENDBRANCH  17  20
ENDBRANCH   2  16
TORSDOF 5
