REMARK  Name = ZINC15547447
REMARK  10 active torsions:
REMARK  status: ('A' for Active; 'I' for Inactive)
REMARK    1  A    between atoms: C_1  and  C_2
REMARK    2  A    between atoms: C_2  and  C_3
REMARK    3  A    between atoms: N_12  and  C_13
REMARK    4  A    between atoms: C_13  and  C_14
REMARK    5  A    between atoms: N_16  and  C_17
REMARK    6  A    between atoms: N_16  and  C_18
REMARK    7  A    between atoms: C_18  and  C_19
REMARK    8  A    between atoms: N_21  and  C_22
REMARK    9  A    between atoms: C_23  and  C_29
REMARK   10  A    between atoms: C_27  and  C_28
REMARK                            x       y       z     vdW  Elec       q    Type
REMARK                         _______ _______ _______ _____ _____    ______ ____
ROOT
ATOM      1  C   UNL     1       3.141   4.031  -0.817  0.00  0.00    +0.199 C 
ATOM      2  O   UNL     1       3.302   2.893  -1.206  0.00  0.00    -0.278 OA
ATOM      3  N   UNL     1       4.197   4.755  -0.397  0.00  0.00    -0.297 N 
ATOM      4  C   UNL     1       4.003   6.129   0.073  0.00  0.00    +0.132 C 
ENDROOT
BRANCH   1   5
ATOM      5  C   UNL     1       1.760   4.634  -0.802  0.00  0.00    +0.020 C 
BRANCH   5  14
ATOM      6  C   UNL     1      -0.568   4.175  -1.123  0.00  0.00    -0.036 C 
ATOM      7  C   UNL     1      -1.562   3.195  -1.738  0.00  0.00    -0.051 A 
ATOM      8  C   UNL     1      -2.918   3.161  -1.425  0.00  0.00    +0.010 A 
ATOM      9  C   UNL     1      -3.727   2.253  -2.020  0.00  0.00    +0.045 A 
ATOM     10  S   UNL     1      -2.584   1.378  -3.080  0.00  0.00    -0.101 S 
ATOM     11  C   UNL     1      -1.125   2.285  -2.654  0.00  0.00    -0.010 A 
ATOM     12  C   UNL     1       0.274   2.129  -3.152  0.00  0.00    +0.024 C 
ATOM     13  C   UNL     1       1.061   3.379  -2.722  0.00  0.00    -0.072 C 
ATOM     14  N   UNL     1       0.791   3.650  -1.303  0.00  0.00    +0.390 N 
ATOM     15  H   UNL     1       0.888   2.793  -0.779  0.00  0.00    -0.080 HD
BRANCH   6  17
ATOM     16  C   UNL     1      -0.764   2.971   1.058  0.00  0.00    +0.002 C 
ATOM     17  C   UNL     1      -0.862   4.335   0.370  0.00  0.00    -0.014 C 
ENDBRANCH   6  17
ENDBRANCH   5  14
ENDBRANCH   1   5
BRANCH   3  18
ATOM     18  C   UNL     1       5.540   4.169  -0.411  0.00  0.00    +0.203 C 
BRANCH  18  19
ATOM     19  C   UNL     1       6.196   4.449  -1.739  0.00  0.00    +0.235 C 
ATOM     20  O   UNL     1       5.601   5.076  -2.589  0.00  0.00    -0.274 OA
ATOM     21  N   UNL     1       7.444   4.002  -1.981  0.00  0.00    -0.284 N 
ATOM     22  H   UNL     1       7.947   3.561  -1.278  0.00  0.00    +0.155 HD
BRANCH  21  23
ATOM     23  C   UNL     1       8.015   4.173  -3.247  0.00  0.00    +0.039 A 
ATOM     24  C   UNL     1       9.270   4.756  -3.371  0.00  0.00    -0.029 A 
ATOM     25  C   UNL     1       9.831   4.924  -4.621  0.00  0.00    +0.005 A 
ATOM     26  C   UNL     1       9.145   4.513  -5.749  0.00  0.00    +0.001 A 
ATOM     27  C   UNL     1       7.896   3.932  -5.629  0.00  0.00    +0.005 A 
ATOM     28  C   UNL     1       7.332   3.756  -4.381  0.00  0.00    -0.029 A 
ATOM     29  C   UNL     1       5.973   3.117  -4.251  0.00  0.00    +0.045 C 
ATOM     30  C   UNL     1      10.018   5.206  -2.142  0.00  0.00    +0.045 C 
ENDBRANCH  21  23
ENDBRANCH  18  19
ENDBRANCH   3  18
TORSDOF 6
