REMARK  Name = ZINC02708685
REMARK  7 active torsions:
REMARK  status: ('A' for Active; 'I' for Inactive)
REMARK    1  A    between atoms: C_3  and  S_27
REMARK    2  A    between atoms: C_6  and  N_7
REMARK    3  A    between atoms: C_8  and  C_10
REMARK    4  A    between atoms: C_10  and  S_11
REMARK    5  A    between atoms: S_11  and  C_12
REMARK    6  A    between atoms: N_17  and  C_20
REMARK    7  A    between atoms: S_27  and  N_30
REMARK                            x       y       z     vdW  Elec       q    Type
REMARK                         _______ _______ _______ _____ _____    ______ ____
ROOT
ATOM      1  N   UNL     1      -1.393  -0.645   0.102  0.00  0.00    -0.285 N 
ATOM      2  C   UNL     1      -1.329  -1.985  -0.030  0.00  0.00    +0.227 C 
ATOM      3  O   UNL     1      -0.251  -2.541  -0.054  0.00  0.00    -0.275 OA
ATOM      4  H   UNL     1      -2.254  -0.208   0.196  0.00  0.00    +0.155 HD
ENDROOT
BRANCH   1  10
ATOM      5  C   UNL     1       0.870  -0.285  -0.661  0.00  0.00    +0.025 A 
ATOM      6  C   UNL     1       2.028   0.468  -0.658  0.00  0.00    +0.030 A 
ATOM      7  C   UNL     1       2.104   1.619   0.105  0.00  0.00    +0.105 A 
ATOM      8  C   UNL     1       1.022   2.020   0.867  0.00  0.00    +0.030 A 
ATOM      9  C   UNL     1      -0.139   1.272   0.868  0.00  0.00    +0.025 A 
ATOM     10  C   UNL     1      -0.219   0.115   0.103  0.00  0.00    +0.034 A 
BRANCH   7  11
ATOM     11  S   UNL     1       3.584   2.576   0.107  0.00  0.00    +0.056 S 
ATOM     12  O   UNL     1       3.592   3.308   1.325  0.00  0.00    -0.153 OA
ATOM     13  O   UNL     1       4.637   1.695  -0.260  0.00  0.00    -0.153 OA
BRANCH  11  14
ATOM     14  N   UNL     1       3.450   3.687  -1.113  0.00  0.00    -0.204 NA
ATOM     15  H   UNL     1       2.651   3.710  -1.663  0.00  0.00    +0.144 HD
ATOM     16  H   UNL     1       4.170   4.316  -1.278  0.00  0.00    +0.144 HD
ENDBRANCH  11  14
ENDBRANCH   7  11
ENDBRANCH   1  10
BRANCH   2  17
ATOM     17  C   UNL     1      -2.596  -2.792  -0.148  0.00  0.00    +0.165 C 
BRANCH  17  18
ATOM     18  S   UNL     1      -2.180  -4.550  -0.311  0.00  0.00    -0.138 S 
BRANCH  18  19
ATOM     19  C   UNL     1      -3.792  -5.372  -0.440  0.00  0.00    +0.142 C 
ATOM     20  C   UNL     1      -3.616  -6.903  -0.516  0.00  0.00    +0.120 C 
ATOM     21  C   UNL     1      -4.205  -7.262  -1.862  0.00  0.00    +0.228 C 
ATOM     22  O   UNL     1      -4.270  -8.380  -2.325  0.00  0.00    -0.275 OA
ATOM     23  N   UNL     1      -4.643  -6.148  -2.462  0.00  0.00    -0.209 N 
ATOM     24  C   UNL     1      -4.463  -5.024  -1.751  0.00  0.00    +0.240 C 
ATOM     25  O   UNL     1      -4.786  -3.909  -2.100  0.00  0.00    -0.274 OA
BRANCH  23  26
ATOM     26  C   UNL     1      -5.243  -6.155  -3.730  0.00  0.00    +0.044 A 
ATOM     27  C   UNL     1      -6.484  -6.751  -3.908  0.00  0.00    +0.025 A 
ATOM     28  C   UNL     1      -7.073  -6.757  -5.157  0.00  0.00    +0.017 A 
ATOM     29  C   UNL     1      -6.428  -6.168  -6.230  0.00  0.00    +0.018 A 
ATOM     30  C   UNL     1      -5.191  -5.573  -6.055  0.00  0.00    +0.017 A 
ATOM     31  C   UNL     1      -4.600  -5.560  -4.806  0.00  0.00    +0.025 A 
ATOM     32 BR   UNL     1      -7.237  -6.178  -7.940  0.00  0.00    -0.050 Br
ENDBRANCH  23  26
ENDBRANCH  18  19
ENDBRANCH  17  18
ENDBRANCH   2  17
TORSDOF 7
