REMARK  Name = ZINC39932456
REMARK  2 active torsions:
REMARK  status: ('A' for Active; 'I' for Inactive)
REMARK    1  A    between atoms: C_12  and  C_27
REMARK    2  A    between atoms: C_27  and  C_29
REMARK                            x       y       z     vdW  Elec       q    Type
REMARK                         _______ _______ _______ _____ _____    ______ ____
ROOT
ATOM      1  C   UNL     1       0.358   0.556  -1.768  0.00  0.00    +0.001 A 
ATOM      2  C   UNL     1       1.385   1.443  -1.491  0.00  0.00    +0.002 A 
ATOM      3  C   UNL     1       2.605   0.978  -1.030  0.00  0.00    +0.024 A 
ATOM      4  C   UNL     1       2.791  -0.373  -0.844  0.00  0.00    +0.038 A 
ATOM      5  C   UNL     1       1.745  -1.282  -1.109  0.00  0.00    -0.004 A 
ATOM      6  C   UNL     1       0.529  -0.802  -1.581  0.00  0.00    +0.010 A 
ATOM      7  C   UNL     1       1.973  -2.717  -0.851  0.00  0.00    +0.007 C 
ATOM      8  C   UNL     1       3.206  -3.204  -0.730  0.00  0.00    -0.003 C 
ATOM      9  C   UNL     1       4.394  -2.291  -0.859  0.00  0.00    +0.108 C 
ATOM     10  N   UNL     1       3.983  -0.943  -0.411  0.00  0.00    -0.312 N 
ATOM     11  C   UNL     1       4.960  -0.433   0.552  0.00  0.00    +0.147 C 
ATOM     12  C   UNL     1       6.188  -1.364   0.439  0.00  0.00    +0.060 C 
ATOM     13  C   UNL     1       5.553  -2.739   0.048  0.00  0.00    +0.092 C 
ATOM     14  C   UNL     1       4.966  -3.369   1.292  0.00  0.00    +0.194 C 
ATOM     15  O   UNL     1       3.901  -3.939   1.261  0.00  0.00    -0.292 OA
ATOM     16  C   UNL     1       5.763  -3.261   2.582  0.00  0.00    +0.319 C 
ATOM     17  O   UNL     1       7.068  -3.816   2.323  0.00  0.00    -0.342 OA
ATOM     18  C   UNL     1       7.855  -2.763   1.740  0.00  0.00    +0.195 C 
ATOM     19  C   UNL     1       6.903  -1.450   1.783  0.00  0.00    +0.153 C 
ATOM     20  O   UNL     1       5.962  -1.843   2.801  0.00  0.00    -0.339 OA
ENDROOT
BRANCH  11  21
ATOM     21  C   UNL     1       5.344   0.982   0.204  0.00  0.00    +0.160 C 
ATOM     22  O   UNL     1       5.706   1.251  -0.916  0.00  0.00    -0.295 OA
BRANCH  21  23
ATOM     23  C   UNL     1       5.276   2.061   1.253  0.00  0.00    +0.032 C 
ATOM     24  C   UNL     1       3.848   2.156   1.795  0.00  0.00    +0.018 C 
ATOM     25  C   UNL     1       3.779   3.252   2.861  0.00  0.00    -0.010 C 
ATOM     26  C   UNL     1       4.180   4.592   2.241  0.00  0.00    +0.007 C 
ATOM     27  C   UNL     1       5.608   4.497   1.699  0.00  0.00    -0.010 C 
ATOM     28  C   UNL     1       5.677   3.401   0.633  0.00  0.00    +0.018 C 
ATOM     29  C   UNL     1       6.566   4.157   2.842  0.00  0.00    +0.007 C 
ATOM     30  C   UNL     1       6.165   2.817   3.462  0.00  0.00    -0.010 C 
ATOM     31  C   UNL     1       4.737   2.913   4.004  0.00  0.00    +0.007 C 
ATOM     32  C   UNL     1       6.234   1.721   2.397  0.00  0.00    +0.018 C 
ENDBRANCH  21  23
ENDBRANCH  11  21
TORSDOF 2
