REMARK  Name = ZINC47896835
REMARK  6 active torsions:
REMARK  status: ('A' for Active; 'I' for Inactive)
REMARK    1  A    between atoms: C_1  and  C_2
REMARK    2  A    between atoms: C_2  and  C_3
REMARK    3  A    between atoms: C_6  and  C_8
REMARK    4  A    between atoms: C_8  and  C_10
REMARK    5  A    between atoms: C_10  and  O_11
REMARK    6  A    between atoms: O_11  and  C_12
REMARK                            x       y       z     vdW  Elec       q    Type
REMARK                         _______ _______ _______ _____ _____    ______ ____
ROOT
ATOM      1  C   UNL     1       1.663  -1.754  -4.942  0.00  0.00    +0.207 C 
ATOM      2  O   UNL     1       2.760  -2.060  -5.364  0.00  0.00    -0.288 OA
ENDROOT
BRANCH   1   6
ATOM      3  C   UNL     1       0.707  -0.490  -1.238  0.00  0.00    -0.010 A 
ATOM      4  C   UNL     1       2.030  -0.754  -1.395  0.00  0.00    +0.012 A 
ATOM      5  C   UNL     1       2.483  -1.193  -2.613  0.00  0.00    +0.019 A 
ATOM      6  C   UNL     1       1.514  -1.330  -3.603  0.00  0.00    +0.058 A 
ATOM      7  S   UNL     1       0.036  -0.835  -2.739  0.00  0.00    -0.090 S 
BRANCH   3   9
ATOM      8  C   UNL     1      -0.019   1.526   0.010  0.00  0.00    +0.009 C 
ATOM      9  C   UNL     1       0.002  -0.004   0.002  0.00  0.00    +0.039 C 
ENDBRANCH   3   9
ENDBRANCH   1   6
BRANCH   1  10
ATOM     10  C   UNL     1       0.460  -1.827  -5.848  0.00  0.00    +0.309 C 
BRANCH  10  11
ATOM     11  O   UNL     1       0.865  -2.279  -7.141  0.00  0.00    -0.483 OA
BRANCH  11  12
ATOM     12  C   UNL     1      -0.107  -2.401  -8.084  0.00  0.00    +0.134 A 
ATOM     13  C   UNL     1      -1.421  -2.087  -7.771  0.00  0.00    +0.047 A 
ATOM     14  C   UNL     1      -2.407  -2.211  -8.731  0.00  0.00    +0.004 A 
ATOM     15  C   UNL     1      -2.085  -2.650 -10.002  0.00  0.00    +0.001 A 
ATOM     16  C   UNL     1      -0.776  -2.965 -10.316  0.00  0.00    +0.018 A 
ATOM     17  C   UNL     1       0.215  -2.836  -9.362  0.00  0.00    +0.055 A 
ATOM     18  I   UNL     1       2.200  -3.304  -9.841  0.00  0.00    -0.040 I 
ENDBRANCH  11  12
ENDBRANCH  10  11
ENDBRANCH   1  10
TORSDOF 5
