REMARK  Name = ZINC09542463
REMARK  11 active torsions:
REMARK  status: ('A' for Active; 'I' for Inactive)
REMARK    1  A    between atoms: C_1  and  C_2
REMARK    2  A    between atoms: C_2  and  C_3
REMARK    3  A    between atoms: C_6  and  C_9
REMARK    4  A    between atoms: C_11  and  C_26
REMARK    5  A    between atoms: C_13  and  C_16
REMARK    6  A    between atoms: C_20  and  O_23
REMARK    7  A    between atoms: C_21  and  O_22
REMARK    8  A    between atoms: O_23  and  C_24
REMARK    9  A    between atoms: C_24  and  C_25
REMARK   10  A    between atoms: C_31  and  O_32
REMARK   11  A    between atoms: O_32  and  C_33
REMARK                            x       y       z     vdW  Elec       q    Type
REMARK                         _______ _______ _______ _____ _____    ______ ____
ROOT
ATOM      1  C   UNL     1      -3.739   1.044   2.595  0.00  0.00    +0.040 C 
ATOM      2  N   UNL     1      -2.504   1.276   2.836  0.00  0.00    -0.298 NA
ATOM      3  C   UNL     1      -2.011   2.478   3.495  0.00  0.00    +0.084 C 
ATOM      4  C   UNL     1      -4.246   3.364   3.305  0.00  0.00    -0.028 C 
ATOM      5  C   UNL     1      -4.842   1.991   2.977  0.00  0.00    +0.044 C 
ATOM      6  N   UNL     1      -3.097   3.164   4.210  0.00  0.00    +0.401 N 
ATOM      7  H   UNL     1      -2.764   4.077   4.543  0.00  0.00    -0.081 HD
ATOM      8  H   UNL     1      -3.391   2.594   5.012  0.00  0.00    -0.081 HD
ENDROOT
BRANCH   3   9
ATOM      9  C   UNL     1      -1.430   3.408   2.462  0.00  0.00    +0.002 A 
ATOM     10  C   UNL     1      -1.533   4.776   2.627  0.00  0.00    +0.022 A 
ATOM     11  C   UNL     1      -1.004   5.630   1.676  0.00  0.00    +0.018 A 
ATOM     12  C   UNL     1      -0.367   5.117   0.560  0.00  0.00    +0.019 A 
ATOM     13  C   UNL     1      -0.258   3.751   0.393  0.00  0.00    +0.047 A 
ATOM     14  C   UNL     1      -0.787   2.892   1.346  0.00  0.00    +0.123 A 
ATOM     15 BR   UNL     1      -1.152   7.502   1.902  0.00  0.00    -0.050 Br
BRANCH  14  16
ATOM     16  O   UNL     1      -0.682   1.547   1.184  0.00  0.00    -0.495 OA
ATOM     17  C   UNL     1      -0.013   1.086   0.008  0.00  0.00    +0.277 C 
ENDBRANCH  14  16
ENDBRANCH   3   9
BRANCH   1  21
ATOM     18  C   UNL     1      -4.771  -2.570   0.621  0.00  0.00    -0.048 A 
ATOM     19  C   UNL     1      -3.445  -2.291   0.896  0.00  0.00    +0.004 A 
ATOM     20  C   UNL     1      -3.102  -1.118   1.537  0.00  0.00    +0.010 A 
ATOM     21  C   UNL     1      -4.098  -0.213   1.908  0.00  0.00    -0.004 A 
ATOM     22  C   UNL     1      -5.436  -0.504   1.633  0.00  0.00    +0.010 A 
ATOM     23  C   UNL     1      -5.763  -1.678   0.986  0.00  0.00    +0.004 A 
BRANCH  18  25
ATOM     24  C   UNL     1      -5.387  -4.949   0.958  0.00  0.00    +0.009 C 
ATOM     25  C   UNL     1      -5.138  -3.853  -0.080  0.00  0.00    +0.032 C 
ENDBRANCH  18  25
ENDBRANCH   1  21
BRANCH   4  26
ATOM     26  C   UNL     1      -5.283   4.219   3.987  0.00  0.00    -0.016 A 
ATOM     27  C   UNL     1      -5.285   4.336   5.365  0.00  0.00    +0.006 A 
ATOM     28  C   UNL     1      -6.232   5.123   5.993  0.00  0.00    +0.004 A 
ATOM     29  C   UNL     1      -7.187   5.789   5.247  0.00  0.00    +0.049 A 
ATOM     30  C   UNL     1      -7.194   5.671   3.867  0.00  0.00    +0.162 A 
ATOM     31  C   UNL     1      -6.237   4.883   3.234  0.00  0.00    +0.160 A 
BRANCH  31  32
ATOM     32  O   UNL     1      -6.240   4.764   1.879  0.00  0.00    -0.503 OA
ATOM     33  H   UNL     1      -6.777   4.030   1.550  0.00  0.00    +0.292 HD
ENDBRANCH  31  32
BRANCH  30  34
ATOM     34  O   UNL     1      -8.133   6.325   3.132  0.00  0.00    -0.489 OA
BRANCH  34  35
ATOM     35  C   UNL     1      -9.083   7.116   3.849  0.00  0.00    +0.226 C 
ATOM     36  C   UNL     1     -10.051   7.770   2.861  0.00  0.00    +0.048 C 
ENDBRANCH  34  35
ENDBRANCH  30  34
ENDBRANCH   4  26
TORSDOF 8
