REMARK  Name = ZINC12361518
REMARK  4 active torsions:
REMARK  status: ('A' for Active; 'I' for Inactive)
REMARK    1  A    between atoms: C_1  and  C_2
REMARK    2  A    between atoms: C_5  and  S_8
REMARK    3  A    between atoms: S_8  and  N_11
REMARK    4  A    between atoms: C_19  and  C_21
REMARK                            x       y       z     vdW  Elec       q    Type
REMARK                         _______ _______ _______ _____ _____    ______ ____
ROOT
ATOM      1  N   UNL     1      -0.746   1.918  -1.220  0.00  0.00    -0.162 NA
ATOM      2  C   UNL     1      -1.636   0.875  -1.751  0.00  0.00    +0.132 C 
ATOM      3  C   UNL     1      -3.093   1.348  -1.627  0.00  0.00    +0.138 C 
ATOM      4  N   UNL     1      -3.195   2.730  -2.109  0.00  0.00    -0.348 N 
ATOM      5  C   UNL     1      -4.327   3.381  -2.492  0.00  0.00    +0.086 A 
ATOM      6  C   UNL     1      -3.990   4.636  -2.856  0.00  0.00    +0.019 A 
ATOM      7  C   UNL     1      -2.595   4.764  -2.693  0.00  0.00    +0.025 A 
ATOM      8  C   UNL     1      -2.137   3.587  -2.241  0.00  0.00    +0.042 A 
ATOM      9  C   UNL     1      -0.707   3.216  -1.918  0.00  0.00    +0.158 C 
ENDROOT
BRANCH   9  10
ATOM     10  C   UNL     1       0.094   3.094  -3.189  0.00  0.00    -0.004 A 
ATOM     11  C   UNL     1      -0.330   2.243  -4.193  0.00  0.00    +0.008 A 
ATOM     12  C   UNL     1       0.402   2.134  -5.361  0.00  0.00    +0.020 A 
ATOM     13  C   UNL     1       1.564   2.868  -5.521  0.00  0.00    +0.042 A 
ATOM     14  C   UNL     1       1.991   3.715  -4.514  0.00  0.00    +0.040 A 
ATOM     15  C   UNL     1       1.256   3.828  -3.348  0.00  0.00    +0.047 A 
ATOM     16 CL   UNL     1       1.790   4.891  -2.084  0.00  0.00    -0.083 Cl
ATOM     17 CL   UNL     1       2.486   2.726  -6.985  0.00  0.00    -0.083 Cl
ENDBRANCH   9  10
BRANCH   1  18
ATOM     18  S   UNL     1       0.189   1.641   0.118  0.00  0.00    +0.062 S 
ATOM     19  O   UNL     1       0.364   0.234   0.207  0.00  0.00    -0.153 OA
ATOM     20  O   UNL     1       1.286   2.541   0.041  0.00  0.00    -0.153 OA
BRANCH  18  25
ATOM     21  C   UNL     1      -3.055   3.284   4.933  0.00  0.00    +0.044 C 
ATOM     22  C   UNL     1      -2.244   2.873   3.731  0.00  0.00    -0.050 A 
ATOM     23  C   UNL     1      -2.316   1.576   3.259  0.00  0.00    +0.005 A 
ATOM     24  C   UNL     1      -1.573   1.199   2.156  0.00  0.00    +0.029 A 
ATOM     25  C   UNL     1      -0.758   2.121   1.524  0.00  0.00    +0.106 A 
ATOM     26  C   UNL     1      -0.683   3.417   1.999  0.00  0.00    +0.029 A 
ATOM     27  C   UNL     1      -1.429   3.794   3.100  0.00  0.00    +0.005 A 
ENDBRANCH  18  25
ENDBRANCH   1  18
TORSDOF 3
