REMARK  Name = ZINC05183323
REMARK  6 active torsions:
REMARK  status: ('A' for Active; 'I' for Inactive)
REMARK    1  A    between atoms: C_1  and  C_2
REMARK    2  A    between atoms: C_2  and  C_4
REMARK    3  A    between atoms: C_2  and  N_16
REMARK    4  A    between atoms: N_6  and  C_7
REMARK    5  A    between atoms: C_12  and  O_13
REMARK    6  A    between atoms: O_13  and  C_14
REMARK                            x       y       z     vdW  Elec       q    Type
REMARK                         _______ _______ _______ _____ _____    ______ ____
ROOT
ATOM      1  C   UNL     1      -0.001   1.541   0.019  0.00  0.00    +0.043 C 
ATOM      2  C   UNL     1       0.014   0.011   0.002  0.00  0.00    +0.195 C 
ENDROOT
BRANCH   2   3
ATOM      3  N   UNL     1       0.704  -0.456  -1.203  0.00  0.00    -0.199 N 
ATOM      4  C   UNL     1       0.043  -1.222  -2.093  0.00  0.00    +0.279 A 
ATOM      5  O   UNL     1      -1.121  -1.528  -1.905  0.00  0.00    -0.265 OA
ATOM      6  C   UNL     1       0.737  -1.671  -3.267  0.00  0.00    +0.079 A 
ATOM      7  C   UNL     1       0.225  -2.502  -4.354  0.00  0.00    -0.023 A 
ATOM      8  C   UNL     1       1.080  -2.791  -5.359  0.00  0.00    -0.004 A 
ATOM      9  S   UNL     1       2.595  -1.982  -4.919  0.00  0.00    -0.071 S 
ATOM     10  C   UNL     1       2.074  -1.259  -3.384  0.00  0.00    +0.138 A 
ATOM     11  N   UNL     1       2.669  -0.502  -2.468  0.00  0.00    -0.123 NA
ATOM     12  N   UNL     1       2.038  -0.098  -1.419  0.00  0.00    -0.061 NA
ATOM     13  C   UNL     1       0.802  -3.617  -6.578  0.00  0.00    +0.043 C 
ATOM     14  C   UNL     1      -0.495  -4.405  -6.343  0.00  0.00    +0.005 C 
ATOM     15  C   UNL     1      -1.560  -3.446  -5.801  0.00  0.00    +0.005 C 
ATOM     16  C   UNL     1      -1.207  -3.029  -4.373  0.00  0.00    +0.037 C 
ENDBRANCH   2   3
BRANCH   2  17
ATOM     17  C   UNL     1       0.736  -0.498   1.223  0.00  0.00    +0.242 C 
ATOM     18  O   UNL     1       1.728  -1.184   1.099  0.00  0.00    -0.273 OA
ATOM     19  N   UNL     1       0.278  -0.191   2.453  0.00  0.00    -0.281 N 
ATOM     20  H   UNL     1      -0.477   0.410   2.554  0.00  0.00    +0.155 HD
BRANCH  19  21
ATOM     21  C   UNL     1       0.892  -0.740   3.587  0.00  0.00    +0.077 A 
ATOM     22  C   UNL     1       2.261  -0.963   3.596  0.00  0.00    +0.047 A 
ATOM     23  C   UNL     1       2.865  -1.505   4.716  0.00  0.00    +0.043 A 
ATOM     24  C   UNL     1       2.107  -1.825   5.828  0.00  0.00    +0.024 A 
ATOM     25  C   UNL     1       0.742  -1.604   5.825  0.00  0.00    +0.049 A 
ATOM     26  C   UNL     1       0.131  -1.056   4.709  0.00  0.00    +0.141 A 
ATOM     27 CL   UNL     1       4.579  -1.785   4.726  0.00  0.00    -0.083 Cl
BRANCH  26  28
ATOM     28  O   UNL     1      -1.211  -0.834   4.707  0.00  0.00    -0.493 OA
ATOM     29  C   UNL     1      -1.928  -1.183   5.893  0.00  0.00    +0.277 C 
ENDBRANCH  26  28
ENDBRANCH  19  21
ENDBRANCH   2  17
TORSDOF 4
