REMARK  Name = ZINC01071324
REMARK  6 active torsions:
REMARK  status: ('A' for Active; 'I' for Inactive)
REMARK    1  A    between atoms: C_4  and  N_7
REMARK    2  A    between atoms: C_12  and  N_13
REMARK    3  A    between atoms: C_12  and  N_58
REMARK    4  A    between atoms: N_21  and  C_22
REMARK    5  A    between atoms: C_25  and  O_28
REMARK    6  A    between atoms: O_28  and  C_29
REMARK                            x       y       z     vdW  Elec       q    Type
REMARK                         _______ _______ _______ _____ _____    ______ ____
ROOT
ATOM      1  N   UNL     1       6.083  -1.647   1.712  0.00  0.00    -0.282 N 
ATOM      2  C   UNL     1       5.708  -2.843   1.109  0.00  0.00    +0.044 A 
ATOM      3  C   UNL     1       5.391  -3.152  -0.208  0.00  0.00    +0.024 A 
ATOM      4  C   UNL     1       5.045  -4.443  -0.554  0.00  0.00    +0.002 A 
ATOM      5  C   UNL     1       5.009  -5.444   0.402  0.00  0.00    +0.001 A 
ATOM      6  C   UNL     1       5.321  -5.157   1.716  0.00  0.00    +0.012 A 
ATOM      7  C   UNL     1       5.671  -3.859   2.074  0.00  0.00    +0.027 A 
ATOM      8  C   UNL     1       6.052  -3.232   3.359  0.00  0.00    +0.135 C 
ATOM      9  N   UNL     1       6.150  -3.809   4.533  0.00  0.00    -0.242 NA
ATOM     10  C   UNL     1       6.304  -1.808   3.028  0.00  0.00    +0.268 C 
ATOM     11  O   UNL     1       6.647  -0.941   3.809  0.00  0.00    -0.268 OA
ENDROOT
BRANCH   9  12
ATOM     12  C   UNL     1       6.514  -3.082   5.619  0.00  0.00    +0.065 A 
ATOM     13  C   UNL     1       7.590  -2.186   5.537  0.00  0.00    +0.031 A 
ATOM     14  C   UNL     1       7.950  -1.450   6.636  0.00  0.00    +0.048 A 
ATOM     15  C   UNL     1       7.258  -1.599   7.834  0.00  0.00    +0.130 A 
ATOM     16  C   UNL     1       6.194  -2.490   7.923  0.00  0.00    +0.048 A 
ATOM     17  C   UNL     1       5.821  -3.227   6.829  0.00  0.00    +0.031 A 
BRANCH  15  18
ATOM     18  O   UNL     1       7.623  -0.872   8.920  0.00  0.00    -0.406 OA
BRANCH  18  19
ATOM     19  C   UNL     1       8.725   0.025   8.761  0.00  0.00    +0.575 C 
ATOM     20  F   UNL     1       8.424   0.961   7.766  0.00  0.00    -0.133 F 
ATOM     21  F   UNL     1       8.965   0.689   9.969  0.00  0.00    -0.133 F 
ATOM     22  F   UNL     1       9.865  -0.698   8.392  0.00  0.00    -0.133 F 
ENDBRANCH  18  19
ENDBRANCH  15  18
ENDBRANCH   9  12
BRANCH   1  23
ATOM     23  C   UNL     1       6.224  -0.373   1.002  0.00  0.00    +0.039 C 
BRANCH  23  29
ATOM     24  N   UNL     1       2.401   1.108  -0.015  0.00  0.00    -0.333 N 
ATOM     25  C   UNL     1       2.500   0.179   1.120  0.00  0.00    +0.086 C 
ATOM     26  C   UNL     1       3.813  -0.601   1.023  0.00  0.00    -0.057 C 
ATOM     27  C   UNL     1       4.841   1.270  -0.117  0.00  0.00    -0.057 C 
ATOM     28  C   UNL     1       3.528   2.050  -0.020  0.00  0.00    +0.086 C 
ATOM     29  N   UNL     1       4.939   0.357   1.041  0.00  0.00    +0.392 N 
ATOM     30  H   UNL     1       4.895   0.908   1.906  0.00  0.00    -0.079 HD
BRANCH  24  34
ATOM     31  C   UNL     1      -1.237   3.134   0.031  0.00  0.00    +0.000 A 
ATOM     32  C   UNL     1      -1.217   1.751   0.017  0.00  0.00    +0.002 A 
ATOM     33  C   UNL     1      -0.013   1.076   0.008  0.00  0.00    +0.023 A 
ATOM     34  C   UNL     1       1.180   1.788   0.000  0.00  0.00    +0.030 A 
ATOM     35  C   UNL     1       1.157   3.176   0.008  0.00  0.00    +0.023 A 
ATOM     36  C   UNL     1      -0.051   3.845   0.023  0.00  0.00    +0.002 A 
ENDBRANCH  24  34
ENDBRANCH  23  29
ENDBRANCH   1  23
TORSDOF 6
