REMARK  Name = ZINC05519968
REMARK  6 active torsions:
REMARK  status: ('A' for Active; 'I' for Inactive)
REMARK    1  A    between atoms: C_1  and  C_2
REMARK    2  A    between atoms: C_2  and  N_10
REMARK    3  A    between atoms: N_10  and  N_11
REMARK    4  A    between atoms: N_11  and  C_12
REMARK    5  A    between atoms: C_12  and  N_14
REMARK    6  A    between atoms: N_14  and  C_15
REMARK                            x       y       z     vdW  Elec       q    Type
REMARK                         _______ _______ _______ _____ _____    ______ ____
ROOT
ATOM      1  N   UNL     1       0.134  -2.039  -1.151  0.00  0.00    -0.248 N 
ATOM      2  H   UNL     1       0.182  -2.494  -0.295  0.00  0.00    +0.172 HD
ENDROOT
BRANCH   1   3
ATOM      3  N   UNL     1      -0.034  -0.649  -1.196  0.00  0.00    -0.269 N 
ATOM      4  H   UNL     1      -0.160  -0.203  -2.048  0.00  0.00    +0.170 HD
BRANCH   3   6
ATOM      5  C   UNL     1       0.293  -0.608   1.250  0.00  0.00    +0.062 C 
ATOM      6  C   UNL     1      -0.022   0.065  -0.061  0.00  0.00    +0.026 C 
ATOM      7  C   UNL     1      -0.302   1.436  -0.094  0.00  0.00    -0.007 C 
ATOM      8  C   UNL     1      -0.482   2.092  -1.332  0.00  0.00    +0.013 C 
ATOM      9  C   UNL     1      -0.753   3.421  -1.361  0.00  0.00    +0.051 C 
ATOM     10  C   UNL     1      -0.854   4.147  -0.159  0.00  0.00    +0.179 C 
ATOM     11  O   UNL     1      -1.099   5.346  -0.187  0.00  0.00    -0.288 OA
ATOM     12  C   UNL     1      -0.674   3.496   1.077  0.00  0.00    +0.051 C 
ATOM     13  C   UNL     1      -0.409   2.165   1.111  0.00  0.00    +0.013 C 
ENDBRANCH   3   6
ENDBRANCH   1   3
BRANCH   1  14
ATOM     14  C   UNL     1       0.228  -2.744  -2.295  0.00  0.00    +0.151 C 
ATOM     15  S   UNL     1       0.433  -4.443  -2.240  0.00  0.00    -0.017 S 
BRANCH  14  16
ATOM     16  N   UNL     1       0.160  -2.112  -3.484  0.00  0.00    -0.295 N 
ATOM     17  H   UNL     1      -0.023  -1.160  -3.517  0.00  0.00    +0.154 HD
BRANCH  16  18
ATOM     18  C   UNL     1       0.355  -2.829  -4.670  0.00  0.00    +0.051 A 
ATOM     19  C   UNL     1      -0.292  -4.042  -4.864  0.00  0.00    +0.026 A 
ATOM     20  C   UNL     1      -0.098  -4.747  -6.036  0.00  0.00    +0.022 A 
ATOM     21  C   UNL     1       0.740  -4.246  -7.017  0.00  0.00    +0.042 A 
ATOM     22  C   UNL     1       1.386  -3.037  -6.827  0.00  0.00    +0.041 A 
ATOM     23  C   UNL     1       1.192  -2.325  -5.659  0.00  0.00    +0.063 A 
ATOM     24 CL   UNL     1       1.998  -0.805  -5.423  0.00  0.00    -0.082 Cl
ATOM     25 CL   UNL     1       0.981  -5.136  -8.488  0.00  0.00    -0.083 Cl
ENDBRANCH  16  18
ENDBRANCH  14  16
ENDBRANCH   1  14
TORSDOF 5
