REMARK  Name = ZINC16382493
REMARK  7 active torsions:
REMARK  status: ('A' for Active; 'I' for Inactive)
REMARK    1  A    between atoms: C_1  and  N_2
REMARK    2  A    between atoms: C_13  and  C_15
REMARK    3  A    between atoms: C_16  and  C_17
REMARK    4  A    between atoms: C_16  and  N_28
REMARK    5  A    between atoms: N_19  and  C_20
REMARK    6  A    between atoms: C_20  and  C_21
REMARK    7  A    between atoms: C_29  and  C_31
REMARK                            x       y       z     vdW  Elec       q    Type
REMARK                         _______ _______ _______ _____ _____    ______ ____
ROOT
ATOM      1  C   UNL     1      -0.737   8.955  -0.088  0.00  0.00    +0.036 C 
ATOM      2  C   UNL     1      -0.116  10.133   0.154  0.00  0.00    +0.097 C 
ENDROOT
BRANCH   1  15
ATOM      3  C   UNL     1       2.236   2.946   0.064  0.00  0.00    +0.149 C 
ATOM      4  N   UNL     1       2.139   4.216   0.787  0.00  0.00    -0.343 N 
ATOM      5  C   UNL     1       2.818   4.515   1.955  0.00  0.00    +0.050 A 
ATOM      6  C   UNL     1       3.713   3.783   2.730  0.00  0.00    +0.026 A 
ATOM      7  C   UNL     1       4.251   4.338   3.871  0.00  0.00    +0.002 A 
ATOM      8  C   UNL     1       3.905   5.623   4.261  0.00  0.00    +0.001 A 
ATOM      9  C   UNL     1       3.025   6.365   3.502  0.00  0.00    +0.010 A 
ATOM     10  C   UNL     1       2.474   5.817   2.347  0.00  0.00    +0.008 A 
ATOM     11  C   UNL     1       1.524   6.320   1.337  0.00  0.00    +0.008 A 
ATOM     12  C   UNL     1       1.356   5.287   0.399  0.00  0.00    +0.050 A 
ATOM     13  C   UNL     1       0.502   5.475  -0.687  0.00  0.00    +0.027 A 
ATOM     14  C   UNL     1      -0.169   6.652  -0.841  0.00  0.00    +0.010 A 
ATOM     15  C   UNL     1      -0.009   7.690   0.088  0.00  0.00    -0.022 A 
ATOM     16  C   UNL     1       0.842   7.519   1.182  0.00  0.00    +0.018 A 
ENDBRANCH   1  15
BRANCH   2  17
ATOM     17  C   UNL     1       1.343  10.173   0.322  0.00  0.00    +0.259 C 
ATOM     18  O   UNL     1       2.006   9.175   0.115  0.00  0.00    -0.269 OA
ATOM     19  N   UNL     1       1.946  11.315   0.707  0.00  0.00    -0.306 N 
ATOM     20  H   UNL     1       1.416  12.111   0.872  0.00  0.00    +0.149 HD
BRANCH  19  21
ATOM     21  C   UNL     1       3.400  11.355   0.875  0.00  0.00    +0.141 C 
BRANCH  21  22
ATOM     22  C   UNL     1       3.818  12.737   1.306  0.00  0.00    -0.012 A 
ATOM     23  C   UNL     1       4.336  13.623   0.380  0.00  0.00    +0.006 A 
ATOM     24  C   UNL     1       4.716  14.893   0.775  0.00  0.00    +0.000 A 
ATOM     25  C   UNL     1       4.587  15.273   2.098  0.00  0.00    +0.001 A 
ATOM     26  C   UNL     1       4.075  14.386   3.026  0.00  0.00    +0.020 A 
ATOM     27  C   UNL     1       3.690  13.117   2.630  0.00  0.00    +0.046 A 
ATOM     28 CL   UNL     1       3.047  12.002   3.795  0.00  0.00    -0.083 Cl
ENDBRANCH  21  22
ENDBRANCH  19  21
ENDBRANCH   2  17
BRANCH   2  29
ATOM     29  N   UNL     1      -0.863  11.313   0.243  0.00  0.00    -0.277 N 
ATOM     30  C   UNL     1      -0.618  12.332  -0.604  0.00  0.00    +0.248 C 
ATOM     31  O   UNL     1       0.184  12.191  -1.507  0.00  0.00    -0.270 OA
ATOM     32  H   UNL     1      -1.557  11.397   0.915  0.00  0.00    +0.155 HD
BRANCH  30  33
ATOM     33  C   UNL     1      -1.323  13.619  -0.436  0.00  0.00    +0.037 A 
ATOM     34  C   UNL     1      -2.249  13.782   0.597  0.00  0.00    +0.013 A 
ATOM     35  C   UNL     1      -2.900  14.988   0.752  0.00  0.00    +0.001 A 
ATOM     36  C   UNL     1      -2.646  16.032  -0.120  0.00  0.00    +0.000 A 
ATOM     37  C   UNL     1      -1.734  15.876  -1.149  0.00  0.00    +0.001 A 
ATOM     38  C   UNL     1      -1.072  14.677  -1.312  0.00  0.00    +0.013 A 
ENDBRANCH  30  33
ENDBRANCH   2  29
TORSDOF 6
