REMARK  Name = ZINC08761231
REMARK  8 active torsions:
REMARK  status: ('A' for Active; 'I' for Inactive)
REMARK    1  A    between atoms: C_1  and  C_2
REMARK    2  A    between atoms: C_2  and  C_4
REMARK    3  A    between atoms: C_2  and  S_7
REMARK    4  A    between atoms: S_7  and  C_8
REMARK    5  A    between atoms: C_11  and  C_22
REMARK    6  A    between atoms: N_12  and  C_13
REMARK    7  A    between atoms: C_16  and  O_20
REMARK    8  A    between atoms: O_20  and  C_21
REMARK                            x       y       z     vdW  Elec       q    Type
REMARK                         _______ _______ _______ _____ _____    ______ ____
ROOT
ATOM      1  C   UNL     1      -2.924   5.382  -0.875  0.00  0.00    +0.197 A 
ATOM      2  N   UNL     1      -4.129   5.749  -0.498  0.00  0.00    -0.122 NA
ATOM      3  N   UNL     1      -4.441   5.174   0.608  0.00  0.00    -0.128 NA
ATOM      4  C   UNL     1      -3.458   4.399   1.005  0.00  0.00    +0.169 A 
ATOM      5  N   UNL     1      -2.452   4.512   0.070  0.00  0.00    -0.270 N 
ENDROOT
BRANCH   5   6
ATOM      6  C   UNL     1      -1.207   3.866   0.082  0.00  0.00    +0.052 A 
ATOM      7  C   UNL     1      -0.044   4.601   0.270  0.00  0.00    +0.030 A 
ATOM      8  C   UNL     1       1.181   3.965   0.281  0.00  0.00    +0.049 A 
ATOM      9  C   UNL     1       1.252   2.591   0.104  0.00  0.00    +0.138 A 
ATOM     10  C   UNL     1       0.090   1.855  -0.084  0.00  0.00    +0.084 A 
ATOM     11  C   UNL     1      -1.136   2.492  -0.101  0.00  0.00    +0.050 A 
ATOM     12 CL   UNL     1       0.179   0.136  -0.306  0.00  0.00    -0.080 Cl
BRANCH   9  13
ATOM     13  O   UNL     1       2.459   1.966   0.116  0.00  0.00    -0.494 OA
ATOM     14  C   UNL     1       3.612   2.785   0.315  0.00  0.00    +0.277 C 
ENDBRANCH   9  13
ENDBRANCH   5   6
BRANCH   4  15
ATOM     15  C   UNL     1      -3.433   3.566   2.225  0.00  0.00    +0.020 A 
ATOM     16  C   UNL     1      -2.220   3.086   2.722  0.00  0.00    +0.012 A 
ATOM     17  C   UNL     1      -2.204   2.313   3.864  0.00  0.00    +0.016 A 
ATOM     18  C   UNL     1      -3.388   2.005   4.512  0.00  0.00    +0.018 A 
ATOM     19  C   UNL     1      -4.595   2.473   4.021  0.00  0.00    +0.016 A 
ATOM     20  C   UNL     1      -4.624   3.251   2.883  0.00  0.00    +0.012 A 
ATOM     21 BR   UNL     1      -3.357   0.938   6.073  0.00  0.00    -0.050 Br
ENDBRANCH   4  15
BRANCH   1  22
ATOM     22  S   UNL     1      -2.075   5.911  -2.325  0.00  0.00    -0.073 S 
BRANCH  22  24
ATOM     23  C   UNL     1      -3.530   8.212  -2.097  0.00  0.00    +0.029 C 
ATOM     24  C   UNL     1      -3.321   7.019  -3.031  0.00  0.00    +0.137 C 
BRANCH  24  25
ATOM     25  C   UNL     1      -2.851   7.510  -4.377  0.00  0.00    +0.224 C 
ATOM     26  O   UNL     1      -1.673   7.461  -4.663  0.00  0.00    -0.275 OA
ATOM     27  N   UNL     1      -3.739   8.004  -5.261  0.00  0.00    -0.328 N 
ATOM     28  H   UNL     1      -3.396   8.362  -6.243  0.00  0.00    +0.145 HD
ATOM     29  H   UNL     1      -4.807   8.048  -5.002  0.00  0.00    +0.145 HD
ENDBRANCH  24  25
ENDBRANCH  22  24
ENDBRANCH   1  22
TORSDOF 6
