REMARK  Name = ZINC10243942
REMARK  5 active torsions:
REMARK  status: ('A' for Active; 'I' for Inactive)
REMARK    1  A    between atoms: N_13  and  C_28
REMARK    2  A    between atoms: C_14  and  S_16
REMARK    3  A    between atoms: S_16  and  C_17
REMARK    4  A    between atoms: C_17  and  C_18
REMARK    5  A    between atoms: N_20  and  C_21
REMARK                            x       y       z     vdW  Elec       q    Type
REMARK                         _______ _______ _______ _____ _____    ______ ____
ROOT
ATOM      1  C   UNL     1       4.062  -0.795   0.016  0.00  0.00    +0.001 A 
ATOM      2  C   UNL     1       3.222  -1.899   0.024  0.00  0.00    +0.002 A 
ATOM      3  C   UNL     1       1.854  -1.740   0.033  0.00  0.00    +0.026 A 
ATOM      4  C   UNL     1       1.304  -0.460   0.034  0.00  0.00    +0.049 A 
ATOM      5  C   UNL     1       2.161   0.655   0.026  0.00  0.00    +0.026 A 
ATOM      6  C   UNL     1       3.544   0.470   0.017  0.00  0.00    +0.012 A 
ATOM      7  C   UNL     1       1.299   1.845   0.030  0.00  0.00    +0.104 A 
ATOM      8  C   UNL     1      -0.016   1.381   0.041  0.00  0.00    +0.132 A 
ATOM      9  N   UNL     1       0.003  -0.005   0.043  0.00  0.00    -0.349 N 
ATOM     10  H   UNL     1      -0.784  -0.572   0.049  0.00  0.00    +0.166 HD
ATOM     11  C   UNL     1      -1.063   2.326   0.051  0.00  0.00    +0.283 A 
ATOM     12  O   UNL     1      -2.228   1.964   0.066  0.00  0.00    -0.265 OA
ATOM     13  N   UNL     1      -0.749   3.639   0.043  0.00  0.00    -0.251 N 
ATOM     14  C   UNL     1       0.558   4.036   0.033  0.00  0.00    +0.177 A 
ATOM     15  N   UNL     1       1.542   3.166   0.027  0.00  0.00    -0.221 NA
ENDROOT
BRANCH  13  16
ATOM     16  C   UNL     1      -1.770   4.600   0.049  0.00  0.00    +0.087 A 
ATOM     17  C   UNL     1      -2.281   5.080  -1.150  0.00  0.00    +0.029 A 
ATOM     18  C   UNL     1      -3.289   6.023  -1.141  0.00  0.00    +0.002 A 
ATOM     19  C   UNL     1      -3.784   6.499   0.060  0.00  0.00    +0.003 A 
ATOM     20  C   UNL     1      -3.275   6.028   1.256  0.00  0.00    +0.040 A 
ATOM     21  C   UNL     1      -2.268   5.080   1.255  0.00  0.00    +0.147 A 
ATOM     22  F   UNL     1      -1.770   4.620   2.423  0.00  0.00    -0.203 F 
ENDBRANCH  13  16
BRANCH  14  23
ATOM     23  S   UNL     1       0.934   5.758   0.028  0.00  0.00    -0.078 S 
BRANCH  23  24
ATOM     24  C   UNL     1       2.742   5.685   0.015  0.00  0.00    +0.173 C 
BRANCH  24  25
ATOM     25  C   UNL     1       3.301   7.085   0.010  0.00  0.00    +0.227 C 
ATOM     26  O   UNL     1       2.551   8.037   0.014  0.00  0.00    -0.275 OA
ATOM     27  N   UNL     1       4.635   7.277   0.000  0.00  0.00    -0.285 N 
ATOM     28  H   UNL     1       5.235   6.518   0.065  0.00  0.00    +0.155 HD
BRANCH  27  29
ATOM     29  C   UNL     1       5.154   8.573  -0.103  0.00  0.00    +0.036 A 
ATOM     30  C   UNL     1       6.332   8.797  -0.804  0.00  0.00    +0.023 A 
ATOM     31  C   UNL     1       6.840  10.077  -0.909  0.00  0.00    +0.005 A 
ATOM     32  C   UNL     1       6.183  11.135  -0.307  0.00  0.00    +0.038 A 
ATOM     33  C   UNL     1       5.012  10.915   0.398  0.00  0.00    +0.125 A 
ATOM     34  C   UNL     1       4.496   9.635   0.501  0.00  0.00    +0.061 A 
ATOM     35  F   UNL     1       4.372  11.950   0.984  0.00  0.00    -0.205 F 
ENDBRANCH  27  29
ENDBRANCH  24  25
ENDBRANCH  23  24
ENDBRANCH  14  23
TORSDOF 5
