REMARK  Name = ZINC09345006
REMARK  8 active torsions:
REMARK  status: ('A' for Active; 'I' for Inactive)
REMARK    1  A    between atoms: C_1  and  O_2
REMARK    2  A    between atoms: O_2  and  C_3
REMARK    3  A    between atoms: C_8  and  C_9
REMARK    4  A    between atoms: C_26  and  C_28
REMARK    5  A    between atoms: C_31  and  O_36
REMARK    6  A    between atoms: C_32  and  O_34
REMARK    7  A    between atoms: O_34  and  C_35
REMARK    8  A    between atoms: O_36  and  C_37
REMARK                            x       y       z     vdW  Elec       q    Type
REMARK                         _______ _______ _______ _____ _____    ______ ____
ROOT
ATOM      1  C   UNL     1       0.051  -2.828  -0.033  0.00  0.00    +0.238 C 
ATOM      2  C   UNL     1      -1.434  -2.904  -0.235  0.00  0.00    +0.027 C 
ATOM      3  C   UNL     1      -1.977  -3.888  -0.981  0.00  0.00    +0.083 C 
ATOM      4  C   UNL     1      -1.052  -4.887  -1.575  0.00  0.00    +0.042 A 
ATOM      5  C   UNL     1      -1.455  -5.728  -2.602  0.00  0.00    +0.013 A 
ATOM      6  C   UNL     1      -0.560  -6.642  -3.126  0.00  0.00    +0.001 A 
ATOM      7  C   UNL     1       0.730  -6.717  -2.630  0.00  0.00    +0.004 A 
ATOM      8  C   UNL     1       1.138  -5.883  -1.606  0.00  0.00    +0.046 A 
ATOM      9  C   UNL     1       0.253  -4.963  -1.071  0.00  0.00    +0.131 A 
ATOM     10  O   UNL     1       0.622  -4.138  -0.065  0.00  0.00    -0.479 OA
ATOM     11  N   UNL     1      -3.316  -3.970  -1.181  0.00  0.00    -0.213 NA
ATOM     12  C   UNL     1      -4.191  -3.130  -0.680  0.00  0.00    +0.237 C 
ATOM     13  N   UNL     1      -5.538  -3.067  -0.776  0.00  0.00    -0.205 NA
ATOM     14  C   UNL     1      -5.994  -2.048  -0.101  0.00  0.00    +0.203 C 
ATOM     15  N   UNL     1      -4.955  -1.385   0.477  0.00  0.00    -0.251 N 
ATOM     16  N   UNL     1      -3.795  -2.070   0.111  0.00  0.00    -0.208 N 
ATOM     17  C   UNL     1      -2.365  -1.886   0.386  0.00  0.00    +0.159 C 
ATOM     18  H   UNL     1      -5.010  -0.592   1.034  0.00  0.00    +0.171 HD
ENDROOT
BRANCH   1  24
ATOM     19  C   UNL     1       0.663  -0.608  -1.024  0.00  0.00    +0.127 A 
ATOM     20  C   UNL     1       1.230   0.160  -2.031  0.00  0.00    +0.046 A 
ATOM     21  C   UNL     1       1.787  -0.455  -3.136  0.00  0.00    +0.004 A 
ATOM     22  C   UNL     1       1.778  -1.834  -3.240  0.00  0.00    +0.001 A 
ATOM     23  C   UNL     1       1.213  -2.601  -2.238  0.00  0.00    +0.011 A 
ATOM     24  C   UNL     1       0.661  -1.991  -1.128  0.00  0.00    +0.039 A 
BRANCH  19  26
ATOM     25  C   UNL     1       0.154   1.422   0.103  0.00  0.00    +0.277 C 
ATOM     26  O   UNL     1       0.116  -0.006   0.064  0.00  0.00    -0.495 OA
ENDBRANCH  19  26
ENDBRANCH   1  24
BRANCH  17  27
ATOM     27  C   UNL     1      -2.166  -1.917   1.879  0.00  0.00    -0.017 A 
ATOM     28  C   UNL     1      -2.765  -2.908   2.635  0.00  0.00    +0.009 A 
ATOM     29  C   UNL     1      -2.586  -2.940   4.005  0.00  0.00    +0.050 A 
ATOM     30  C   UNL     1      -1.803  -1.979   4.624  0.00  0.00    +0.162 A 
ATOM     31  C   UNL     1      -1.200  -0.982   3.864  0.00  0.00    +0.162 A 
ATOM     32  C   UNL     1      -1.380  -0.958   2.490  0.00  0.00    +0.055 A 
BRANCH  31  33
ATOM     33  O   UNL     1      -0.431  -0.036   4.467  0.00  0.00    -0.491 OA
ATOM     34  C   UNL     1       0.157   0.957   3.624  0.00  0.00    +0.277 C 
ENDBRANCH  31  33
BRANCH  30  35
ATOM     35  O   UNL     1      -1.626  -2.009   5.972  0.00  0.00    -0.491 OA
ATOM     36  C   UNL     1      -2.276  -3.061   6.689  0.00  0.00    +0.277 C 
ENDBRANCH  30  35
ENDBRANCH  17  27
TORSDOF 5
