REMARK  Name = ZINC10333828
REMARK  9 active torsions:
REMARK  status: ('A' for Active; 'I' for Inactive)
REMARK    1  A    between atoms: C_1  and  N_52
REMARK    2  A    between atoms: C_2  and  N_52
REMARK    3  A    between atoms: C_3  and  C_5
REMARK    4  A    between atoms: C_3  and  C_21
REMARK    5  A    between atoms: C_3  and  N_52
REMARK    6  A    between atoms: C_5  and  N_6
REMARK    7  A    between atoms: C_7  and  C_9
REMARK    8  A    between atoms: N_11  and  C_12
REMARK    9  A    between atoms: C_16  and  N_18
REMARK                            x       y       z     vdW  Elec       q    Type
REMARK                         _______ _______ _______ _____ _____    ______ ____
ROOT
ATOM      1  N   UNL     1       2.613   8.028   0.030  0.00  0.00    -0.309 N 
ATOM      2  C   UNL     1       1.598   7.144   0.103  0.00  0.00    +0.299 C 
ATOM      3  O   UNL     1       0.485   7.521   0.407  0.00  0.00    -0.265 OA
ATOM      4  H   UNL     1       3.502   7.726  -0.212  0.00  0.00    +0.149 HD
ENDROOT
BRANCH   2   5
ATOM      5  C   UNL     1       1.843   5.700  -0.188  0.00  0.00    +0.303 C 
ATOM      6  O   UNL     1       2.956   5.322  -0.491  0.00  0.00    -0.265 OA
ATOM      7  N   UNL     1       0.828   4.816  -0.115  0.00  0.00    -0.278 N 
ATOM      8  H   UNL     1      -0.072   5.125   0.072  0.00  0.00    +0.155 HD
BRANCH   7   9
ATOM      9  C   UNL     1       1.072   3.454  -0.308  0.00  0.00    +0.036 A 
ATOM     10  C   UNL     1       0.156   2.673  -1.002  0.00  0.00    +0.023 A 
ATOM     11  C   UNL     1       0.401   1.327  -1.190  0.00  0.00    +0.004 A 
ATOM     12  C   UNL     1       1.557   0.756  -0.690  0.00  0.00    +0.033 A 
ATOM     13  C   UNL     1       2.468   1.529   0.006  0.00  0.00    +0.128 A 
ATOM     14  C   UNL     1       2.232   2.877   0.194  0.00  0.00    +0.056 A 
BRANCH  13  15
ATOM     15  N   UNL     1       3.701   0.912   0.546  0.00  0.00    +0.056 N 
ATOM     16  O   UNL     1       3.912  -0.276   0.377  0.00  0.00    -0.126 OA
ATOM     17  O   UNL     1       4.504   1.592   1.158  0.00  0.00    -0.126 OA
ENDBRANCH  13  15
ENDBRANCH   7   9
ENDBRANCH   2   5
BRANCH   1  18
ATOM     18  C   UNL     1       2.373   9.444   0.316  0.00  0.00    +0.094 C 
BRANCH  18  19
ATOM     19  C   UNL     1       3.706  10.194   0.334  0.00  0.00    -0.020 C 
BRANCH  19  20
ATOM     20  C   UNL     1       3.448  11.677   0.414  0.00  0.00    -0.052 A 
ATOM     21  C   UNL     1       3.559  12.327   1.604  0.00  0.00    +0.003 A 
ATOM     22  C   UNL     1       3.324  13.698   1.698  0.00  0.00    +0.001 A 
ATOM     23  C   UNL     1       2.977  14.425   0.601  0.00  0.00    +0.008 A 
ATOM     24  C   UNL     1       2.852  13.789  -0.645  0.00  0.00    -0.018 A 
ATOM     25  C   UNL     1       3.096  12.396  -0.741  0.00  0.00    -0.016 A 
ATOM     26  C   UNL     1       2.977  11.759  -1.989  0.00  0.00    +0.009 A 
ATOM     27  C   UNL     1       2.636  12.488  -3.086  0.00  0.00    +0.001 A 
ATOM     28  C   UNL     1       2.400  13.859  -2.993  0.00  0.00    +0.001 A 
ATOM     29  C   UNL     1       2.496  14.507  -1.800  0.00  0.00    +0.008 A 
ENDBRANCH  19  20
BRANCH  19  32
ATOM     30  C   UNL     1       3.615   9.437   2.632  0.00  0.00    -0.096 C 
ATOM     31  C   UNL     1       5.367   8.641   1.164  0.00  0.00    -0.096 C 
ATOM     32  N   UNL     1       4.508   9.792   1.509  0.00  0.00    +0.382 N 
ATOM     33  H   UNL     1       5.103  10.580   1.792  0.00  0.00    -0.082 HD
ENDBRANCH  19  32
ENDBRANCH  18  19
ENDBRANCH   1  18
TORSDOF 7
