REMARK  Name = ZINC35509699
REMARK  7 active torsions:
REMARK  status: ('A' for Active; 'I' for Inactive)
REMARK    1  A    between atoms: C_1  and  C_2
REMARK    2  A    between atoms: C_2  and  N_3
REMARK    3  A    between atoms: N_3  and  C_4
REMARK    4  A    between atoms: C_4  and  C_6
REMARK    5  A    between atoms: C_4  and  C_12
REMARK    6  A    between atoms: C_17  and  O_18
REMARK    7  A    between atoms: O_18  and  C_19
REMARK                            x       y       z     vdW  Elec       q    Type
REMARK                         _______ _______ _______ _____ _____    ______ ____
ROOT
ATOM      1  C   UNL     1       0.733  -1.960   1.184  0.00  0.00    +0.030 C 
ENDROOT
BRANCH   1   2
ATOM      2  C   UNL     1       1.543  -2.445   0.010  0.00  0.00    -0.010 A 
ATOM      3  C   UNL     1       2.526  -1.638  -0.532  0.00  0.00    +0.026 A 
ATOM      4  C   UNL     1       3.271  -2.083  -1.609  0.00  0.00    +0.042 A 
ATOM      5  C   UNL     1       3.033  -3.335  -2.148  0.00  0.00    +0.039 A 
ATOM      6  C   UNL     1       2.051  -4.144  -1.610  0.00  0.00    +0.061 A 
ATOM      7  C   UNL     1       1.306  -3.702  -0.524  0.00  0.00    +0.136 A 
ATOM      8 BR   UNL     1       1.725  -5.855  -2.346  0.00  0.00    -0.046 Br
ATOM      9 CL   UNL     1       4.506  -1.068  -2.287  0.00  0.00    -0.083 Cl
BRANCH   7  10
ATOM     10  O   UNL     1       0.343  -4.498   0.010  0.00  0.00    -0.494 OA
ATOM     11  C   UNL     1      -0.973  -4.378  -0.533  0.00  0.00    +0.277 C 
ENDBRANCH   7  10
ENDBRANCH   1   2
BRANCH   1  12
ATOM     12  C   UNL     1       1.352  -2.461   2.463  0.00  0.00    +0.097 A 
ATOM     13  C   UNL     1       0.936  -3.524   3.175  0.00  0.00    +0.044 A 
ATOM     14  C   UNL     1       1.797  -3.631   4.291  0.00  0.00    +0.057 A 
ATOM     15  C   UNL     1       2.688  -2.627   4.196  0.00  0.00    +0.170 A 
ATOM     16  O   UNL     1       2.417  -1.924   3.083  0.00  0.00    -0.454 OA
ATOM     17 BR   UNL     1       4.087  -2.269   5.416  0.00  0.00    -0.008 Br
ENDBRANCH   1  12
BRANCH   1  18
ATOM     18  N   UNL     1       0.713  -0.491   1.192  0.00  0.00    +0.388 N 
ATOM     19  H   UNL     1       1.659  -0.141   1.185  0.00  0.00    -0.084 HD
ATOM     20  H   UNL     1       0.240  -0.165   2.022  0.00  0.00    -0.084 HD
BRANCH  18  22
ATOM     21  C   UNL     1      -0.019   1.526   0.010  0.00  0.00    -0.017 C 
ATOM     22  C   UNL     1       0.002  -0.004   0.002  0.00  0.00    -0.085 C 
ENDBRANCH  18  22
ENDBRANCH   1  18
TORSDOF 5
