REMARK  Name = ZINC06765184
REMARK  10 active torsions:
REMARK  status: ('A' for Active; 'I' for Inactive)
REMARK    1  A    between atoms: C_1  and  C_2
REMARK    2  A    between atoms: C_7  and  C_8
REMARK    3  A    between atoms: C_11  and  C_14
REMARK    4  A    between atoms: C_14  and  N_15
REMARK    5  A    between atoms: N_15  and  C_16
REMARK    6  A    between atoms: C_16  and  C_17
REMARK    7  A    between atoms: N_25  and  C_26
REMARK    8  A    between atoms: C_26  and  C_27
REMARK    9  A    between atoms: C_26  and  C_28
REMARK   10  A    between atoms: C_26  and  C_29
REMARK                            x       y       z     vdW  Elec       q    Type
REMARK                         _______ _______ _______ _____ _____    ______ ____
ROOT
ATOM      1  N   UNL     1      -1.583   1.122   3.492  0.00  0.00    -0.278 N 
ATOM      2  C   UNL     1      -0.949   1.825   4.451  0.00  0.00    +0.303 C 
ATOM      3  O   UNL     1       0.250   2.014   4.375  0.00  0.00    -0.253 OA
ATOM      4  N   UNL     1      -1.643   2.318   5.496  0.00  0.00    -0.294 N 
ATOM      5  H   UNL     1      -2.600   2.168   5.557  0.00  0.00    +0.151 HD
ENDROOT
BRANCH   4   6
ATOM      6  C   UNL     1      -0.954   3.082   6.539  0.00  0.00    +0.028 C 
ATOM      7  C   UNL     1      -0.296   4.315   5.917  0.00  0.00    +0.031 C 
ATOM      8  C   UNL     1      -1.965   3.523   7.599  0.00  0.00    +0.031 C 
ATOM      9  C   UNL     1       0.118   2.205   7.189  0.00  0.00    +0.031 C 
ENDBRANCH   4   6
BRANCH   1  10
ATOM     10  C   UNL     1      -0.827   0.586   2.357  0.00  0.00    +0.157 C 
BRANCH  10  14
ATOM     11  C   UNL     1      -0.810   1.620  -1.166  0.00  0.00    +0.091 C 
ATOM     12  N   UNL     1      -1.965   2.001  -0.732  0.00  0.00    -0.089 NA
ATOM     13  O   UNL     1      -2.122   1.800   0.659  0.00  0.00    -0.388 OA
ATOM     14  C   UNL     1      -0.803   1.618   1.227  0.00  0.00    +0.227 C 
ATOM     15  C   UNL     1      -0.013   1.086   0.008  0.00  0.00    +0.108 C 
BRANCH  11  22
ATOM     16  C   UNL     1      -2.569   2.683  -3.202  0.00  0.00    +0.044 C 
ATOM     17  C   UNL     1      -1.186   2.203  -3.558  0.00  0.00    -0.041 A 
ATOM     18  C   UNL     1      -0.744   2.271  -4.863  0.00  0.00    +0.004 A 
ATOM     19  C   UNL     1       0.524   1.826  -5.192  0.00  0.00    +0.000 A 
ATOM     20  C   UNL     1       1.359   1.313  -4.215  0.00  0.00    +0.001 A 
ATOM     21  C   UNL     1       0.932   1.244  -2.905  0.00  0.00    +0.010 A 
ATOM     22  C   UNL     1      -0.346   1.692  -2.566  0.00  0.00    +0.002 A 
ENDBRANCH  11  22
ENDBRANCH  10  14
ENDBRANCH   1  10
BRANCH   1  23
ATOM     23  C   UNL     1      -3.027   0.895   3.584  0.00  0.00    +0.144 C 
BRANCH  23  24
ATOM     24  C   UNL     1      -3.287  -0.383   4.339  0.00  0.00    -0.030 A 
ATOM     25  C   UNL     1      -3.381  -1.582   3.657  0.00  0.00    +0.005 A 
ATOM     26  C   UNL     1      -3.615  -2.755   4.350  0.00  0.00    +0.000 A 
ATOM     27  C   UNL     1      -3.765  -2.728   5.724  0.00  0.00    +0.000 A 
ATOM     28  C   UNL     1      -3.676  -1.529   6.405  0.00  0.00    +0.000 A 
ATOM     29  C   UNL     1      -3.437  -0.356   5.713  0.00  0.00    +0.005 A 
ENDBRANCH  23  24
ENDBRANCH   1  23
TORSDOF 6
