REMARK  Name = ZINC67011239
REMARK  5 active torsions:
REMARK  status: ('A' for Active; 'I' for Inactive)
REMARK    1  A    between atoms: C_6  and  C_7
REMARK    2  A    between atoms: C_7  and  N_8
REMARK    3  A    between atoms: N_8  and  C_9
REMARK    4  A    between atoms: C_9  and  C_10
REMARK    5  A    between atoms: C_15  and  O_16
REMARK                            x       y       z     vdW  Elec       q    Type
REMARK                         _______ _______ _______ _____ _____    ______ ____
ROOT
ATOM      1  N   UNL     1      -1.728  -1.015  -1.372  0.00  0.00    +0.384 N 
ATOM      2  H   UNL     1      -1.864  -0.132  -1.842  0.00  0.00    -0.085 HD
ATOM      3  H   UNL     1      -1.024  -1.550  -1.857  0.00  0.00    -0.085 HD
ENDROOT
BRANCH   1   4
ATOM      4  C   UNL     1      -1.294  -0.773   0.010  0.00  0.00    -0.046 C 
BRANCH   4  10
ATOM      5  C   UNL     1      -0.017   1.378   0.010  0.00  0.00    +0.005 A 
ATOM      6  C   UNL     1       1.170   2.091   0.002  0.00  0.00    +0.049 A 
ATOM      7  C   UNL     1       2.377   1.413  -0.013  0.00  0.00    +0.162 A 
ATOM      8  C   UNL     1       2.396   0.025  -0.020  0.00  0.00    +0.162 A 
ATOM      9  C   UNL     1       1.207  -0.684  -0.013  0.00  0.00    +0.051 A 
ATOM     10  C   UNL     1       0.002  -0.004   0.002  0.00  0.00    -0.061 A 
ATOM     11  O   UNL     1       3.591  -0.632  -0.034  0.00  0.00    -0.488 OA
ATOM     12  C   UNL     1       4.358  -0.510  -1.234  0.00  0.00    +0.232 C 
ATOM     13  C   UNL     1       5.186   0.764  -1.217  0.00  0.00    +0.082 C 
ATOM     14  C   UNL     1       4.323   2.016  -1.220  0.00  0.00    +0.232 C 
ATOM     15  O   UNL     1       3.554   2.104  -0.019  0.00  0.00    -0.488 OA
ENDBRANCH   4  10
ENDBRANCH   1   4
BRANCH   1  16
ATOM     16  C   UNL     1      -2.992  -1.764  -1.364  0.00  0.00    -0.043 C 
BRANCH  16  17
ATOM     17  C   UNL     1      -3.438  -2.013  -2.782  0.00  0.00    -0.022 A 
ATOM     18  C   UNL     1      -4.407  -1.210  -3.353  0.00  0.00    +0.025 A 
ATOM     19  C   UNL     1      -4.816  -1.438  -4.655  0.00  0.00    +0.041 A 
ATOM     20  C   UNL     1      -4.256  -2.470  -5.387  0.00  0.00    +0.023 A 
ATOM     21  C   UNL     1      -3.287  -3.275  -4.820  0.00  0.00    +0.047 A 
ATOM     22  C   UNL     1      -2.871  -3.044  -3.517  0.00  0.00    +0.118 A 
ATOM     23 CL   UNL     1      -6.034  -0.429  -5.370  0.00  0.00    -0.084 Cl
BRANCH  22  24
ATOM     24  O   UNL     1      -1.913  -3.831  -2.959  0.00  0.00    -0.507 OA
ATOM     25  H   UNL     1      -2.260  -4.611  -2.504  0.00  0.00    +0.292 HD
ENDBRANCH  22  24
ENDBRANCH  16  17
ENDBRANCH   1  16
TORSDOF 5
