REMARK  Name = ZINC66796383
REMARK  3 active torsions:
REMARK  status: ('A' for Active; 'I' for Inactive)
REMARK    1  A    between atoms: C_3  and  O_12
REMARK    2  A    between atoms: O_12  and  C_13
REMARK    3  A    between atoms: C_17  and  C_19
REMARK                            x       y       z     vdW  Elec       q    Type
REMARK                         _______ _______ _______ _____ _____    ______ ____
ROOT
ATOM      1  C   UNL     1       3.461   3.469  -0.118  0.00  0.00    +0.227 A 
ATOM      2  C   UNL     1       4.620   4.236  -0.241  0.00  0.00    +0.036 A 
ATOM      3  C   UNL     1       4.498   5.609  -0.336  0.00  0.00    +0.052 A 
ATOM      4  N   UNL     1       3.291   6.153  -0.308  0.00  0.00    -0.232 NA
ATOM      5  C   UNL     1       2.207   5.400  -0.191  0.00  0.00    +0.164 A 
ATOM      6  N   UNL     1       2.283   4.079  -0.102  0.00  0.00    -0.193 NA
ATOM      7  C   UNL     1       5.869   6.235  -0.461  0.00  0.00    +0.056 C 
ATOM      8  C   UNL     1       6.856   5.142   0.003  0.00  0.00    +0.011 C 
ATOM      9  C   UNL     1       6.077   3.843  -0.294  0.00  0.00    +0.043 C 
ENDROOT
BRANCH   5  10
ATOM     10  C   UNL     1       0.874   6.051  -0.164  0.00  0.00    +0.022 A 
ATOM     11  C   UNL     1       0.750   7.439  -0.267  0.00  0.00    +0.031 A 
ATOM     12  C   UNL     1      -0.509   8.003  -0.238  0.00  0.00    +0.111 A 
ATOM     13  N   UNL     1      -1.586   7.250  -0.116  0.00  0.00    -0.263 NA
ATOM     14  C   UNL     1      -1.513   5.937  -0.016  0.00  0.00    +0.111 A 
ATOM     15  C   UNL     1      -0.293   5.291  -0.042  0.00  0.00    +0.031 A 
ENDBRANCH   5  10
BRANCH   1  16
ATOM     16  O   UNL     1       3.537   2.119  -0.021  0.00  0.00    -0.438 OA
BRANCH  16  19
ATOM     17  C   UNL     1       0.513   0.505  -1.208  0.00  0.00    +0.015 A 
ATOM     18  C   UNL     1       1.681   1.212  -1.202  0.00  0.00    +0.047 A 
ATOM     19  C   UNL     1       2.377   1.414  -0.011  0.00  0.00    +0.134 A 
ATOM     20  C   UNL     1       1.894   0.901   1.182  0.00  0.00    +0.093 A 
ATOM     21  C   UNL     1       0.709   0.182   1.193  0.00  0.00    +0.143 A 
ATOM     22  C   UNL     1       0.011  -0.019  -0.012  0.00  0.00    +0.018 A 
ATOM     23  C   UNL     1      -1.239  -0.782   0.011  0.00  0.00    +0.018 A 
ATOM     24  C   UNL     1      -1.674  -1.266   1.203  0.00  0.00    +0.092 A 
ATOM     25  C   UNL     1      -0.923  -1.026   2.373  0.00  0.00    +0.337 A 
ATOM     26  O   UNL     1      -1.325  -1.465   3.436  0.00  0.00    -0.245 OA
ATOM     27  O   UNL     1       0.222  -0.326   2.345  0.00  0.00    -0.422 OA
ENDBRANCH  16  19
ENDBRANCH   1  16
TORSDOF 3
