REMARK  Name = ZINC37866169
REMARK  10 active torsions:
REMARK  status: ('A' for Active; 'I' for Inactive)
REMARK    1  A    between atoms: C_1  and  C_2
REMARK    2  A    between atoms: C_2  and  C_3
REMARK    3  A    between atoms: C_3  and  C_28
REMARK    4  A    between atoms: N_6  and  C_10
REMARK    5  A    between atoms: C_10  and  C_11
REMARK    6  A    between atoms: C_13  and  O_14
REMARK    7  A    between atoms: C_23  and  O_25
REMARK    8  A    between atoms: O_25  and  C_26
REMARK    9  A    between atoms: C_26  and  C_27
REMARK   10  A    between atoms: C_28  and  C_29
REMARK                            x       y       z     vdW  Elec       q    Type
REMARK                         _______ _______ _______ _____ _____    ______ ____
ROOT
ATOM      1  C   UNL     1       4.401   0.624  -3.745  0.00  0.00    -0.012 A 
ATOM      2  C   UNL     1       5.160  -0.402  -3.216  0.00  0.00    +0.093 A 
ATOM      3  C   UNL     1       5.743  -1.336  -4.059  0.00  0.00    +0.285 A 
ATOM      4  O   UNL     1       5.587  -1.270  -5.386  0.00  0.00    -0.425 OA
ATOM      5  C   UNL     1       4.856  -0.289  -5.955  0.00  0.00    +0.141 A 
ATOM      6  C   UNL     1       4.235   0.687  -5.144  0.00  0.00    +0.022 A 
ATOM      7  C   UNL     1       3.467   1.708  -5.732  0.00  0.00    +0.014 A 
ATOM      8  C   UNL     1       3.319   1.753  -7.082  0.00  0.00    +0.024 A 
ATOM      9  C   UNL     1       3.929   0.782  -7.897  0.00  0.00    +0.040 A 
ATOM     10  C   UNL     1       4.703  -0.232  -7.328  0.00  0.00    +0.070 A 
ATOM     11  N   UNL     1       3.773   0.838  -9.246  0.00  0.00    -0.251 N 
ATOM     12  C   UNL     1       4.066  -0.219  -9.991  0.00  0.00    +0.405 C 
ATOM     13  O   UNL     1       4.356  -1.278  -9.460  0.00  0.00    -0.226 OA
ATOM     14  H   UNL     1       3.447   1.650  -9.664  0.00  0.00    +0.158 HD
ENDROOT
BRANCH   3  15
ATOM     15  O   UNL     1       6.481  -2.331  -3.531  0.00  0.00    -0.480 OA
ATOM     16  H   UNL     1       6.851  -2.938  -4.187  0.00  0.00    +0.295 HD
ENDBRANCH   3  15
BRANCH   1  17
ATOM     17  C   UNL     1       3.759   1.649  -2.846  0.00  0.00    +0.154 C 
BRANCH  17  21
ATOM     18  C   UNL     1       0.843   0.114  -1.132  0.00  0.00    +0.112 C 
ATOM     19  C   UNL     1       2.324   0.421  -1.229  0.00  0.00    +0.247 C 
ATOM     20  O   UNL     1       3.193   0.090  -0.450  0.00  0.00    -0.273 OA
ATOM     21  N   UNL     1       2.475   1.137  -2.361  0.00  0.00    -0.220 N 
ATOM     22  C   UNL     1       1.307   1.323  -2.986  0.00  0.00    +0.310 C 
ATOM     23  O   UNL     1       1.189   1.939  -4.027  0.00  0.00    -0.252 OA
ATOM     24  N   UNL     1       0.278   0.753  -2.333  0.00  0.00    -0.285 N 
ATOM     25  H   UNL     1      -0.654   0.760  -2.602  0.00  0.00    +0.151 HD
BRANCH  18  27
ATOM     26  C   UNL     1       0.441   2.247   0.105  0.00  0.00    +0.006 C 
ATOM     27  C   UNL     1       0.247   0.730   0.136  0.00  0.00    +0.032 C 
ENDBRANCH  18  27
BRANCH  18  28
ATOM     28  C   UNL     1       0.600  -1.396  -1.161  0.00  0.00    +0.032 C 
ATOM     29  C   UNL     1       1.204  -1.986  -2.437  0.00  0.00    +0.006 C 
ENDBRANCH  18  28
ENDBRANCH  17  21
ENDBRANCH   1  17
BRANCH  12  30
ATOM     30  O   UNL     1       4.046  -0.122 -11.339  0.00  0.00    -0.450 OA
BRANCH  30  31
ATOM     31  C   UNL     1       4.372  -1.300 -12.080  0.00  0.00    +0.230 C 
ATOM     32  C   UNL     1       4.296  -0.999 -13.578  0.00  0.00    +0.048 C 
ENDBRANCH  30  31
ENDBRANCH  12  30
TORSDOF 7
