REMARK  Name = ZINC39468293
REMARK  4 active torsions:
REMARK  status: ('A' for Active; 'I' for Inactive)
REMARK    1  A    between atoms: C_1  and  S_2
REMARK    2  A    between atoms: S_2  and  P_3
REMARK    3  A    between atoms: C_12  and  C_21
REMARK    4  A    between atoms: C_26  and  O_27
REMARK                            x       y       z     vdW  Elec       q    Type
REMARK                         _______ _______ _______ _____ _____    ______ ____
ROOT
ATOM      1  P   UNL     1       1.020  -0.493  -1.792  0.00  0.00    +0.314 P 
ATOM      2  O   UNL     1       2.403   0.033  -1.756  0.00  0.00    -0.262 OA
ATOM      3  N   UNL     1       1.032  -2.128  -2.016  0.00  0.00    -0.283 NA
ATOM      4  N   UNL     1       1.256  -2.601  -3.292  0.00  0.00    +0.398 N 
ATOM      5  C   UNL     1       1.098  -4.063  -3.218  0.00  0.00    -0.046 C 
ATOM      6  C   UNL     1       1.343  -4.706  -4.576  0.00  0.00    +0.006 C 
ATOM      7  C   UNL     1       2.741  -4.417  -5.053  0.00  0.00    -0.004 C 
ATOM      8  C   UNL     1       3.021  -4.488  -6.351  0.00  0.00    +0.045 C 
ATOM      9  C   UNL     1       1.954  -4.865  -7.305  0.00  0.00    -0.000 C 
ATOM     10  C   UNL     1       0.668  -4.707  -6.955  0.00  0.00    -0.013 C 
ATOM     11  C   UNL     1       0.343  -4.146  -5.592  0.00  0.00    +0.016 C 
ATOM     12  C   UNL     1       0.487  -2.624  -5.628  0.00  0.00    -0.003 C 
ATOM     13  C   UNL     1       0.285  -2.031  -4.228  0.00  0.00    -0.020 C 
ATOM     14  C   UNL     1       0.452  -0.511  -4.355  0.00  0.00    +0.157 C 
ATOM     15  O   UNL     1       0.221   0.107  -3.076  0.00  0.00    -0.312 OA
ATOM     16 CL   UNL     1       4.624  -4.143  -6.920  0.00  0.00    -0.083 Cl
ATOM     17  H   UNL     1       0.887  -2.737  -1.274  0.00  0.00    +0.112 HD
ATOM     18  H   UNL     1       2.191  -2.362  -3.584  0.00  0.00    -0.055 HD
ENDROOT
BRANCH   9  19
ATOM     19  C   UNL     1       2.304  -5.412  -8.638  0.00  0.00    +0.025 A 
ATOM     20  C   UNL     1       2.184  -4.615  -9.775  0.00  0.00    +0.012 A 
ATOM     21  C   UNL     1       2.511  -5.128 -11.013  0.00  0.00    +0.001 A 
ATOM     22  C   UNL     1       2.959  -6.433 -11.131  0.00  0.00    +0.004 A 
ATOM     23  C   UNL     1       3.082  -7.231 -10.010  0.00  0.00    +0.046 A 
ATOM     24  C   UNL     1       2.762  -6.727  -8.760  0.00  0.00    +0.125 A 
BRANCH  24  25
ATOM     25  O   UNL     1       2.887  -7.510  -7.657  0.00  0.00    -0.506 OA
ATOM     26  H   UNL     1       2.092  -8.016  -7.441  0.00  0.00    +0.292 HD
ENDBRANCH  24  25
ENDBRANCH   9  19
BRANCH   1  28
ATOM     27  C   UNL     1      -0.022   1.810   0.012  0.00  0.00    +0.096 C 
ATOM     28  S   UNL     1       0.002  -0.004   0.002  0.00  0.00    -0.059 S 
ENDBRANCH   1  28
TORSDOF 3
