REMARK  Name = ZINC55802351
REMARK  6 active torsions:
REMARK  status: ('A' for Active; 'I' for Inactive)
REMARK    1  A    between atoms: C_1  and  C_2
REMARK    2  A    between atoms: C_2  and  C_4
REMARK    3  A    between atoms: C_2  and  N_10
REMARK    4  A    between atoms: C_14  and  C_15
REMARK    5  A    between atoms: C_24  and  C_25
REMARK    6  A    between atoms: C_24  and  C_27
REMARK                            x       y       z     vdW  Elec       q    Type
REMARK                         _______ _______ _______ _____ _____    ______ ____
ROOT
ATOM      1  N   UNL     1       1.470   0.162  -1.284  0.00  0.00    -0.293 N 
ATOM      2  C   UNL     1       1.075   0.044  -2.540  0.00  0.00    +0.267 A 
ATOM      3  O   UNL     1       0.031   0.536  -2.928  0.00  0.00    -0.266 OA
ATOM      4  C   UNL     1       1.958  -0.711  -3.450  0.00  0.00    +0.079 A 
ATOM      5  C   UNL     1       1.805  -0.984  -4.771  0.00  0.00    +0.030 C 
ATOM      6  S   UNL     1       3.285  -1.168  -2.343  0.00  0.00    -0.064 S 
ATOM      7  C   UNL     1       2.651  -0.394  -0.864  0.00  0.00    +0.112 A 
ATOM      8  C   UNL     1       3.220  -0.364   0.412  0.00  0.00    +0.158 C 
ENDROOT
BRANCH   5   9
ATOM      9  C   UNL     1       0.574  -0.584  -5.466  0.00  0.00    -0.005 A 
ATOM     10  C   UNL     1      -0.669  -0.738  -4.840  0.00  0.00    +0.009 A 
ATOM     11  C   UNL     1      -1.819  -0.360  -5.499  0.00  0.00    +0.001 A 
ATOM     12  C   UNL     1      -1.748   0.170  -6.776  0.00  0.00    +0.001 A 
ATOM     13  C   UNL     1      -0.525   0.325  -7.403  0.00  0.00    +0.020 A 
ATOM     14  C   UNL     1       0.638  -0.042  -6.755  0.00  0.00    +0.048 A 
ATOM     15 CL   UNL     1       2.173   0.161  -7.540  0.00  0.00    -0.083 Cl
ENDBRANCH   5   9
BRANCH   1  17
ATOM     16  C   UNL     1      -0.049   2.064  -1.047  0.00  0.00    +0.036 C 
ATOM     17  C   UNL     1       0.638   0.900  -0.330  0.00  0.00    +0.118 C 
BRANCH  17  18
ATOM     18  C   UNL     1      -0.405  -0.022   0.246  0.00  0.00    -0.025 A 
ATOM     19  C   UNL     1      -1.169  -0.811  -0.594  0.00  0.00    +0.005 A 
ATOM     20  C   UNL     1      -2.127  -1.657  -0.066  0.00  0.00    +0.000 A 
ATOM     21  C   UNL     1      -2.320  -1.715   1.302  0.00  0.00    +0.000 A 
ATOM     22  C   UNL     1      -1.555  -0.927   2.141  0.00  0.00    +0.000 A 
ATOM     23  C   UNL     1      -0.595  -0.084   1.614  0.00  0.00    +0.005 A 
ENDBRANCH  17  18
ENDBRANCH   1  17
BRANCH   8  24
ATOM     24  C   UNL     1       4.483  -0.997   0.648  0.00  0.00    +0.113 C 
ATOM     25  N   UNL     1       5.484  -1.499   0.835  0.00  0.00    -0.190 NA
ENDBRANCH   8  24
BRANCH   8  26
ATOM     26  C   UNL     1       2.540   0.299   1.483  0.00  0.00    +0.113 C 
ATOM     27  N   UNL     1       2.001   0.826   2.333  0.00  0.00    -0.190 NA
ENDBRANCH   8  26
TORSDOF 5
