REMARK  Name = ZINC03521992
REMARK  6 active torsions:
REMARK  status: ('A' for Active; 'I' for Inactive)
REMARK    1  A    between atoms: C_1  and  C_2
REMARK    2  A    between atoms: N_13  and  C_26
REMARK    3  A    between atoms: C_14  and  S_16
REMARK    4  A    between atoms: S_16  and  C_17
REMARK    5  A    between atoms: C_17  and  C_19
REMARK    6  A    between atoms: C_17  and  C_20
REMARK                            x       y       z     vdW  Elec       q    Type
REMARK                         _______ _______ _______ _____ _____    ______ ____
ROOT
ATOM      1  C   UNL     1      -0.739  13.320   2.690  0.00  0.00    +0.008 C 
ATOM      2  C   UNL     1      -1.160  12.204   1.732  0.00  0.00    -0.009 C 
ATOM      3  C   UNL     1      -2.444  11.545   2.245  0.00  0.00    +0.008 C 
ATOM      4  C   UNL     1      -3.008  10.607   1.178  0.00  0.00    +0.037 C 
ATOM      5  C   UNL     1      -1.907   9.648   0.734  0.00  0.00    -0.023 A 
ATOM      6  C   UNL     1      -0.611   9.930   0.971  0.00  0.00    -0.004 A 
ATOM      7  S   UNL     1       0.290   8.560   0.295  0.00  0.00    -0.073 S 
ATOM      8  C   UNL     1      -1.083   7.610  -0.307  0.00  0.00    +0.117 A 
ATOM      9  C   UNL     1      -2.198   8.392   0.038  0.00  0.00    +0.076 A 
ATOM     10  C   UNL     1      -3.473   7.860  -0.334  0.00  0.00    +0.268 A 
ATOM     11  O   UNL     1      -4.496   8.470  -0.075  0.00  0.00    -0.267 OA
ATOM     12  N   UNL     1      -3.527   6.677  -0.973  0.00  0.00    -0.255 N 
ATOM     13  C   UNL     1      -2.389   5.980  -1.271  0.00  0.00    +0.178 A 
ATOM     14  N   UNL     1      -1.204   6.446  -0.934  0.00  0.00    -0.215 NA
ATOM     15  C   UNL     1      -0.056  11.140   1.658  0.00  0.00    +0.046 C 
ENDROOT
BRANCH  12  16
ATOM     16  C   UNL     1      -4.772   6.150  -1.340  0.00  0.00    +0.052 A 
ATOM     17  C   UNL     1      -5.320   6.459  -2.578  0.00  0.00    +0.026 A 
ATOM     18  C   UNL     1      -6.545   5.934  -2.939  0.00  0.00    +0.002 A 
ATOM     19  C   UNL     1      -7.232   5.111  -2.065  0.00  0.00    +0.000 A 
ATOM     20  C   UNL     1      -6.691   4.806  -0.830  0.00  0.00    +0.002 A 
ATOM     21  C   UNL     1      -5.463   5.323  -0.465  0.00  0.00    +0.026 A 
ENDBRANCH  12  16
BRANCH  13  22
ATOM     22  S   UNL     1      -2.511   4.435  -2.108  0.00  0.00    -0.075 S 
BRANCH  22  23
ATOM     23  C   UNL     1      -0.758   4.000  -2.223  0.00  0.00    +0.137 C 
ATOM     24  C   UNL     1      -0.194   3.778  -0.818  0.00  0.00    +0.029 C 
BRANCH  23  25
ATOM     25  C   UNL     1      -0.605   2.738  -3.031  0.00  0.00    +0.233 C 
ATOM     26  O   UNL     1      -1.550   1.993  -3.177  0.00  0.00    -0.274 OA
ATOM     27  N   UNL     1       0.584   2.436  -3.592  0.00  0.00    -0.239 N 
ATOM     28  C   UNL     1       0.720   1.307  -4.315  0.00  0.00    +0.303 C 
ATOM     29  O   UNL     1      -0.226   0.558  -4.457  0.00  0.00    -0.253 OA
ATOM     30  N   UNL     1       1.907   1.008  -4.880  0.00  0.00    -0.313 N 
ATOM     31  H   UNL     1       1.339   3.034  -3.479  0.00  0.00    +0.159 HD
ATOM     32  H   UNL     1       2.662   1.606  -4.767  0.00  0.00    +0.146 HD
ATOM     33  H   UNL     1       2.005   0.196  -5.400  0.00  0.00    +0.146 HD
ENDBRANCH  23  25
ENDBRANCH  22  23
ENDBRANCH  13  22
TORSDOF 4
