REMARK  Name = ZINC09821279
REMARK  5 active torsions:
REMARK  status: ('A' for Active; 'I' for Inactive)
REMARK    1  A    between atoms: C_4  and  C_7
REMARK    2  A    between atoms: C_7  and  C_29
REMARK    3  A    between atoms: N_10  and  C_14
REMARK    4  A    between atoms: C_14  and  N_61
REMARK    5  A    between atoms: C_17  and  C_20
REMARK                            x       y       z     vdW  Elec       q    Type
REMARK                         _______ _______ _______ _____ _____    ______ ____
ROOT
ATOM      1  C   UNL     1       6.525   7.860  -1.592  0.00  0.00    +0.164 C 
ATOM      2  C   UNL     1       6.422   6.880  -0.440  0.00  0.00    +0.254 C 
ATOM      3  O   UNL     1       7.328   6.272   0.089  0.00  0.00    -0.272 OA
ATOM      4  N   UNL     1       5.112   6.822  -0.127  0.00  0.00    -0.241 N 
ATOM      5  C   UNL     1       4.383   7.628  -0.908  0.00  0.00    +0.308 C 
ATOM      6  O   UNL     1       3.177   7.750  -0.813  0.00  0.00    -0.252 OA
ATOM      7  N   UNL     1       5.132   8.286  -1.810  0.00  0.00    -0.278 N 
ATOM      8  H   UNL     1       4.817   8.920  -2.473  0.00  0.00    +0.152 HD
ENDROOT
BRANCH   1  12
ATOM      9  C   UNL     1       8.072   5.939  -5.080  0.00  0.00    +0.000 A 
ATOM     10  C   UNL     1       8.711   5.783  -3.864  0.00  0.00    +0.000 A 
ATOM     11  C   UNL     1       8.210   6.404  -2.735  0.00  0.00    +0.006 A 
ATOM     12  C   UNL     1       7.071   7.182  -2.822  0.00  0.00    -0.011 A 
ATOM     13  C   UNL     1       6.429   7.334  -4.037  0.00  0.00    +0.006 A 
ATOM     14  C   UNL     1       6.932   6.716  -5.167  0.00  0.00    +0.000 A 
ENDBRANCH   1  12
BRANCH   1  15
ATOM     15  C   UNL     1       7.387   9.036  -1.210  0.00  0.00    -0.011 A 
ATOM     16  C   UNL     1       8.658   8.828  -0.709  0.00  0.00    +0.006 A 
ATOM     17  C   UNL     1       9.450   9.907  -0.362  0.00  0.00    +0.000 A 
ATOM     18  C   UNL     1       8.967  11.194  -0.509  0.00  0.00    +0.000 A 
ATOM     19  C   UNL     1       7.694  11.402  -1.006  0.00  0.00    +0.000 A 
ATOM     20  C   UNL     1       6.904  10.323  -1.356  0.00  0.00    +0.006 A 
ENDBRANCH   1  15
BRANCH   4  21
ATOM     21  C   UNL     1       4.557   5.987   0.941  0.00  0.00    +0.043 C 
BRANCH  21  27
ATOM     22  C   UNL     1       4.205   3.646   1.445  0.00  0.00    -0.076 C 
ATOM     23  C   UNL     1       3.968   2.270   0.818  0.00  0.00    -0.008 C 
ATOM     24  C   UNL     1       2.619   2.271   0.093  0.00  0.00    +0.041 C 
ATOM     25  C   UNL     1       2.616   3.380  -0.963  0.00  0.00    -0.008 C 
ATOM     26  C   UNL     1       2.894   4.724  -0.284  0.00  0.00    -0.076 C 
ATOM     27  N   UNL     1       4.216   4.665   0.375  0.00  0.00    +0.391 N 
ATOM     28  H   UNL     1       4.925   4.408  -0.322  0.00  0.00    -0.079 HD
BRANCH  24  29
ATOM     29  C   UNL     1       2.407   0.938  -0.578  0.00  0.00    +0.082 A 
ATOM     30  N   UNL     1       1.446   0.079  -0.383  0.00  0.00    -0.244 NA
ATOM     31  C   UNL     1       1.371  -1.089  -1.055  0.00  0.00    +0.078 A 
ATOM     32  C   UNL     1       0.401  -2.111  -0.957  0.00  0.00    +0.029 A 
ATOM     33  C   UNL     1       0.492  -3.231  -1.725  0.00  0.00    +0.002 A 
ATOM     34  C   UNL     1       1.531  -3.412  -2.627  0.00  0.00    +0.001 A 
ATOM     35  C   UNL     1       2.500  -2.434  -2.752  0.00  0.00    +0.017 A 
ATOM     36  C   UNL     1       2.417  -1.300  -1.982  0.00  0.00    +0.039 A 
ATOM     37  S   UNL     1       3.384   0.176  -1.794  0.00  0.00    -0.072 S 
ENDBRANCH  24  29
ENDBRANCH  21  27
ENDBRANCH   4  21
TORSDOF 5
