REMARK  Name = ZINC08916986
REMARK  8 active torsions:
REMARK  status: ('A' for Active; 'I' for Inactive)
REMARK    1  A    between atoms: C_1  and  C_2
REMARK    2  A    between atoms: C_9  and  C_12
REMARK    3  A    between atoms: N_14  and  C_15
REMARK    4  A    between atoms: C_15  and  C_16
REMARK    5  A    between atoms: C_16  and  C_18
REMARK    6  A    between atoms: C_16  and  N_54
REMARK    7  A    between atoms: C_21  and  O_24
REMARK    8  A    between atoms: O_24  and  C_25
REMARK                            x       y       z     vdW  Elec       q    Type
REMARK                         _______ _______ _______ _____ _____    ______ ____
ROOT
ATOM      1  C   UNL     1       6.009   1.087  -0.166  0.00  0.00    +0.094 C 
ENDROOT
BRANCH   1   4
ATOM      2  C   UNL     1       3.576   1.218  -0.191  0.00  0.00    +0.252 C 
ATOM      3  O   UNL     1       3.671   2.347  -0.634  0.00  0.00    -0.270 OA
ATOM      4  N   UNL     1       4.687   0.504   0.077  0.00  0.00    -0.312 N 
ATOM      5  H   UNL     1       4.612  -0.396   0.431  0.00  0.00    +0.149 HD
BRANCH   2  14
ATOM      6  C   UNL     1      -3.410  -2.153   1.204  0.00  0.00    +0.044 C 
ATOM      7  C   UNL     1      -2.261  -1.250   0.838  0.00  0.00    -0.049 A 
ATOM      8  C   UNL     1      -2.503   0.025   0.341  0.00  0.00    +0.004 A 
ATOM      9  C   UNL     1      -1.489   0.864   0.007  0.00  0.00    +0.011 A 
ATOM     10  C   UNL     1      -0.137   0.459   0.146  0.00  0.00    +0.008 A 
ATOM     11  C   UNL     1       0.081  -0.843   0.654  0.00  0.00    +0.022 A 
ATOM     12  C   UNL     1      -0.960  -1.682   0.994  0.00  0.00    +0.019 A 
ATOM     13  S   UNL     1       1.850  -0.984   0.691  0.00  0.00    -0.082 S 
ATOM     14  C   UNL     1       2.251   0.633   0.052  0.00  0.00    +0.093 A 
ATOM     15  C   UNL     1       1.028   1.192  -0.154  0.00  0.00    +0.068 A 
ATOM     16 CL   UNL     1       0.902   2.804  -0.785  0.00  0.00    -0.082 Cl
ENDBRANCH   2  14
ENDBRANCH   1   4
BRANCH   1  17
ATOM     17  C   UNL     1       7.085   0.023   0.059  0.00  0.00    -0.020 C 
BRANCH  17  18
ATOM     18  C   UNL     1       8.448   0.643  -0.111  0.00  0.00    -0.059 A 
ATOM     19  C   UNL     1       8.911   0.956  -1.376  0.00  0.00    +0.005 A 
ATOM     20  C   UNL     1      10.158   1.530  -1.534  0.00  0.00    +0.046 A 
ATOM     21  C   UNL     1      10.950   1.780  -0.424  0.00  0.00    +0.120 A 
ATOM     22  C   UNL     1      10.486   1.460   0.844  0.00  0.00    +0.046 A 
ATOM     23  C   UNL     1       9.236   0.892   0.997  0.00  0.00    +0.005 A 
BRANCH  21  24
ATOM     24  O   UNL     1      12.180   2.338  -0.577  0.00  0.00    -0.495 OA
ATOM     25  C   UNL     1      12.592   2.642  -1.911  0.00  0.00    +0.277 C 
ENDBRANCH  21  24
ENDBRANCH  17  18
BRANCH  17  30
ATOM     26  C   UNL     1       8.094  -1.962  -0.925  0.00  0.00    -0.078 C 
ATOM     27  C   UNL     1       7.544  -3.262  -1.565  0.00  0.00    -0.020 C 
ATOM     28  C   UNL     1       6.112  -3.351  -0.990  0.00  0.00    -0.020 C 
ATOM     29  C   UNL     1       5.757  -1.912  -0.569  0.00  0.00    -0.078 C 
ATOM     30  N   UNL     1       6.912  -1.087  -0.926  0.00  0.00    +0.385 N 
ATOM     31  H   UNL     1       6.776  -0.688  -1.862  0.00  0.00    -0.081 HD
ENDBRANCH  17  30
ENDBRANCH   1  17
TORSDOF 6
