REMARK  Name = ZINC59129044
REMARK  7 active torsions:
REMARK  status: ('A' for Active; 'I' for Inactive)
REMARK    1  A    between atoms: C_1  and  C_2
REMARK    2  A    between atoms: C_5  and  S_8
REMARK    3  A    between atoms: S_8  and  N_11
REMARK    4  A    between atoms: N_11  and  C_12
REMARK    5  A    between atoms: C_17  and  C_22
REMARK    6  A    between atoms: N_23  and  C_24
REMARK    7  A    between atoms: C_29  and  O_30
REMARK                            x       y       z     vdW  Elec       q    Type
REMARK                         _______ _______ _______ _____ _____    ______ ____
ROOT
ATOM      1  C   UNL     1       2.008  -6.347  -0.432  0.00  0.00    +0.203 A 
ATOM      2  C   UNL     1       3.346  -6.744  -0.194  0.00  0.00    +0.167 A 
ATOM      3  N   UNL     1       3.659  -8.021  -0.116  0.00  0.00    -0.227 NA
ATOM      4  C   UNL     1       2.704  -8.951  -0.263  0.00  0.00    +0.092 A 
ATOM      5  C   UNL     1       3.013 -10.318  -0.184  0.00  0.00    +0.033 A 
ATOM      6  C   UNL     1       2.025 -11.244  -0.336  0.00  0.00    -0.048 A 
ATOM      7  C   UNL     1       0.709 -10.854  -0.570  0.00  0.00    +0.005 A 
ATOM      8  C   UNL     1       0.375  -9.536  -0.654  0.00  0.00    +0.030 A 
ATOM      9  C   UNL     1       1.367  -8.554  -0.501  0.00  0.00    +0.092 A 
ATOM     10  N   UNL     1       1.060  -7.250  -0.573  0.00  0.00    -0.224 NA
ATOM     11  C   UNL     1       2.362 -12.711  -0.251  0.00  0.00    +0.044 C 
ATOM     12  N   UNL     1       4.333  -5.781  -0.042  0.00  0.00    -0.294 N 
ATOM     13  H   UNL     1       4.094  -4.842  -0.007  0.00  0.00    +0.154 HD
ENDROOT
BRANCH  12  14
ATOM     14  C   UNL     1       5.676  -6.166   0.059  0.00  0.00    +0.074 A 
ATOM     15  C   UNL     1       6.110  -7.340  -0.539  0.00  0.00    +0.027 A 
ATOM     16  C   UNL     1       7.436  -7.717  -0.437  0.00  0.00    +0.002 A 
ATOM     17  C   UNL     1       8.331  -6.928   0.261  0.00  0.00    +0.004 A 
ATOM     18  C   UNL     1       7.905  -5.756   0.860  0.00  0.00    +0.047 A 
ATOM     19  C   UNL     1       6.580  -5.368   0.757  0.00  0.00    +0.138 A 
BRANCH  19  20
ATOM     20  O   UNL     1       6.161  -4.213   1.341  0.00  0.00    -0.505 OA
ATOM     21  H   UNL     1       5.857  -4.321   2.252  0.00  0.00    +0.292 HD
ENDBRANCH  19  20
ENDBRANCH  12  14
BRANCH   1  22
ATOM     22  N   UNL     1       1.692  -4.999  -0.511  0.00  0.00    -0.074 NA
BRANCH  22  23
ATOM     23  S   UNL     1       0.128  -4.529  -0.782  0.00  0.00    +0.093 S 
ATOM     24  O   UNL     1      -0.618  -4.918   0.363  0.00  0.00    -0.148 OA
ATOM     25  O   UNL     1      -0.206  -4.967  -2.093  0.00  0.00    -0.148 OA
BRANCH  23  30
ATOM     26  C   UNL     1       0.069   1.502  -0.911  0.00  0.00    +0.044 C 
ATOM     27  C   UNL     1       0.083  -0.004  -0.879  0.00  0.00    -0.050 A 
ATOM     28  C   UNL     1       0.289  -0.718  -2.045  0.00  0.00    +0.005 A 
ATOM     29  C   UNL     1       0.302  -2.100  -2.015  0.00  0.00    +0.029 A 
ATOM     30  C   UNL     1       0.111  -2.768  -0.820  0.00  0.00    +0.110 A 
ATOM     31  C   UNL     1      -0.093  -2.054   0.346  0.00  0.00    +0.029 A 
ATOM     32  C   UNL     1      -0.103  -0.672   0.317  0.00  0.00    +0.005 A 
ENDBRANCH  23  30
ENDBRANCH  22  23
ENDBRANCH   1  22
TORSDOF 5
