REMARK  Name = ZINC58915591
REMARK  8 active torsions:
REMARK  status: ('A' for Active; 'I' for Inactive)
REMARK    1  A    between atoms: C_1  and  C_2
REMARK    2  A    between atoms: C_4  and  C_23
REMARK    3  A    between atoms: C_6  and  C_8
REMARK    4  A    between atoms: C_8  and  S_9
REMARK    5  A    between atoms: S_9  and  C_10
REMARK    6  A    between atoms: C_10  and  C_11
REMARK    7  A    between atoms: N_13  and  N_14
REMARK    8  A    between atoms: C_15  and  C_16
REMARK                            x       y       z     vdW  Elec       q    Type
REMARK                         _______ _______ _______ _____ _____    ______ ____
ROOT
ATOM      1  C   UNL     1       2.990  -4.344   5.103  0.00  0.00    +0.242 C 
ATOM      2  O   UNL     1       3.976  -3.980   4.497  0.00  0.00    -0.273 OA
ATOM      3  N   UNL     1       3.124  -5.020   6.262  0.00  0.00    -0.206 N 
ATOM      4  H   UNL     1       2.336  -5.311   6.747  0.00  0.00    +0.177 HD
ENDROOT
BRANCH   3   5
ATOM      5  N   UNL     1       4.400  -5.302   6.765  0.00  0.00    -0.188 NA
ATOM      6  C   UNL     1       4.529  -5.953   7.880  0.00  0.00    +0.139 C 
BRANCH   6   7
ATOM      7  C   UNL     1       5.873  -6.249   8.411  0.00  0.00    +0.008 A 
ATOM      8  C   UNL     1       6.015  -6.955   9.608  0.00  0.00    +0.010 A 
ATOM      9  C   UNL     1       7.275  -7.229  10.097  0.00  0.00    +0.001 A 
ATOM     10  C   UNL     1       8.397  -6.807   9.406  0.00  0.00    +0.001 A 
ATOM     11  C   UNL     1       8.265  -6.108   8.220  0.00  0.00    +0.016 A 
ATOM     12  C   UNL     1       7.010  -5.831   7.715  0.00  0.00    +0.027 A 
ATOM     13 BR   UNL     1       6.831  -4.882   6.089  0.00  0.00    -0.050 Br
ENDBRANCH   6   7
ENDBRANCH   3   5
BRANCH   1  14
ATOM     14  C   UNL     1       1.617  -4.041   4.562  0.00  0.00    +0.166 C 
BRANCH  14  15
ATOM     15  S   UNL     1       1.770  -3.127   3.002  0.00  0.00    -0.147 S 
BRANCH  15  16
ATOM     16  C   UNL     1       0.054  -2.844   2.489  0.00  0.00    +0.104 C 
BRANCH  16  22
ATOM     17  C   UNL     1      -0.018   1.503   0.010  0.00  0.00    +0.044 C 
ATOM     18  C   UNL     1       0.002  -0.004   0.002  0.00  0.00    -0.050 A 
ATOM     19  C   UNL     1       0.006  -0.689  -1.199  0.00  0.00    +0.006 A 
ATOM     20  C   UNL     1       0.025  -2.071  -1.206  0.00  0.00    -0.050 A 
ATOM     21  C   UNL     1       0.040  -2.768  -0.013  0.00  0.00    +0.007 A 
ATOM     22  C   UNL     1       0.037  -2.084   1.188  0.00  0.00    -0.037 A 
ATOM     23  C   UNL     1       0.023  -0.702   1.195  0.00  0.00    +0.007 A 
ATOM     24  C   UNL     1       0.027  -2.817  -2.516  0.00  0.00    +0.044 C 
ENDBRANCH  16  22
ENDBRANCH  15  16
ENDBRANCH  14  15
ENDBRANCH   1  14
TORSDOF 6
