REMARK  Name = ZINC10059180
REMARK  9 active torsions:
REMARK  status: ('A' for Active; 'I' for Inactive)
REMARK    1  A    between atoms: C_1  and  C_2
REMARK    2  A    between atoms: C_4  and  C_31
REMARK    3  A    between atoms: C_5  and  C_9
REMARK    4  A    between atoms: C_7  and  C_8
REMARK    5  A    between atoms: C_9  and  C_11
REMARK    6  A    between atoms: C_11  and  C_12
REMARK    7  A    between atoms: C_12  and  O_30
REMARK    8  A    between atoms: N_19  and  C_22
REMARK    9  A    between atoms: C_22  and  C_23
REMARK                            x       y       z     vdW  Elec       q    Type
REMARK                         _______ _______ _______ _____ _____    ______ ____
ROOT
ATOM      1  C   UNL     1      -0.986   7.974  -4.034  0.00  0.00    +0.175 C 
ATOM      2  C   UNL     1       0.510   8.171  -4.123  0.00  0.00    +0.015 A 
ATOM      3  C   UNL     1       1.348   8.523  -5.157  0.00  0.00    +0.009 A 
ATOM      4  C   UNL     1       2.708   8.646  -4.932  0.00  0.00    +0.000 A 
ATOM      5  C   UNL     1       3.222   8.397  -3.672  0.00  0.00    +0.002 A 
ATOM      6  C   UNL     1       2.385   8.037  -2.636  0.00  0.00    +0.024 A 
ATOM      7  C   UNL     1       1.013   7.922  -2.853  0.00  0.00    +0.043 A 
ATOM      8  N   UNL     1      -0.022   7.581  -1.982  0.00  0.00    -0.264 N 
ATOM      9  C   UNL     1      -1.221   7.590  -2.588  0.00  0.00    +0.257 C 
ATOM     10  O   UNL     1      -2.290   7.338  -2.075  0.00  0.00    -0.272 OA
ENDROOT
BRANCH   1  11
ATOM     11  O   UNL     1      -1.670   9.189  -4.347  0.00  0.00    -0.374 OA
ATOM     12  H   UNL     1      -2.631   9.136  -4.247  0.00  0.00    +0.211 HD
ENDBRANCH   1  11
BRANCH   1  13
ATOM     13  C   UNL     1      -1.435   6.848  -4.967  0.00  0.00    +0.129 C 
BRANCH  13  14
ATOM     14  C   UNL     1      -2.912   6.608  -4.790  0.00  0.00    +0.167 C 
ATOM     15  O   UNL     1      -3.543   7.271  -3.995  0.00  0.00    -0.292 OA
BRANCH  14  20
ATOM     16  C   UNL     1      -5.556   2.545  -7.880  0.00  0.00    +0.044 C 
ATOM     17  C   UNL     1      -4.863   3.610  -7.070  0.00  0.00    -0.047 A 
ATOM     18  C   UNL     1      -5.558   4.283  -6.080  0.00  0.00    +0.007 A 
ATOM     19  C   UNL     1      -4.931   5.259  -5.335  0.00  0.00    -0.040 A 
ATOM     20  C   UNL     1      -3.589   5.568  -5.581  0.00  0.00    +0.021 A 
ATOM     21  C   UNL     1      -2.895   4.887  -6.586  0.00  0.00    +0.015 A 
ATOM     22  C   UNL     1      -3.535   3.910  -7.320  0.00  0.00    -0.047 A 
ATOM     23  C   UNL     1      -2.788   3.171  -8.400  0.00  0.00    +0.044 C 
ATOM     24  C   UNL     1      -5.690   5.991  -4.258  0.00  0.00    +0.044 C 
ENDBRANCH  14  20
ENDBRANCH  13  14
ENDBRANCH   1  13
BRANCH   8  25
ATOM     25  C   UNL     1       0.175   7.255  -0.567  0.00  0.00    +0.148 C 
BRANCH  25  26
ATOM     26  C   UNL     1       0.403   5.772  -0.420  0.00  0.00    -0.030 A 
ATOM     27  C   UNL     1       1.686   5.262  -0.478  0.00  0.00    +0.006 A 
ATOM     28  C   UNL     1       1.896   3.902  -0.343  0.00  0.00    +0.020 A 
ATOM     29  C   UNL     1       0.821   3.053  -0.150  0.00  0.00    +0.041 A 
ATOM     30  C   UNL     1      -0.463   3.564  -0.097  0.00  0.00    +0.020 A 
ATOM     31  C   UNL     1      -0.671   4.924  -0.227  0.00  0.00    +0.006 A 
ATOM     32 CL   UNL     1       1.084   1.345   0.020  0.00  0.00    -0.084 Cl
ENDBRANCH  25  26
ENDBRANCH   8  25
TORSDOF 6
