REMARK  Name = ZINC20577653
REMARK  9 active torsions:
REMARK  status: ('A' for Active; 'I' for Inactive)
REMARK    1  A    between atoms: C_1  and  C_2
REMARK    2  A    between atoms: C_2  and  C_3
REMARK    3  A    between atoms: C_2  and  C_4
REMARK    4  A    between atoms: C_7  and  N_10
REMARK    5  A    between atoms: N_10  and  S_11
REMARK    6  A    between atoms: S_11  and  C_14
REMARK    7  A    between atoms: C_20  and  C_25
REMARK    8  A    between atoms: C_25  and  C_26
REMARK    9  A    between atoms: C_25  and  C_27
REMARK                            x       y       z     vdW  Elec       q    Type
REMARK                         _______ _______ _______ _____ _____    ______ ____
ROOT
ATOM      1  S   UNL     1       1.902  -1.866   6.021  0.00  0.00    +0.072 S 
ATOM      2  O   UNL     1       2.783  -2.380   7.011  0.00  0.00    -0.150 OA
ATOM      3  O   UNL     1       1.298  -0.585   6.130  0.00  0.00    -0.150 OA
ENDROOT
BRANCH   1   4
ATOM      4  C   UNL     1       0.588  -3.030   5.863  0.00  0.00    +0.109 A 
ATOM      5  C   UNL     1      -0.603  -2.654   5.270  0.00  0.00    +0.030 A 
ATOM      6  C   UNL     1      -1.635  -3.560   5.144  0.00  0.00    +0.025 A 
ATOM      7  C   UNL     1      -1.484  -4.864   5.613  0.00  0.00    +0.037 A 
ATOM      8  C   UNL     1      -0.282  -5.229   6.206  0.00  0.00    -0.012 A 
ATOM      9  C   UNL     1       0.748  -4.324   6.327  0.00  0.00    +0.035 A 
ATOM     10  C   UNL     1      -0.428  -6.680   6.604  0.00  0.00    +0.110 C 
ATOM     11  C   UNL     1      -1.829  -7.044   6.160  0.00  0.00    +0.225 C 
ATOM     12  O   UNL     1      -2.366  -8.124   6.285  0.00  0.00    -0.275 OA
ATOM     13  N   UNL     1      -2.365  -5.946   5.602  0.00  0.00    -0.285 N 
ATOM     14  H   UNL     1      -3.261  -5.909   5.233  0.00  0.00    +0.155 HD
BRANCH  10  15
ATOM     15  C   UNL     1       0.608  -7.541   5.878  0.00  0.00    -0.001 C 
ATOM     16  C   UNL     1       2.015  -7.064   6.246  0.00  0.00    +0.008 C 
ATOM     17  C   UNL     1       0.440  -9.003   6.298  0.00  0.00    +0.008 C 
ENDBRANCH  10  15
ENDBRANCH   1   4
BRANCH   1  18
ATOM     18  N   UNL     1       2.739  -1.875   4.592  0.00  0.00    -0.216 N 
ATOM     19  H   UNL     1       2.789  -1.070   4.054  0.00  0.00    +0.174 HD
BRANCH  18  23
ATOM     20  C   UNL     1       4.627  -5.357   3.307  0.00  0.00    -0.045 A 
ATOM     21  C   UNL     1       3.861  -4.620   2.422  0.00  0.00    +0.006 A 
ATOM     22  C   UNL     1       3.233  -3.465   2.845  0.00  0.00    +0.025 A 
ATOM     23  C   UNL     1       3.372  -3.043   4.161  0.00  0.00    +0.048 A 
ATOM     24  C   UNL     1       4.142  -3.786   5.048  0.00  0.00    +0.025 A 
ATOM     25  C   UNL     1       4.763  -4.943   4.620  0.00  0.00    +0.006 A 
BRANCH  20  27
ATOM     26  C   UNL     1       4.261  -7.609   2.337  0.00  0.00    +0.012 C 
ATOM     27  C   UNL     1       5.311  -6.617   2.842  0.00  0.00    +0.013 C 
ATOM     28  C   UNL     1       6.282  -6.281   1.709  0.00  0.00    +0.012 C 
ENDBRANCH  20  27
ENDBRANCH  18  23
ENDBRANCH   1  18
TORSDOF 5
