REMARK  Name = ZINC11105418
REMARK  9 active torsions:
REMARK  status: ('A' for Active; 'I' for Inactive)
REMARK    1  A    between atoms: C_1  and  O_2
REMARK    2  A    between atoms: O_2  and  C_3
REMARK    3  A    between atoms: C_6  and  C_13
REMARK    4  A    between atoms: C_8  and  S_9
REMARK    5  A    between atoms: S_9  and  N_12
REMARK    6  A    between atoms: C_13  and  O_15
REMARK    7  A    between atoms: O_15  and  C_16
REMARK    8  A    between atoms: C_16  and  C_17
REMARK    9  A    between atoms: C_24  and  C_28
REMARK                            x       y       z     vdW  Elec       q    Type
REMARK                         _______ _______ _______ _____ _____    ______ ____
ROOT
ATOM      1  C   UNL     1      -7.990  -1.187   1.179  0.00  0.00    +0.271 C 
ENDROOT
BRANCH   1   2
ATOM      2  C   UNL     1      -8.482  -2.055   0.050  0.00  0.00    +0.035 A 
ATOM      3  C   UNL     1      -7.636  -2.371  -0.996  0.00  0.00    +0.049 A 
ATOM      4  C   UNL     1      -8.088  -3.167  -2.035  0.00  0.00    +0.124 A 
ATOM      5  C   UNL     1      -9.387  -3.646  -2.027  0.00  0.00    +0.047 A 
ATOM      6  C   UNL     1     -10.235  -3.330  -0.982  0.00  0.00    +0.023 A 
ATOM      7  C   UNL     1      -9.782  -2.540   0.063  0.00  0.00    +0.136 A 
ATOM      8  O   UNL     1     -10.606  -2.223   1.097  0.00  0.00    -0.459 OA
ATOM      9  C   UNL     1     -12.008  -2.425   0.894  0.00  0.00    +0.340 C 
ATOM     10  O   UNL     1     -12.204  -3.725   0.327  0.00  0.00    -0.333 OA
ATOM     11  C   UNL     1     -11.649  -3.853  -0.986  0.00  0.00    +0.203 C 
ATOM     12  F   UNL     1      -7.260  -3.478  -3.056  0.00  0.00    -0.205 F 
BRANCH   9  13
ATOM     13  C   UNL     1     -12.732  -2.333   2.212  0.00  0.00    +0.020 A 
ATOM     14  C   UNL     1     -12.026  -2.075   3.373  0.00  0.00    +0.010 A 
ATOM     15  C   UNL     1     -12.691  -1.987   4.581  0.00  0.00    +0.000 A 
ATOM     16  C   UNL     1     -14.061  -2.166   4.631  0.00  0.00    +0.000 A 
ATOM     17  C   UNL     1     -14.766  -2.429   3.472  0.00  0.00    +0.000 A 
ATOM     18  C   UNL     1     -14.101  -2.513   2.263  0.00  0.00    +0.010 A 
ENDBRANCH   9  13
ENDBRANCH   1   2
BRANCH   1  19
ATOM     19  O   UNL     1      -6.607  -0.816   0.938  0.00  0.00    -0.456 OA
BRANCH  19  20
ATOM     20  C   UNL     1      -6.013  -0.035   1.862  0.00  0.00    +0.340 C 
ATOM     21  O   UNL     1      -6.634   0.325   2.842  0.00  0.00    -0.245 OA
BRANCH  20  25
ATOM     22  C   UNL     1      -1.973   1.164   1.348  0.00  0.00    +0.146 A 
ATOM     23  C   UNL     1      -2.584   0.358   0.393  0.00  0.00    +0.048 A 
ATOM     24  C   UNL     1      -3.894  -0.033   0.556  0.00  0.00    +0.018 A 
ATOM     25  C   UNL     1      -4.610   0.381   1.683  0.00  0.00    +0.061 A 
ATOM     26  C   UNL     1      -3.992   1.191   2.641  0.00  0.00    +0.047 A 
ATOM     27  C   UNL     1      -2.679   1.573   2.473  0.00  0.00    +0.147 A 
BRANCH  27  28
ATOM     28  S   UNL     1      -1.897   2.587   3.683  0.00  0.00    +0.059 S 
ATOM     29  O   UNL     1      -1.274   3.652   2.978  0.00  0.00    -0.153 OA
ATOM     30  O   UNL     1      -2.855   2.809   4.708  0.00  0.00    -0.153 OA
BRANCH  28  31
ATOM     31  N   UNL     1      -0.679   1.691   4.359  0.00  0.00    -0.203 NA
ATOM     32  H   UNL     1       0.117   2.131   4.697  0.00  0.00    +0.144 HD
ATOM     33  H   UNL     1      -0.762   0.726   4.418  0.00  0.00    +0.144 HD
ENDBRANCH  28  31
ENDBRANCH  27  28
BRANCH  22  35
ATOM     34  C   UNL     1      -0.013   1.086   0.008  0.00  0.00    +0.277 C 
ATOM     35  O   UNL     1      -0.682   1.547   1.184  0.00  0.00    -0.493 OA
ENDBRANCH  22  35
ENDBRANCH  20  25
ENDBRANCH  19  20
ENDBRANCH   1  19
TORSDOF 8
