REMARK  Name = ZINC13548674
REMARK  8 active torsions:
REMARK  status: ('A' for Active; 'I' for Inactive)
REMARK    1  A    between atoms: C_1  and  C_2
REMARK    2  A    between atoms: C_4  and  C_9
REMARK    3  A    between atoms: C_7  and  O_8
REMARK    4  A    between atoms: C_9  and  C_28
REMARK    5  A    between atoms: N_10  and  N_11
REMARK    6  A    between atoms: C_14  and  C_27
REMARK    7  A    between atoms: C_16  and  C_18
REMARK    8  A    between atoms: C_23  and  O_24
REMARK                            x       y       z     vdW  Elec       q    Type
REMARK                         _______ _______ _______ _____ _____    ______ ____
ROOT
ATOM      1  N   UNL     1      -2.307  -4.187   0.002  0.00  0.00    -0.221 N 
ATOM      2  C   UNL     1      -2.351  -2.802   0.009  0.00  0.00    +0.142 A 
ATOM      3  C   UNL     1      -3.578  -2.132   0.024  0.00  0.00    +0.068 A 
ATOM      4  C   UNL     1      -3.575  -0.750   0.032  0.00  0.00    +0.044 A 
ATOM      5  N   UNL     1      -2.419  -0.105   0.029  0.00  0.00    -0.232 NA
ATOM      6  C   UNL     1      -1.269  -0.766   0.010  0.00  0.00    +0.166 A 
ATOM      7  N   UNL     1      -1.229  -2.091   0.002  0.00  0.00    -0.211 NA
ATOM      8  C   UNL     1      -4.874   0.014   0.049  0.00  0.00    +0.066 C 
ATOM      9  H   UNL     1      -3.130  -4.699   0.007  0.00  0.00    +0.176 HD
ENDROOT
BRANCH   6  10
ATOM     10  C   UNL     1       0.002  -0.004   0.002  0.00  0.00    +0.063 A 
ATOM     11  C   UNL     1      -0.017   1.390   0.010  0.00  0.00    +0.030 A 
ATOM     12  C   UNL     1       1.170   2.095   0.002  0.00  0.00    +0.020 A 
ATOM     13  C   UNL     1       2.381   1.423  -0.013  0.00  0.00    +0.034 A 
ATOM     14  C   UNL     1       2.411   0.041  -0.021  0.00  0.00    +0.061 A 
ATOM     15  C   UNL     1       1.226  -0.680  -0.013  0.00  0.00    +0.141 A 
ATOM     16 BR   UNL     1       4.069  -0.867  -0.042  0.00  0.00    -0.046 Br
ATOM     17 BR   UNL     1       1.142   3.986   0.013  0.00  0.00    -0.050 Br
BRANCH  15  18
ATOM     18  O   UNL     1       1.254  -2.038  -0.020  0.00  0.00    -0.505 OA
ATOM     19  H   UNL     1       1.254  -2.427  -0.906  0.00  0.00    +0.292 HD
ENDBRANCH  15  18
ENDBRANCH   6  10
BRANCH   1  21
ATOM     20  C   UNL     1      -1.029  -6.145  -0.020  0.00  0.00    +0.063 C 
ATOM     21  N   UNL     1      -1.071  -4.848  -0.013  0.00  0.00    -0.186 NA
ATOM     22  C   UNL     1      -2.309  -6.940  -0.012  0.00  0.00    +0.068 C 
BRANCH  20  26
ATOM     23  C   UNL     1       3.954  -5.968  -0.065  0.00  0.00    +0.047 C 
ATOM     24  C   UNL     1       2.672  -6.760  -0.058  0.00  0.00    -0.008 A 
ATOM     25  C   UNL     1       1.459  -6.105  -0.049  0.00  0.00    +0.016 A 
ATOM     26  C   UNL     1       0.271  -6.840  -0.036  0.00  0.00    -0.002 A 
ATOM     27  C   UNL     1       0.318  -8.237  -0.043  0.00  0.00    +0.013 A 
ATOM     28  C   UNL     1       1.536  -8.883  -0.058  0.00  0.00    +0.046 A 
ATOM     29  C   UNL     1       2.714  -8.148  -0.065  0.00  0.00    +0.120 A 
BRANCH  29  30
ATOM     30  O   UNL     1       3.912  -8.788  -0.080  0.00  0.00    -0.507 OA
ATOM     31  H   UNL     1       4.250  -8.969  -0.968  0.00  0.00    +0.292 HD
ENDBRANCH  29  30
ENDBRANCH  20  26
ENDBRANCH   1  21
TORSDOF 5
