REMARK  Name = ZINC67230449
REMARK  11 active torsions:
REMARK  status: ('A' for Active; 'I' for Inactive)
REMARK    1  A    between atoms: C_1  and  O_2
REMARK    2  A    between atoms: O_2  and  C_3
REMARK    3  A    between atoms: C_8  and  C_9
REMARK    4  A    between atoms: C_9  and  C_10
REMARK    5  A    between atoms: N_15  and  C_17
REMARK    6  A    between atoms: C_17  and  C_18
REMARK    7  A    between atoms: C_18  and  C_20
REMARK    8  A    between atoms: C_18  and  O_28
REMARK    9  A    between atoms: C_20  and  O_21
REMARK   10  A    between atoms: O_21  and  C_22
REMARK   11  A    between atoms: C_22  and  C_23
REMARK                            x       y       z     vdW  Elec       q    Type
REMARK                         _______ _______ _______ _____ _____    ______ ____
ROOT
ATOM      1  C   UNL     1       0.629  -3.068   1.147  0.00  0.00    -0.023 C 
ATOM      2  C   UNL     1       1.033  -1.668   1.620  0.00  0.00    +0.000 C 
ATOM      3  C   UNL     1       1.559  -1.757   3.055  0.00  0.00    -0.018 C 
ATOM      4  C   UNL     1       2.727  -2.744   3.105  0.00  0.00    -0.079 C 
ATOM      5  N   UNL     1       2.271  -4.069   2.667  0.00  0.00    +0.382 N 
ATOM      6  C   UNL     1       1.831  -4.008   1.268  0.00  0.00    -0.075 C 
ATOM      7  H   UNL     1       1.501  -4.367   3.247  0.00  0.00    -0.082 HD
ENDROOT
BRANCH   1   8
ATOM      8  C   UNL     1       0.175  -3.003  -0.312  0.00  0.00    +0.040 C 
BRANCH   8  14
ATOM      9  C   UNL     1      -0.993  -0.794  -0.517  0.00  0.00    +0.123 A 
ATOM     10  C   UNL     1      -2.150  -0.034  -0.614  0.00  0.00    +0.046 A 
ATOM     11  C   UNL     1      -3.384  -0.653  -0.601  0.00  0.00    +0.004 A 
ATOM     12  C   UNL     1      -3.468  -2.029  -0.490  0.00  0.00    +0.000 A 
ATOM     13  C   UNL     1      -2.317  -2.789  -0.393  0.00  0.00    +0.007 A 
ATOM     14  C   UNL     1      -1.079  -2.175  -0.412  0.00  0.00    -0.006 A 
BRANCH   9  16
ATOM     15  C   UNL     1       0.236   1.237  -0.641  0.00  0.00    +0.277 C 
ATOM     16  O   UNL     1       0.223  -0.188  -0.531  0.00  0.00    -0.495 OA
ENDBRANCH   9  16
ENDBRANCH   8  14
ENDBRANCH   1   8
BRANCH   5  17
ATOM     17  C   UNL     1       3.374  -5.030   2.790  0.00  0.00    -0.045 C 
BRANCH  17  18
ATOM     18  C   UNL     1       2.862  -6.438   2.478  0.00  0.00    +0.124 C 
BRANCH  18  19
ATOM     19  O   UNL     1       1.828  -6.784   3.402  0.00  0.00    -0.391 OA
ATOM     20  H   UNL     1       2.110  -6.781   4.327  0.00  0.00    +0.210 HD
ENDBRANCH  18  19
BRANCH  18  21
ATOM     21  C   UNL     1       4.012  -7.439   2.603  0.00  0.00    +0.189 C 
BRANCH  21  22
ATOM     22  O   UNL     1       3.563  -8.734   2.199  0.00  0.00    -0.372 OA
BRANCH  22  23
ATOM     23  C   UNL     1       4.566  -9.748   2.278  0.00  0.00    +0.202 C 
BRANCH  23  24
ATOM     24  C   UNL     1       3.985 -11.065   1.832  0.00  0.00    +0.015 A 
ATOM     25  C   UNL     1       3.950 -11.605   0.589  0.00  0.00    +0.013 A 
ATOM     26  C   UNL     1       3.359 -12.842   0.412  0.00  0.00    +0.008 A 
ATOM     27  C   UNL     1       2.832 -13.479   1.487  0.00  0.00    +0.045 A 
ATOM     28  S   UNL     1       3.172 -12.323   2.804  0.00  0.00    -0.099 S 
ENDBRANCH  23  24
ENDBRANCH  22  23
ENDBRANCH  21  22
ENDBRANCH  18  21
ENDBRANCH  17  18
ENDBRANCH   5  17
TORSDOF 10
