REMARK  Name = ZINC38172566
REMARK  6 active torsions:
REMARK  status: ('A' for Active; 'I' for Inactive)
REMARK    1  A    between atoms: C_4  and  C_7
REMARK    2  A    between atoms: N_16  and  N_17
REMARK    3  A    between atoms: N_17  and  C_18
REMARK    4  A    between atoms: C_21  and  C_25
REMARK    5  A    between atoms: C_22  and  O_24
REMARK    6  A    between atoms: C_28  and  C_30
REMARK                            x       y       z     vdW  Elec       q    Type
REMARK                         _______ _______ _______ _____ _____    ______ ____
ROOT
ATOM      1  C   UNL     1       3.749  -0.887  -0.040  0.00  0.00    +0.080 A 
ATOM      2  C   UNL     1       3.837  -2.251  -0.075  0.00  0.00    +0.077 A 
ATOM      3  S   UNL     1       5.612  -2.468  -0.102  0.00  0.00    -0.058 S 
ATOM      4  C   UNL     1       6.049  -0.735  -0.064  0.00  0.00    +0.189 A 
ATOM      5  N   UNL     1       4.859  -0.165  -0.041  0.00  0.00    -0.223 NA
ATOM      6  N   UNL     1       7.308  -0.145  -0.065  0.00  0.00    -0.130 N 
ATOM      7  C   UNL     1       8.475  -0.820  -0.102  0.00  0.00    +0.294 C 
ATOM      8  O   UNL     1       8.620  -2.029  -0.140  0.00  0.00    -0.266 OA
ATOM      9  C   UNL     1       9.538   0.199  -0.088  0.00  0.00    +0.173 C 
ATOM     10  N   UNL     1      10.841   0.001  -0.113  0.00  0.00    -0.175 NA
ATOM     11  C   UNL     1       8.823   1.492  -0.039  0.00  0.00    +0.122 C 
ATOM     12  N   UNL     1       7.544   1.229  -0.033  0.00  0.00    -0.168 NA
ENDROOT
BRANCH   1  16
ATOM     13  C   UNL     1      -0.051   1.017   0.053  0.00  0.00    +0.000 A 
ATOM     14  C   UNL     1       1.103   1.781   0.054  0.00  0.00    +0.001 A 
ATOM     15  C   UNL     1       2.339   1.168   0.024  0.00  0.00    +0.010 A 
ATOM     16  C   UNL     1       2.424  -0.223  -0.007  0.00  0.00    +0.001 A 
ATOM     17  C   UNL     1       1.258  -0.987  -0.007  0.00  0.00    +0.010 A 
ATOM     18  C   UNL     1       0.027  -0.363   0.023  0.00  0.00    +0.001 A 
ENDBRANCH   1  16
BRANCH  11  19
ATOM     19  C   UNL     1       9.443   2.837  -0.008  0.00  0.00    +0.004 A 
ATOM     20  C   UNL     1       9.627   3.550  -1.192  0.00  0.00    +0.010 A 
ATOM     21  C   UNL     1      10.204   4.803  -1.157  0.00  0.00    +0.001 A 
ATOM     22  C   UNL     1      10.601   5.351   0.049  0.00  0.00    +0.000 A 
ATOM     23  C   UNL     1      10.422   4.648   1.227  0.00  0.00    +0.001 A 
ATOM     24  C   UNL     1       9.840   3.397   1.206  0.00  0.00    +0.010 A 
ENDBRANCH  11  19
BRANCH  10  25
ATOM     25  N   UNL     1      11.644   1.006  -0.209  0.00  0.00    -0.237 N 
ATOM     26  H   UNL     1      11.294   1.910  -0.189  0.00  0.00    +0.174 HD
BRANCH  25  27
ATOM     27  C   UNL     1      13.012   0.792  -0.341  0.00  0.00    +0.052 A 
ATOM     28  C   UNL     1      13.512  -0.509  -0.375  0.00  0.00    +0.026 A 
ATOM     29  C   UNL     1      14.852  -0.730  -0.504  0.00  0.00    +0.020 A 
ATOM     30  C   UNL     1      15.736   0.352  -0.603  0.00  0.00    +0.105 A 
ATOM     31  C   UNL     1      15.237   1.665  -0.570  0.00  0.00    +0.133 A 
ATOM     32  C   UNL     1      13.875   1.877  -0.444  0.00  0.00    +0.071 A 
BRANCH  30  33
ATOM     33  C   UNL     1      17.180   0.115  -0.741  0.00  0.00    +0.390 C 
ATOM     34  O   UNL     1      17.612  -1.030  -0.769  0.00  0.00    -0.240 OA
ATOM     35  O   UNL     1      17.950   1.062  -0.827  0.00  0.00    -0.240 OA
ENDBRANCH  30  33
BRANCH  31  36
ATOM     36  O   UNL     1      16.085   2.719  -0.664  0.00  0.00    -0.506 OA
ATOM     37  H   UNL     1      16.246   3.015  -1.571  0.00  0.00    +0.292 HD
ENDBRANCH  31  36
ENDBRANCH  25  27
ENDBRANCH  10  25
TORSDOF 6
