REMARK  Name = ZINC12500195
REMARK  6 active torsions:
REMARK  status: ('A' for Active; 'I' for Inactive)
REMARK    1  A    between atoms: C_4  and  N_25
REMARK    2  A    between atoms: C_6  and  C_7
REMARK    3  A    between atoms: N_9  and  C_10
REMARK    4  A    between atoms: C_10  and  N_12
REMARK    5  A    between atoms: N_12  and  C_13
REMARK    6  A    between atoms: C_14  and  C_22
REMARK                            x       y       z     vdW  Elec       q    Type
REMARK                         _______ _______ _______ _____ _____    ______ ____
ROOT
ATOM      1  C   UNL     1      -2.064   1.842   5.838  0.00  0.00    +0.141 C 
ATOM      2  S   UNL     1      -3.043   3.143   5.308  0.00  0.00    -0.018 S 
ENDROOT
BRANCH   1   5
ATOM      3  C   UNL     1      -2.845   2.142   8.017  0.00  0.00    +0.250 C 
ATOM      4  O   UNL     1      -3.539   3.066   7.641  0.00  0.00    -0.270 OA
ATOM      5  N   UNL     1      -2.069   1.480   7.136  0.00  0.00    -0.264 N 
ATOM      6  H   UNL     1      -1.514   0.743   7.437  0.00  0.00    +0.157 HD
BRANCH   3  12
ATOM      7  C   UNL     1      -2.057   0.682   9.874  0.00  0.00    +0.014 A 
ATOM      8  C   UNL     1      -2.062   0.320  11.205  0.00  0.00    +0.023 A 
ATOM      9  C   UNL     1      -2.860   1.002  12.108  0.00  0.00    +0.071 A 
ATOM     10  C   UNL     1      -3.654   2.055  11.682  0.00  0.00    +0.145 A 
ATOM     11  C   UNL     1      -3.653   2.430  10.356  0.00  0.00    +0.047 A 
ATOM     12  C   UNL     1      -2.850   1.746   9.440  0.00  0.00    +0.039 A 
ATOM     13 CL   UNL     1      -2.867   0.536  13.780  0.00  0.00    -0.081 Cl
BRANCH  10  14
ATOM     14  N   UNL     1      -4.504   2.780  12.654  0.00  0.00    +0.058 N 
ATOM     15  O   UNL     1      -5.201   3.706  12.281  0.00  0.00    -0.126 OA
ATOM     16  O   UNL     1      -4.505   2.450  13.826  0.00  0.00    -0.126 OA
ENDBRANCH  10  14
ENDBRANCH   3  12
ENDBRANCH   1   5
BRANCH   1  17
ATOM     17  N   UNL     1      -1.288   1.180   4.957  0.00  0.00    -0.291 N 
ATOM     18  H   UNL     1      -0.733   0.443   5.257  0.00  0.00    +0.154 HD
BRANCH  17  19
ATOM     19  C   UNL     1      -1.283   1.552   3.622  0.00  0.00    +0.084 A 
ATOM     20  C   UNL     1      -0.558   0.998   2.575  0.00  0.00    +0.068 A 
ATOM     21  C   UNL     1      -0.732   1.580   1.257  0.00  0.00    -0.023 A 
ATOM     22  C   UNL     1      -1.601   2.615   1.194  0.00  0.00    -0.004 A 
ATOM     23  S   UNL     1      -2.178   2.821   2.855  0.00  0.00    -0.077 S 
ATOM     24  C   UNL     1      -1.979   3.405  -0.021  0.00  0.00    +0.043 C 
ATOM     25  C   UNL     1      -0.956   3.111  -1.127  0.00  0.00    +0.005 C 
ATOM     26  C   UNL     1      -0.758   1.595  -1.227  0.00  0.00    +0.005 C 
ATOM     27  C   UNL     1      -0.013   1.086   0.008  0.00  0.00    +0.037 C 
BRANCH  20  28
ATOM     28  C   UNL     1       0.351  -0.131   2.793  0.00  0.00    +0.244 C 
ATOM     29  O   UNL     1      -0.061  -1.272   2.693  0.00  0.00    -0.270 OA
ATOM     30  N   UNL     1       1.643   0.094   3.104  0.00  0.00    -0.325 N 
ATOM     31  H   UNL     1       1.971   1.004   3.184  0.00  0.00    +0.145 HD
ATOM     32  H   UNL     1       2.244  -0.653   3.248  0.00  0.00    +0.145 HD
ENDBRANCH  20  28
ENDBRANCH  17  19
ENDBRANCH   1  17
TORSDOF 6
