REMARK  Name = ZINC16670988
REMARK  5 active torsions:
REMARK  status: ('A' for Active; 'I' for Inactive)
REMARK    1  A    between atoms: C_3  and  N_20
REMARK    2  A    between atoms: C_6  and  C_7
REMARK    3  A    between atoms: C_7  and  C_18
REMARK    4  A    between atoms: C_8  and  C_9
REMARK    5  A    between atoms: C_14  and  O_15
REMARK                            x       y       z     vdW  Elec       q    Type
REMARK                         _______ _______ _______ _____ _____    ______ ____
ROOT
ATOM      1  C   UNL     1      -1.169  -1.047   0.107  0.00  0.00    +0.060 C 
ATOM      2  C   UNL     1      -1.656  -1.455  -1.097  0.00  0.00    +0.031 C 
ENDROOT
BRANCH   2   3
ATOM      3  C   UNL     1      -0.766  -1.535  -2.260  0.00  0.00    +0.020 A 
ATOM      4  C   UNL     1       0.196  -0.542  -2.481  0.00  0.00    +0.027 A 
ATOM      5  C   UNL     1       1.029  -0.624  -3.576  0.00  0.00    +0.020 A 
ATOM      6  C   UNL     1       0.919  -1.687  -4.461  0.00  0.00    +0.034 A 
ATOM      7  C   UNL     1      -0.026  -2.674  -4.255  0.00  0.00    +0.061 A 
ATOM      8  C   UNL     1      -0.869  -2.612  -3.156  0.00  0.00    +0.138 A 
ATOM      9 BR   UNL     1      -0.164  -4.116  -5.470  0.00  0.00    -0.046 Br
ATOM     10 BR   UNL     1       2.328   0.718  -3.874  0.00  0.00    -0.050 Br
BRANCH   8  11
ATOM     11  O   UNL     1      -1.794  -3.584  -2.950  0.00  0.00    -0.505 OA
ATOM     12  H   UNL     1      -2.647  -3.411  -3.370  0.00  0.00    +0.292 HD
ENDBRANCH   8  11
ENDBRANCH   2   3
BRANCH   1  18
ATOM     13  C   UNL     1       0.778   0.454   0.521  0.00  0.00    +0.011 A 
ATOM     14  C   UNL     1       2.134   0.650   0.683  0.00  0.00    +0.033 A 
ATOM     15  C   UNL     1       3.005  -0.422   0.608  0.00  0.00    +0.126 A 
ATOM     16  C   UNL     1       2.523  -1.697   0.369  0.00  0.00    +0.033 A 
ATOM     17  C   UNL     1       1.169  -1.906   0.205  0.00  0.00    +0.011 A 
ATOM     18  C   UNL     1       0.286  -0.829   0.281  0.00  0.00    -0.008 A 
BRANCH  15  19
ATOM     19  N   UNL     1       4.459  -0.204   0.782  0.00  0.00    +0.056 N 
ATOM     20  O   UNL     1       4.883   0.909   0.990  0.00  0.00    -0.126 OA
ATOM     21  O   UNL     1       5.223  -1.139   0.716  0.00  0.00    -0.126 OA
ENDBRANCH  15  19
ENDBRANCH   1  18
BRANCH   1  22
ATOM     22  C   UNL     1      -2.062  -0.829   1.204  0.00  0.00    +0.100 C 
ATOM     23  N   UNL     1      -2.771  -0.656   2.075  0.00  0.00    -0.191 NA
ENDBRANCH   1  22
TORSDOF 5
