REMARK  Name = ZINC60361309
REMARK  7 active torsions:
REMARK  status: ('A' for Active; 'I' for Inactive)
REMARK    1  A    between atoms: C_4  and  C_7
REMARK    2  A    between atoms: C_7  and  N_8
REMARK    3  A    between atoms: N_8  and  C_9
REMARK    4  A    between atoms: C_9  and  C_10
REMARK    5  A    between atoms: C_10  and  C_11
REMARK    6  A    between atoms: C_14  and  C_16
REMARK    7  A    between atoms: C_16  and  N_17
REMARK                            x       y       z     vdW  Elec       q    Type
REMARK                         _______ _______ _______ _____ _____    ______ ____
ROOT
ATOM      1  N   UNL     1       4.152  -0.952   1.338  0.00  0.00    -0.298 N 
ATOM      2  C   UNL     1       4.924  -0.047   1.970  0.00  0.00    +0.199 C 
ATOM      3  O   UNL     1       5.255   0.972   1.400  0.00  0.00    -0.278 OA
ENDROOT
BRANCH   1   4
ATOM      4  C   UNL     1       3.711  -0.707  -0.038  0.00  0.00    +0.142 C 
BRANCH   4   8
ATOM      5  C   UNL     1      -0.017   1.378   0.010  0.00  0.00    +0.000 A 
ATOM      6  C   UNL     1       1.171   2.086   0.002  0.00  0.00    +0.000 A 
ATOM      7  C   UNL     1       2.377   1.411  -0.013  0.00  0.00    +0.005 A 
ATOM      8  C   UNL     1       2.396   0.029  -0.020  0.00  0.00    -0.030 A 
ATOM      9  C   UNL     1       1.208  -0.679  -0.012  0.00  0.00    +0.005 A 
ATOM     10  C   UNL     1       0.002  -0.004   0.002  0.00  0.00    +0.000 A 
ENDBRANCH   4   8
ENDBRANCH   1   4
BRANCH   1  11
ATOM     11  C   UNL     1       3.753  -2.182   2.027  0.00  0.00    +0.117 C 
BRANCH  11  12
ATOM     12  C   UNL     1       4.796  -3.272   1.770  0.00  0.00    +0.114 C 
BRANCH  12  13
ATOM     13  C   UNL     1       4.385  -4.537   2.478  0.00  0.00    +0.212 C 
ATOM     14  O   UNL     1       3.360  -4.565   3.125  0.00  0.00    -0.276 OA
ATOM     15  N   UNL     1       5.158  -5.638   2.393  0.00  0.00    -0.329 N 
ATOM     16  H   UNL     1       5.978  -5.616   1.876  0.00  0.00    +0.145 HD
ATOM     17  H   UNL     1       4.894  -6.452   2.849  0.00  0.00    +0.145 HD
ENDBRANCH  12  13
ENDBRANCH  11  12
ENDBRANCH   1  11
BRANCH   2  18
ATOM     18  C   UNL     1       5.378  -0.299   3.385  0.00  0.00    +0.020 C 
BRANCH  18  19
ATOM     19  N   UNL     1       6.201   0.828   3.843  0.00  0.00    +0.391 N 
ATOM     20  C   UNL     1       7.404   0.910   3.015  0.00  0.00    -0.041 C 
ATOM     21  C   UNL     1       8.400  -0.155   3.377  0.00  0.00    -0.056 A 
ATOM     22  C   UNL     1       8.546  -1.288   2.605  0.00  0.00    +0.002 A 
ATOM     23  C   UNL     1       9.485  -2.244   2.953  0.00  0.00    +0.000 A 
ATOM     24  C   UNL     1      10.282  -2.072   4.070  0.00  0.00    +0.001 A 
ATOM     25  C   UNL     1      10.140  -0.943   4.855  0.00  0.00    +0.009 A 
ATOM     26  C   UNL     1       9.192   0.012   4.515  0.00  0.00    -0.016 A 
ATOM     27  C   UNL     1       8.966   1.217   5.349  0.00  0.00    -0.016 A 
ATOM     28  C   UNL     1      10.018   2.011   5.785  0.00  0.00    +0.009 A 
ATOM     29  C   UNL     1       9.754   3.135   6.545  0.00  0.00    +0.001 A 
ATOM     30  C   UNL     1       8.449   3.464   6.867  0.00  0.00    +0.000 A 
ATOM     31  C   UNL     1       7.399   2.671   6.439  0.00  0.00    +0.002 A 
ATOM     32  C   UNL     1       7.652   1.542   5.689  0.00  0.00    -0.056 A 
ATOM     33  C   UNL     1       6.537   0.632   5.254  0.00  0.00    -0.041 C 
ATOM     34  H   UNL     1       5.674   1.683   3.745  0.00  0.00    -0.080 HD
ENDBRANCH  18  19
ENDBRANCH   2  18
TORSDOF 7
