REMARK  Name = ZINC60167549
REMARK  8 active torsions:
REMARK  status: ('A' for Active; 'I' for Inactive)
REMARK    1  A    between atoms: C_1  and  C_2
REMARK    2  A    between atoms: C_7  and  C_9
REMARK    3  A    between atoms: C_7  and  C_10
REMARK    4  A    between atoms: N_13  and  C_17
REMARK    5  A    between atoms: C_17  and  C_18
REMARK    6  A    between atoms: N_20  and  C_21
REMARK    7  A    between atoms: N_24  and  C_27
REMARK    8  A    between atoms: C_27  and  C_28
REMARK                            x       y       z     vdW  Elec       q    Type
REMARK                         _______ _______ _______ _____ _____    ______ ____
ROOT
ATOM      1  C   UNL     1      -4.716  -3.013  -2.107  0.00  0.00    +0.231 C 
ATOM      2  O   UNL     1      -4.310  -1.969  -2.571  0.00  0.00    -0.274 OA
ATOM      3  N   UNL     1      -5.927  -3.485  -2.466  0.00  0.00    -0.311 N 
ATOM      4  H   UNL     1      -6.251  -4.320  -2.095  0.00  0.00    +0.149 HD
ENDROOT
BRANCH   3   5
ATOM      5  C   UNL     1      -6.752  -2.735  -3.417  0.00  0.00    +0.069 C 
ATOM      6  C   UNL     1      -6.355  -3.111  -4.847  0.00  0.00    +0.003 C 
ATOM      7  C   UNL     1      -7.273  -2.386  -5.833  0.00  0.00    -0.077 C 
ATOM      8  N   UNL     1      -8.666  -2.781  -5.591  0.00  0.00    +0.380 N 
ATOM      9  C   UNL     1      -9.076  -2.359  -4.246  0.00  0.00    -0.077 C 
ATOM     10  C   UNL     1      -8.227  -3.083  -3.199  0.00  0.00    +0.003 C 
ATOM     11  H   UNL     1      -8.749  -3.783  -5.668  0.00  0.00    -0.082 HD
BRANCH   8  12
ATOM     12  C   UNL     1      -9.535  -2.143  -6.589  0.00  0.00    -0.075 C 
BRANCH  12  13
ATOM     13  C   UNL     1     -10.962  -2.674  -6.437  0.00  0.00    -0.028 C 
ATOM     14  C   UNL     1     -11.888  -1.931  -7.403  0.00  0.00    +0.002 C 
ATOM     15  C   UNL     1     -13.315  -2.463  -7.251  0.00  0.00    +0.000 C 
ATOM     16  C   UNL     1     -13.338  -3.959  -7.570  0.00  0.00    +0.000 C 
ATOM     17  C   UNL     1     -12.412  -4.701  -6.604  0.00  0.00    +0.000 C 
ATOM     18  C   UNL     1     -10.986  -4.170  -6.756  0.00  0.00    +0.002 C 
ENDBRANCH  12  13
ENDBRANCH   8  12
ENDBRANCH   3   5
BRANCH   1  19
ATOM     19  C   UNL     1      -3.867  -3.784  -1.130  0.00  0.00    +0.213 C 
BRANCH  19  31
ATOM     20  C   UNL     1       0.573   1.737  -0.899  0.00  0.00    +0.007 C 
ATOM     21  C   UNL     1       0.519   0.238  -0.595  0.00  0.00    -0.011 C 
ATOM     22  C   UNL     1      -0.939  -0.194  -0.415  0.00  0.00    +0.038 C 
ATOM     23  C   UNL     1      -0.992  -1.683  -0.092  0.00  0.00    +0.113 C 
ATOM     24  C   UNL     1      -0.202  -1.989   1.176  0.00  0.00    +0.041 C 
ATOM     25  C   UNL     1       1.253  -1.550   0.990  0.00  0.00    -0.032 C 
ATOM     26  C   UNL     1       1.298  -0.050   0.690  0.00  0.00    +0.009 C 
ATOM     27  C   UNL     1       2.040  -1.837   2.270  0.00  0.00    +0.011 C 
ATOM     28  C   UNL     1       1.874  -2.322  -0.175  0.00  0.00    +0.011 C 
ATOM     29  C   UNL     1      -2.425  -2.140   0.056  0.00  0.00    +0.247 C 
ATOM     30  O   UNL     1      -3.239  -1.753   0.868  0.00  0.00    -0.273 OA
ATOM     31  N   UNL     1      -2.609  -3.068  -0.906  0.00  0.00    -0.215 N 
ATOM     32  C   UNL     1      -1.498  -3.254  -1.629  0.00  0.00    +0.310 C 
ATOM     33  O   UNL     1      -1.417  -4.040  -2.554  0.00  0.00    -0.252 OA
ATOM     34  N   UNL     1      -0.481  -2.473  -1.219  0.00  0.00    -0.285 N 
ATOM     35  H   UNL     1       0.413  -2.439  -1.594  0.00  0.00    +0.151 HD
ENDBRANCH  19  31
ENDBRANCH   1  19
TORSDOF 5
