REMARK  Name = ZINC11128985
REMARK  8 active torsions:
REMARK  status: ('A' for Active; 'I' for Inactive)
REMARK    1  A    between atoms: C_1  and  C_2
REMARK    2  A    between atoms: C_2  and  C_3
REMARK    3  A    between atoms: C_8  and  N_9
REMARK    4  A    between atoms: C_13  and  S_14
REMARK    5  A    between atoms: S_14  and  C_15
REMARK    6  A    between atoms: C_15  and  C_16
REMARK    7  A    between atoms: C_20  and  C_26
REMARK    8  A    between atoms: C_21  and  C_25
REMARK                            x       y       z     vdW  Elec       q    Type
REMARK                         _______ _______ _______ _____ _____    ______ ____
ROOT
ATOM      1  N   UNL     1      -3.770  -5.393   2.732  0.00  0.00    -0.258 N 
ATOM      2  C   UNL     1      -4.547  -6.262   2.016  0.00  0.00    +0.225 A 
ATOM      3  N   UNL     1      -4.334  -6.042   0.742  0.00  0.00    -0.112 NA
ATOM      4  N   UNL     1      -3.401  -5.002   0.631  0.00  0.00    -0.120 NA
ATOM      5  C   UNL     1      -3.067  -4.626   1.842  0.00  0.00    +0.198 A 
ATOM      6  N   UNL     1      -5.411  -7.212   2.547  0.00  0.00    -0.295 N 
ATOM      7  C   UNL     1      -4.700  -8.119   3.459  0.00  0.00    +0.136 C 
ATOM      8  C   UNL     1      -5.697  -9.109   4.066  0.00  0.00    +0.179 C 
ATOM      9  O   UNL     1      -6.363  -9.813   3.013  0.00  0.00    -0.377 OA
ATOM     10  C   UNL     1      -7.066  -8.960   2.106  0.00  0.00    +0.179 C 
ATOM     11  C   UNL     1      -6.083  -7.968   1.480  0.00  0.00    +0.136 C 
ENDROOT
BRANCH   1  17
ATOM     12  C   UNL     1      -2.784  -6.069   4.833  0.00  0.00    -0.024 A 
ATOM     13  C   UNL     1      -2.718  -5.976   6.210  0.00  0.00    +0.005 A 
ATOM     14  C   UNL     1      -3.575  -5.129   6.888  0.00  0.00    +0.000 A 
ATOM     15  C   UNL     1      -4.496  -4.369   6.191  0.00  0.00    +0.002 A 
ATOM     16  C   UNL     1      -4.563  -4.454   4.814  0.00  0.00    +0.026 A 
ATOM     17  C   UNL     1      -3.704  -5.304   4.130  0.00  0.00    +0.055 A 
BRANCH  12  19
ATOM     18  C   UNL     1      -0.625  -6.218   3.623  0.00  0.00    +0.009 C 
ATOM     19  C   UNL     1      -1.854  -6.997   4.095  0.00  0.00    +0.034 C 
ENDBRANCH  12  19
ENDBRANCH   1  17
BRANCH   5  20
ATOM     20  S   UNL     1      -1.920  -3.352   2.251  0.00  0.00    -0.078 S 
BRANCH  20  21
ATOM     21  C   UNL     1      -1.350  -2.741   0.641  0.00  0.00    +0.153 C 
BRANCH  21  22
ATOM     22  C   UNL     1      -0.350  -1.633   0.850  0.00  0.00    +0.143 A 
ATOM     23  N   UNL     1       0.933  -1.931   0.948  0.00  0.00    -0.216 NA
ATOM     24  C   UNL     1       1.859  -1.004   1.132  0.00  0.00    +0.128 A 
ATOM     25  C   UNL     1       1.466   0.360   1.228  0.00  0.00    +0.050 A 
ATOM     26  C   UNL     1       2.277   1.548   1.426  0.00  0.00    -0.028 A 
ATOM     27  C   UNL     1       1.678   2.747   1.485  0.00  0.00    -0.008 A 
ATOM     28  S   UNL     1      -0.050   2.361   1.274  0.00  0.00    -0.074 S 
ATOM     29  C   UNL     1       0.079   0.599   1.113  0.00  0.00    +0.114 A 
ATOM     30  N   UNL     1      -0.776  -0.387   0.930  0.00  0.00    -0.224 NA
ATOM     31  C   UNL     1       2.314   4.099   1.682  0.00  0.00    +0.052 C 
ATOM     32  C   UNL     1       3.773   1.436   1.565  0.00  0.00    +0.045 C 
ATOM     33  N   UNL     1       3.193  -1.356   1.230  0.00  0.00    -0.343 N 
ATOM     34  H   UNL     1       3.881  -0.735   0.945  0.00  0.00    +0.144 HD
ATOM     35  H   UNL     1       3.441  -2.225   1.584  0.00  0.00    +0.144 HD
ENDBRANCH  21  22
ENDBRANCH  20  21
ENDBRANCH   5  20
TORSDOF 5
