REMARK  Name = ZINC63786785
REMARK  5 active torsions:
REMARK  status: ('A' for Active; 'I' for Inactive)
REMARK    1  A    between atoms: C_7  and  C_10
REMARK    2  A    between atoms: C_10  and  C_11
REMARK    3  A    between atoms: N_15  and  C_19
REMARK    4  A    between atoms: C_19  and  C_20
REMARK    5  A    between atoms: N_22  and  C_23
REMARK                            x       y       z     vdW  Elec       q    Type
REMARK                         _______ _______ _______ _____ _____    ______ ____
ROOT
ATOM      1  C   UNL     1       0.489  -3.663  -1.472  0.00  0.00    +0.165 C 
ATOM      2  C   UNL     1      -0.513  -4.800  -1.500  0.00  0.00    +0.244 C 
ATOM      3  O   UNL     1      -1.666  -4.769  -1.127  0.00  0.00    -0.273 OA
ATOM      4  N   UNL     1       0.144  -5.852  -2.026  0.00  0.00    -0.216 N 
ATOM      5  C   UNL     1       1.409  -5.541  -2.332  0.00  0.00    +0.310 C 
ATOM      6  O   UNL     1       2.199  -6.325  -2.819  0.00  0.00    -0.252 OA
ATOM      7  N   UNL     1       1.710  -4.259  -2.041  0.00  0.00    -0.287 N 
ATOM      8  H   UNL     1       2.562  -3.815  -2.178  0.00  0.00    +0.151 HD
ENDROOT
BRANCH   1   9
ATOM      9  C   UNL     1       0.735  -3.197  -0.036  0.00  0.00    +0.065 C 
BRANCH   9  16
ATOM     10  C   UNL     1       0.041   1.338   0.009  0.00  0.00    +0.001 A 
ATOM     11  C   UNL     1       1.224   2.088  -0.006  0.00  0.00    +0.002 A 
ATOM     12  C   UNL     1       2.448   1.519  -0.031  0.00  0.00    +0.026 A 
ATOM     13  C   UNL     1       2.582   0.103  -0.043  0.00  0.00    +0.043 A 
ATOM     14  N   UNL     1       3.638  -0.673  -0.068  0.00  0.00    -0.380 N 
ATOM     15  C   UNL     1       3.191  -2.071  -0.070  0.00  0.00    +0.144 C 
ATOM     16  C   UNL     1       1.679  -2.022  -0.043  0.00  0.00    -0.039 C 
ATOM     17  C   UNL     1       1.346  -0.712  -0.028  0.00  0.00    -0.001 A 
ATOM     18  C   UNL     1       0.055  -0.014   0.000  0.00  0.00    +0.010 A 
ATOM     19  H   UNL     1       4.561  -0.374  -0.082  0.00  0.00    +0.160 HD
ENDBRANCH   9  16
ENDBRANCH   1   9
BRANCH   4  20
ATOM     20  C   UNL     1      -0.452  -7.173  -2.237  0.00  0.00    +0.214 C 
BRANCH  20  21
ATOM     21  C   UNL     1      -1.069  -7.232  -3.611  0.00  0.00    +0.235 C 
ATOM     22  O   UNL     1      -1.015  -6.266  -4.342  0.00  0.00    -0.274 OA
ATOM     23  N   UNL     1      -1.680  -8.359  -4.027  0.00  0.00    -0.282 N 
ATOM     24  H   UNL     1      -1.667  -9.153  -3.469  0.00  0.00    +0.155 HD
BRANCH  23  25
ATOM     25  C   UNL     1      -2.334  -8.385  -5.267  0.00  0.00    +0.072 A 
ATOM     26  C   UNL     1      -1.829  -7.656  -6.334  0.00  0.00    +0.029 A 
ATOM     27  C   UNL     1      -2.474  -7.681  -7.556  0.00  0.00    +0.043 A 
ATOM     28  C   UNL     1      -3.625  -8.433  -7.717  0.00  0.00    +0.161 A 
ATOM     29  C   UNL     1      -4.134  -9.163  -6.654  0.00  0.00    +0.195 A 
ATOM     30  C   UNL     1      -3.486  -9.145  -5.429  0.00  0.00    +0.182 A 
ATOM     31  F   UNL     1      -3.977  -9.860  -4.394  0.00  0.00    -0.200 F 
ATOM     32  F   UNL     1      -5.258  -9.895  -6.813  0.00  0.00    -0.199 F 
ATOM     33  F   UNL     1      -4.254  -8.456  -8.913  0.00  0.00    -0.202 F 
ENDBRANCH  23  25
ENDBRANCH  20  21
ENDBRANCH   4  20
TORSDOF 5
