REMARK  Name = ZINC13064585
REMARK  11 active torsions:
REMARK  status: ('A' for Active; 'I' for Inactive)
REMARK    1  A    between atoms: C_1  and  C_2
REMARK    2  A    between atoms: C_2  and  C_3
REMARK    3  A    between atoms: C_3  and  C_5
REMARK    4  A    between atoms: C_3  and  N_68
REMARK    5  A    between atoms: N_9  and  C_10
REMARK    6  A    between atoms: C_15  and  C_16
REMARK    7  A    between atoms: C_15  and  N_68
REMARK    8  A    between atoms: C_22  and  C_23
REMARK    9  A    between atoms: C_22  and  N_68
REMARK   10  A    between atoms: C_27  and  C_36
REMARK   11  A    between atoms: C_28  and  C_35
REMARK                            x       y       z     vdW  Elec       q    Type
REMARK                         _______ _______ _______ _____ _____    ______ ____
ROOT
ATOM      1  N   UNL     1      -5.414   4.096  -1.430  0.00  0.00    +0.392 N 
ATOM      2  H   UNL     1      -4.718   4.633  -1.962  0.00  0.00    -0.080 HD
ENDROOT
BRANCH   1   3
ATOM      3  C   UNL     1      -6.694   4.835  -1.431  0.00  0.00    +0.003 C 
BRANCH   3   4
ATOM      4  C   UNL     1      -7.660   4.218  -0.453  0.00  0.00    +0.138 A 
ATOM      5  N   UNL     1      -7.415   3.899   0.794  0.00  0.00    -0.115 NA
ATOM      6  N   UNL     1      -8.491   3.399   1.296  0.00  0.00    -0.023 NA
ATOM      7  N   UNL     1      -9.416   3.391   0.402  0.00  0.00    -0.044 NA
ATOM      8  N   UNL     1      -8.945   3.893  -0.689  0.00  0.00    -0.228 N 
BRANCH   8   9
ATOM      9  C   UNL     1      -9.670   4.072  -1.949  0.00  0.00    +0.111 C 
ATOM     10  C   UNL     1     -10.914   4.957  -1.722  0.00  0.00    +0.027 C 
ATOM     11  C   UNL     1     -11.992   4.340  -2.648  0.00  0.00    +0.002 C 
ATOM     12  C   UNL     1     -11.721   2.820  -2.525  0.00  0.00    +0.002 C 
ATOM     13  C   UNL     1     -10.183   2.714  -2.460  0.00  0.00    +0.027 C 
ENDBRANCH   8   9
ENDBRANCH   3   4
BRANCH   3  15
ATOM     14  C   UNL     1      -5.559   6.956  -2.105  0.00  0.00    +0.002 C 
ATOM     15  C   UNL     1      -6.424   6.287  -1.035  0.00  0.00    -0.011 C 
ENDBRANCH   3  15
ENDBRANCH   1   3
BRANCH   1  16
ATOM     16  C   UNL     1      -5.592   2.776  -2.071  0.00  0.00    -0.040 C 
BRANCH  16  17
ATOM     17  C   UNL     1      -5.778   2.977  -3.553  0.00  0.00    -0.046 A 
ATOM     18  C   UNL     1      -7.050   2.998  -4.104  0.00  0.00    +0.005 A 
ATOM     19  C   UNL     1      -7.174   3.190  -5.471  0.00  0.00    +0.020 A 
ATOM     20  C   UNL     1      -6.032   3.344  -6.236  0.00  0.00    +0.111 A 
ATOM     21  N   UNL     1      -4.838   3.313  -5.678  0.00  0.00    -0.263 NA
ATOM     22  C   UNL     1      -4.683   3.137  -4.380  0.00  0.00    +0.112 A 
ENDBRANCH  16  17
ENDBRANCH   1  16
BRANCH   1  23
ATOM     23  C   UNL     1      -4.931   3.924  -0.044  0.00  0.00    -0.036 C 
BRANCH  23  24
ATOM     24  C   UNL     1      -3.453   3.633  -0.081  0.00  0.00    +0.001 A 
ATOM     25  C   UNL     1      -2.561   4.645   0.066  0.00  0.00    +0.017 A 
ATOM     26  C   UNL     1      -1.132   4.330   0.020  0.00  0.00    -0.001 A 
ATOM     27  C   UNL     1      -0.166   5.334   0.147  0.00  0.00    +0.013 A 
ATOM     28  C   UNL     1       1.159   5.007   0.099  0.00  0.00    -0.047 A 
ATOM     29  C   UNL     1       1.556   3.688  -0.074  0.00  0.00    -0.046 A 
ATOM     30  C   UNL     1       0.622   2.683  -0.201  0.00  0.00    +0.030 A 
ATOM     31  C   UNL     1      -0.734   2.992  -0.162  0.00  0.00    +0.049 A 
ATOM     32  N   UNL     1      -1.690   2.008  -0.292  0.00  0.00    -0.322 N 
ATOM     33  H   UNL     1      -1.414   1.086  -0.413  0.00  0.00    +0.169 HD
ATOM     34  C   UNL     1      -3.000   2.308  -0.255  0.00  0.00    +0.251 A 
ATOM     35  O   UNL     1      -3.818   1.412  -0.374  0.00  0.00    -0.268 OA
ATOM     36  C   UNL     1       3.025   3.352  -0.123  0.00  0.00    +0.044 C 
ATOM     37  C   UNL     1       2.200   6.088   0.237  0.00  0.00    +0.044 C 
ENDBRANCH  23  24
ENDBRANCH   1  23
TORSDOF 8
