REMARK  Name = ZINC14625144
REMARK  11 active torsions:
REMARK  status: ('A' for Active; 'I' for Inactive)
REMARK    1  A    between atoms: C_1  and  C_2
REMARK    2  A    between atoms: C_2  and  C_3
REMARK    3  A    between atoms: C_3  and  C_4
REMARK    4  A    between atoms: C_4  and  N_5
REMARK    5  A    between atoms: C_6  and  N_36
REMARK    6  A    between atoms: C_7  and  N_14
REMARK    7  A    between atoms: N_14  and  C_15
REMARK    8  A    between atoms: C_15  and  C_16
REMARK    9  A    between atoms: C_22  and  C_24
REMARK   10  A    between atoms: C_24  and  C_25
REMARK   11  A    between atoms: C_28  and  C_30
REMARK                            x       y       z     vdW  Elec       q    Type
REMARK                         _______ _______ _______ _____ _____    ______ ____
ROOT
ATOM      1  N   UNL     1       1.105   3.573   0.033  0.00  0.00    -0.260 N 
ATOM      2  C   UNL     1      -0.035   4.180   0.424  0.00  0.00    +0.226 C 
ATOM      3  O   UNL     1      -1.088   3.580   0.380  0.00  0.00    -0.275 OA
ENDROOT
BRANCH   1   6
ATOM      4  N   UNL     1       1.712  -0.051   0.087  0.00  0.00    -0.280 N 
ATOM      5  C   UNL     1       1.745   1.274   0.457  0.00  0.00    +0.127 A 
ATOM      6  C   UNL     1       1.091   2.207  -0.321  0.00  0.00    +0.140 A 
ATOM      7  C   UNL     1       0.409   1.773  -1.473  0.00  0.00    +0.277 A 
ATOM      8  O   UNL     1      -0.177   2.576  -2.179  0.00  0.00    -0.266 OA
ATOM      9  N   UNL     1       0.409   0.464  -1.792  0.00  0.00    -0.273 N 
ATOM     10  H   UNL     1      -0.075   0.154  -2.610  0.00  0.00    +0.173 HD
ATOM     11  C   UNL     1       1.051  -0.432  -1.021  0.00  0.00    +0.331 A 
ATOM     12  O   UNL     1       1.035  -1.607  -1.332  0.00  0.00    -0.246 OA
BRANCH   5  13
ATOM     13  N   UNL     1       2.415   1.662   1.592  0.00  0.00    -0.343 N 
ATOM     14  H   UNL     1       2.806   0.994   2.178  0.00  0.00    +0.144 HD
ATOM     15  H   UNL     1       2.498   2.604   1.808  0.00  0.00    +0.144 HD
ENDBRANCH   5  13
BRANCH   4  16
ATOM     16  C   UNL     1       2.402  -1.052   0.904  0.00  0.00    +0.128 C 
BRANCH  16  17
ATOM     17  C   UNL     1       1.443  -1.590   1.968  0.00  0.00    +0.021 C 
BRANCH  17  19
ATOM     18  C   UNL     1       1.204  -3.174   3.885  0.00  0.00    +0.004 C 
ATOM     19  C   UNL     1       2.163  -2.636   2.821  0.00  0.00    -0.002 C 
ENDBRANCH  17  19
ENDBRANCH  16  17
ENDBRANCH   4  16
ENDBRANCH   1   6
BRANCH   1  20
ATOM     20  C   UNL     1       2.357   4.331  -0.024  0.00  0.00    +0.149 C 
BRANCH  20  21
ATOM     21  C   UNL     1       2.583   4.823  -1.430  0.00  0.00    -0.030 A 
ATOM     22  C   UNL     1       3.215   4.010  -2.353  0.00  0.00    +0.005 A 
ATOM     23  C   UNL     1       3.418   4.459  -3.645  0.00  0.00    +0.000 A 
ATOM     24  C   UNL     1       2.999   5.725  -4.011  0.00  0.00    +0.000 A 
ATOM     25  C   UNL     1       2.372   6.539  -3.086  0.00  0.00    +0.000 A 
ATOM     26  C   UNL     1       2.164   6.088  -1.796  0.00  0.00    +0.005 A 
ENDBRANCH  20  21
ENDBRANCH   1  20
BRANCH   2  27
ATOM     27  C   UNL     1       0.001   5.605   0.914  0.00  0.00    +0.152 C 
BRANCH  27  28
ATOM     28  C   UNL     1      -1.362   5.994   1.426  0.00  0.00    +0.058 A 
ATOM     29  C   UNL     1      -1.504   6.471   2.691  0.00  0.00    +0.071 A 
ATOM     30  S   UNL     1      -3.269   6.757   2.740  0.00  0.00    -0.075 S 
ATOM     31  C   UNL     1      -3.625   6.203   1.077  0.00  0.00    +0.109 A 
ATOM     32  N   UNL     1      -2.415   5.868   0.652  0.00  0.00    -0.243 NA
BRANCH  31  33
ATOM     33  C   UNL     1      -4.921   6.136   0.368  0.00  0.00    +0.007 A 
ATOM     34  C   UNL     1      -4.977   5.670  -0.946  0.00  0.00    +0.010 A 
ATOM     35  C   UNL     1      -6.190   5.605  -1.601  0.00  0.00    +0.001 A 
ATOM     36  C   UNL     1      -7.347   6.011  -0.961  0.00  0.00    +0.000 A 
ATOM     37  C   UNL     1      -7.298   6.479   0.340  0.00  0.00    +0.001 A 
ATOM     38  C   UNL     1      -6.092   6.544   1.008  0.00  0.00    +0.010 A 
ENDBRANCH  31  33
ENDBRANCH  27  28
ENDBRANCH   2  27
TORSDOF 10
