REMARK  Name = ZINC51694996
REMARK  4 active torsions:
REMARK  status: ('A' for Active; 'I' for Inactive)
REMARK    1  A    between atoms: C_3  and  S_9
REMARK    2  A    between atoms: S_9  and  N_12
REMARK    3  A    between atoms: N_12  and  C_13
REMARK    4  A    between atoms: C_16  and  N_19
REMARK                            x       y       z     vdW  Elec       q    Type
REMARK                         _______ _______ _______ _____ _____    ______ ____
ROOT
ATOM      1  N   UNL     1       4.603   2.094   1.455  0.00  0.00    -0.187 NA
ATOM      2  H   UNL     1       4.562   2.801   2.118  0.00  0.00    +0.148 HD
ENDROOT
BRANCH   1   3
ATOM      3  C   UNL     1       5.155   0.785   1.814  0.00  0.00    +0.076 C 
ATOM      4  C   UNL     1       4.074  -0.056   2.494  0.00  0.00    +0.019 C 
ATOM      5  C   UNL     1       3.592   0.658   3.759  0.00  0.00    -0.015 C 
ATOM      6  C   UNL     1       4.770   0.847   4.717  0.00  0.00    -0.075 C 
ATOM      7  C   UNL     1       5.852   1.688   4.037  0.00  0.00    -0.015 C 
ATOM      8  C   UNL     1       6.333   0.974   2.772  0.00  0.00    +0.019 C 
BRANCH   6   9
ATOM      9  N   UNL     1       4.308   1.532   5.932  0.00  0.00    +0.380 N 
ATOM     10  H   UNL     1       3.595   0.978   6.380  0.00  0.00    -0.090 HD
ATOM     11  H   UNL     1       5.085   1.657   6.564  0.00  0.00    -0.090 HD
ATOM     12  H   UNL     1       3.928   2.434   5.685  0.00  0.00    -0.090 HD
ENDBRANCH   6   9
ENDBRANCH   1   3
BRANCH   1  13
ATOM     13  S   UNL     1       4.047   2.365  -0.081  0.00  0.00    +0.060 S 
ATOM     14  O   UNL     1       5.053   1.894  -0.966  0.00  0.00    -0.153 OA
ATOM     15  O   UNL     1       3.573   3.705  -0.110  0.00  0.00    -0.153 OA
BRANCH  13  18
ATOM     16  C   UNL     1       1.580  -0.500  -1.440  0.00  0.00    +0.017 A 
ATOM     17  C   UNL     1       2.682   0.314  -1.255  0.00  0.00    +0.031 A 
ATOM     18  C   UNL     1       2.642   1.329  -0.318  0.00  0.00    +0.119 A 
ATOM     19  C   UNL     1       1.499   1.531   0.435  0.00  0.00    +0.045 A 
ATOM     20  C   UNL     1       0.396   0.717   0.250  0.00  0.00    +0.032 A 
ATOM     21  C   UNL     1       0.437  -0.299  -0.689  0.00  0.00    +0.019 A 
ATOM     22 BR   UNL     1      -1.071  -1.412  -0.943  0.00  0.00    -0.050 Br
ATOM     23 BR   UNL     1       1.444   2.919   1.718  0.00  0.00    -0.048 Br
ENDBRANCH  13  18
ENDBRANCH   1  13
TORSDOF 4
