REMARK  Name = ZINC02643765
REMARK  1 active torsions:
REMARK  status: ('A' for Active; 'I' for Inactive)
REMARK    1  A    between atoms: C_6  and  C_7
REMARK                            x       y       z     vdW  Elec       q    Type
REMARK                         _______ _______ _______ _____ _____    ______ ____
ROOT
ATOM      1  C   UNL     1      -0.170   2.710   1.951  0.00  0.00    +0.196 C 
ATOM      2  N   UNL     1      -0.016   2.432   3.388  0.00  0.00    -0.149 NA
ATOM      3  S   UNL     1      -1.305   1.733   4.169  0.00  0.00    +0.139 S 
ATOM      4  O   UNL     1      -0.766   0.789   5.085  0.00  0.00    -0.134 OA
ATOM      5  O   UNL     1      -2.160   2.793   4.576  0.00  0.00    -0.134 OA
ATOM      6  N   UNL     1      -2.123   0.870   3.032  0.00  0.00    -0.107 NA
ATOM      7  C   UNL     1      -1.785   0.829   1.796  0.00  0.00    +0.122 C 
ATOM      8  N   UNL     1      -0.687   1.515   1.289  0.00  0.00    -0.296 N 
ATOM      9  C   UNL     1      -0.097   1.023   0.057  0.00  0.00    +0.108 C 
ATOM     10  C   UNL     1      -0.831   1.467  -1.185  0.00  0.00    +0.019 C 
ATOM     11  C   UNL     1      -2.073   0.661  -1.497  0.00  0.00    +0.002 C 
ATOM     12  C   UNL     1      -3.062   0.864  -0.331  0.00  0.00    +0.008 C 
ATOM     13  C   UNL     1      -2.583  -0.006   0.834  0.00  0.00    +0.073 C 
ATOM     14  H   UNL     1       0.804   2.647   3.859  0.00  0.00    +0.152 HD
ENDROOT
BRANCH   1  20
ATOM     15  C   UNL     1      -2.472   3.685   2.074  0.00  0.00    +0.008 A 
ATOM     16  C   UNL     1      -3.357   4.732   1.902  0.00  0.00    +0.015 A 
ATOM     17  C   UNL     1      -2.909   5.943   1.407  0.00  0.00    +0.018 A 
ATOM     18  C   UNL     1      -1.573   6.107   1.087  0.00  0.00    +0.015 A 
ATOM     19  C   UNL     1      -0.687   5.061   1.264  0.00  0.00    +0.008 A 
ATOM     20  C   UNL     1      -1.136   3.851   1.760  0.00  0.00    -0.011 A 
ATOM     21 BR   UNL     1      -4.121   7.375   1.166  0.00  0.00    -0.050 Br
ENDBRANCH   1  20
TORSDOF 1
