REMARK  Name = ZINC39446071
REMARK  8 active torsions:
REMARK  status: ('A' for Active; 'I' for Inactive)
REMARK    1  A    between atoms: C_1  and  C_2
REMARK    2  A    between atoms: C_2  and  O_3
REMARK    3  A    between atoms: O_3  and  C_4
REMARK    4  A    between atoms: C_6  and  C_11
REMARK    5  A    between atoms: C_9  and  O_10
REMARK    6  A    between atoms: N_17  and  C_18
REMARK    7  A    between atoms: C_21  and  C_24
REMARK    8  A    between atoms: C_29  and  C_31
REMARK                            x       y       z     vdW  Elec       q    Type
REMARK                         _______ _______ _______ _____ _____    ______ ____
ROOT
ATOM      1  C   UNL     1       0.654  -4.954  -0.018  0.00  0.00    +0.143 C 
ATOM      2  C   UNL     1       0.914  -5.486   1.361  0.00  0.00    +0.015 C 
ATOM      3  C   UNL     1       0.819  -6.832   1.308  0.00  0.00    +0.149 C 
ATOM      4  C   UNL     1       0.498  -7.222  -0.082  0.00  0.00    +0.272 C 
ATOM      5  O   UNL     1       0.345  -8.365  -0.465  0.00  0.00    -0.268 OA
ATOM      6  N   UNL     1       0.402  -6.129  -0.863  0.00  0.00    -0.255 N 
ATOM      7  N   UNL     1       1.051  -7.350   2.552  0.00  0.00    -0.173 NA
ATOM      8  N   UNL     1       1.289  -6.512   3.423  0.00  0.00    -0.297 N 
ATOM      9  C   UNL     1       1.240  -5.177   2.801  0.00  0.00    +0.159 C 
ATOM     10  H   UNL     1       1.476  -6.699   4.356  0.00  0.00    +0.183 HD
ENDROOT
BRANCH   1  13
ATOM     11  C   UNL     1      -1.498  -1.849   0.006  0.00  0.00    +0.162 A 
ATOM     12  C   UNL     1      -0.389  -2.680  -0.003  0.00  0.00    +0.055 A 
ATOM     13  C   UNL     1      -0.553  -4.052  -0.008  0.00  0.00    -0.019 A 
ATOM     14  C   UNL     1      -1.823  -4.600  -0.005  0.00  0.00    +0.009 A 
ATOM     15  C   UNL     1      -2.934  -3.777   0.004  0.00  0.00    +0.049 A 
ATOM     16  C   UNL     1      -2.776  -2.400   0.016  0.00  0.00    +0.158 A 
BRANCH  16  17
ATOM     17  O   UNL     1      -3.868  -1.589   0.030  0.00  0.00    -0.503 OA
ATOM     18  H   UNL     1      -4.192  -1.350  -0.849  0.00  0.00    +0.292 HD
ENDBRANCH  16  17
BRANCH  11  19
ATOM     19  O   UNL     1      -1.339  -0.499   0.012  0.00  0.00    -0.489 OA
BRANCH  19  21
ATOM     20  C   UNL     1      -0.019   1.526   0.010  0.00  0.00    +0.048 C 
ATOM     21  C   UNL     1       0.002  -0.004   0.002  0.00  0.00    +0.226 C 
ENDBRANCH  19  21
ENDBRANCH  11  19
ENDBRANCH   1  13
BRANCH   6  22
ATOM     22  C   UNL     1       0.113  -6.115  -2.225  0.00  0.00    +0.038 A 
ATOM     23  C   UNL     1       0.050  -4.903  -2.909  0.00  0.00    +0.024 A 
ATOM     24  C   UNL     1      -0.234  -4.885  -4.250  0.00  0.00    +0.017 A 
ATOM     25  C   UNL     1      -0.460  -6.086  -4.932  0.00  0.00    +0.063 A 
ATOM     26  C   UNL     1      -0.394  -7.301  -4.242  0.00  0.00    +0.017 A 
ATOM     27  C   UNL     1      -0.105  -7.312  -2.902  0.00  0.00    +0.024 A 
BRANCH  25  28
ATOM     28  C   UNL     1      -0.765  -6.070  -6.372  0.00  0.00    +0.387 C 
ATOM     29  O   UNL     1      -0.822  -5.006  -6.974  0.00  0.00    -0.241 OA
ATOM     30  O   UNL     1      -0.962  -7.121  -6.967  0.00  0.00    -0.241 OA
ENDBRANCH  25  28
ENDBRANCH   6  22
BRANCH   9  31
ATOM     31  C   UNL     1       0.155  -4.338   3.425  0.00  0.00    -0.020 A 
ATOM     32  C   UNL     1      -1.008  -4.934   3.874  0.00  0.00    +0.006 A 
ATOM     33  C   UNL     1      -2.004  -4.165   4.446  0.00  0.00    +0.000 A 
ATOM     34  C   UNL     1      -1.836  -2.798   4.570  0.00  0.00    +0.000 A 
ATOM     35  C   UNL     1      -0.672  -2.201   4.122  0.00  0.00    +0.000 A 
ATOM     36  C   UNL     1       0.325  -2.972   3.554  0.00  0.00    +0.006 A 
ENDBRANCH   9  31
TORSDOF 7
