REMARK  Name = ZINC22132737
REMARK  16 active torsions:
REMARK  status: ('A' for Active; 'I' for Inactive)
REMARK    1  A    between atoms: C_1  and  C_2
REMARK    2  A    between atoms: C_2  and  C_3
REMARK    3  A    between atoms: C_3  and  C_4
REMARK    4  A    between atoms: C_4  and  N_5
REMARK    5  A    between atoms: N_5  and  C_6
REMARK    6  A    between atoms: C_7  and  N_19
REMARK    7  A    between atoms: N_8  and  C_15
REMARK    8  A    between atoms: C_15  and  C_16
REMARK    9  A    between atoms: C_16  and  C_17
REMARK   10  A    between atoms: C_16  and  C_18
REMARK   11  A    between atoms: C_20  and  C_22
REMARK   12  A    between atoms: C_22  and  S_23
REMARK   13  A    between atoms: S_23  and  C_24
REMARK   14  A    between atoms: N_28  and  C_29
REMARK   15  A    between atoms: C_32  and  C_36
REMARK   16  A    between atoms: C_34  and  C_35
REMARK                            x       y       z     vdW  Elec       q    Type
REMARK                         _______ _______ _______ _____ _____    ______ ____
ROOT
ATOM      1  N   UNL     1      -5.158   0.151   0.109  0.00  0.00    -0.264 N 
ATOM      2  C   UNL     1      -4.075  -0.632   0.301  0.00  0.00    +0.230 C 
ATOM      3  O   UNL     1      -4.213  -1.821   0.495  0.00  0.00    -0.274 OA
ENDROOT
BRANCH   1   4
ATOM      4  C   UNL     1      -6.442  -0.428   0.036  0.00  0.00    +0.140 A 
ATOM      5  C   UNL     1      -6.759  -1.310  -0.977  0.00  0.00    +0.127 A 
ATOM      6  N   UNL     1      -8.020  -1.858  -1.021  0.00  0.00    -0.280 N 
ATOM      7  C   UNL     1      -8.934  -1.537  -0.087  0.00  0.00    +0.331 A 
ATOM      8  O   UNL     1     -10.044  -2.032  -0.144  0.00  0.00    -0.246 OA
ATOM      9  N   UNL     1      -8.644  -0.680   0.907  0.00  0.00    -0.273 N 
ATOM     10  H   UNL     1      -9.408  -0.428   1.657  0.00  0.00    +0.173 HD
ATOM     11  C   UNL     1      -7.422  -0.120   1.000  0.00  0.00    +0.277 A 
ATOM     12  O   UNL     1      -7.167   0.652   1.908  0.00  0.00    -0.266 OA
BRANCH   5  13
ATOM     13  N   UNL     1      -5.825  -1.637  -1.931  0.00  0.00    -0.343 N 
ATOM     14  H   UNL     1      -6.084  -2.340  -2.735  0.00  0.00    +0.144 HD
ATOM     15  H   UNL     1      -4.819  -1.195  -1.889  0.00  0.00    +0.144 HD
ENDBRANCH   5  13
BRANCH   6  16
ATOM     16  C   UNL     1      -8.369  -2.796  -2.090  0.00  0.00    +0.131 C 
BRANCH  16  17
ATOM     17  C   UNL     1      -8.042  -4.222  -1.645  0.00  0.00    +0.003 C 
ATOM     18  C   UNL     1      -8.935  -4.605  -0.463  0.00  0.00    +0.009 C 
ATOM     19  C   UNL     1      -8.289  -5.188  -2.805  0.00  0.00    +0.009 C 
ENDBRANCH  16  17
ENDBRANCH   6  16
ENDBRANCH   1   4
BRANCH   1  20
ATOM     20  C   UNL     1      -4.999   1.601  -0.024  0.00  0.00    +0.114 C 
BRANCH  20  21
ATOM     21  C   UNL     1      -4.857   1.965  -1.504  0.00  0.00    +0.019 C 
BRANCH  21  23
ATOM     22  C   UNL     1      -4.550   3.843  -3.122  0.00  0.00    +0.004 C 
ATOM     23  C   UNL     1      -4.691   3.479  -1.643  0.00  0.00    -0.002 C 
ENDBRANCH  21  23
ENDBRANCH  20  21
ENDBRANCH   1  20
BRANCH   2  24
ATOM     24  C   UNL     1      -2.695  -0.028   0.276  0.00  0.00    +0.173 C 
BRANCH  24  25
ATOM     25  S   UNL     1      -1.464  -1.323   0.563  0.00  0.00    -0.078 S 
BRANCH  25  26
ATOM     26  C   UNL     1       0.013  -0.365   0.482  0.00  0.00    +0.174 A 
ATOM     27  N   UNL     1       0.079   0.928   0.268  0.00  0.00    -0.230 NA
ATOM     28  C   UNL     1       1.366   1.315   0.274  0.00  0.00    +0.131 A 
ATOM     29  C   UNL     1       2.133   0.235   0.499  0.00  0.00    +0.113 A 
ATOM     30  N   UNL     1       1.282  -0.841   0.633  0.00  0.00    -0.294 N 
BRANCH  30  31
ATOM     31  C   UNL     1       1.651  -2.171   0.878  0.00  0.00    +0.051 A 
ATOM     32  C   UNL     1       2.264  -2.514   2.076  0.00  0.00    +0.027 A 
ATOM     33  C   UNL     1       2.626  -3.825   2.315  0.00  0.00    +0.005 A 
ATOM     34  C   UNL     1       2.378  -4.797   1.363  0.00  0.00    -0.050 A 
ATOM     35  C   UNL     1       1.768  -4.459   0.169  0.00  0.00    +0.008 A 
ATOM     36  C   UNL     1       1.399  -3.150  -0.073  0.00  0.00    -0.026 A 
ATOM     37  C   UNL     1       0.729  -2.784  -1.373  0.00  0.00    +0.046 C 
ATOM     38  C   UNL     1       2.775  -6.226   1.627  0.00  0.00    +0.044 C 
ENDBRANCH  30  31
ENDBRANCH  25  26
ENDBRANCH  24  25
ENDBRANCH   2  24
TORSDOF 11
