REMARK  Name = ZINC47128389
REMARK  10 active torsions:
REMARK  status: ('A' for Active; 'I' for Inactive)
REMARK    1  A    between atoms: C_1  and  C_2
REMARK    2  A    between atoms: C_2  and  C_3
REMARK    3  A    between atoms: N_12  and  C_13
REMARK    4  A    between atoms: C_13  and  C_15
REMARK    5  A    between atoms: C_13  and  C_16
REMARK    6  A    between atoms: C_19  and  N_22
REMARK    7  A    between atoms: N_25  and  C_26
REMARK    8  A    between atoms: N_25  and  C_28
REMARK    9  A    between atoms: C_26  and  C_27
REMARK   10  A    between atoms: C_28  and  C_29
REMARK                            x       y       z     vdW  Elec       q    Type
REMARK                         _______ _______ _______ _____ _____    ______ ____
ROOT
ATOM      1  C   UNL     1      -3.190   2.324   4.791  0.00  0.00    -0.027 A 
ATOM      2  C   UNL     1      -3.056   1.561   5.937  0.00  0.00    +0.007 A 
ATOM      3  C   UNL     1      -3.216   2.144   7.179  0.00  0.00    +0.023 A 
ATOM      4  C   UNL     1      -3.512   3.497   7.276  0.00  0.00    +0.035 A 
ATOM      5  C   UNL     1      -3.646   4.260   6.124  0.00  0.00    +0.023 A 
ATOM      6  C   UNL     1      -3.478   3.673   4.885  0.00  0.00    +0.007 A 
ENDROOT
BRANCH   4   7
ATOM      7  N   UNL     1      -3.676   4.090   8.533  0.00  0.00    -0.269 N 
ATOM      8  C   UNL     1      -2.933   3.673   9.577  0.00  0.00    +0.306 C 
ATOM      9  O   UNL     1      -2.054   2.849   9.408  0.00  0.00    -0.252 OA
ATOM     10  N   UNL     1      -3.164   4.168  10.809  0.00  0.00    -0.286 N 
ATOM     11  H   UNL     1      -4.324   4.802   8.652  0.00  0.00    +0.156 HD
BRANCH  10  12
ATOM     12  C   UNL     1      -2.356   3.715  11.944  0.00  0.00    +0.106 C 
ATOM     13  C   UNL     1      -1.129   4.617  12.090  0.00  0.00    +0.024 C 
ENDBRANCH  10  12
BRANCH  10  14
ATOM     14  C   UNL     1      -4.222   5.160  11.013  0.00  0.00    +0.106 C 
ATOM     15  C   UNL     1      -5.536   4.446  11.333  0.00  0.00    +0.024 C 
ENDBRANCH  10  14
ENDBRANCH   4   7
BRANCH   1  16
ATOM     16  C   UNL     1      -3.014   1.685   3.438  0.00  0.00    +0.102 C 
ATOM     17  C   UNL     1      -4.300   0.953   3.048  0.00  0.00    +0.033 C 
BRANCH  16  26
ATOM     18  C   UNL     1       0.665  -0.636   1.230  0.00  0.00    +0.077 C 
ATOM     19  C   UNL     1       0.796  -2.149   1.028  0.00  0.00    +0.022 C 
ATOM     20  C   UNL     1       1.344  -2.786   2.307  0.00  0.00    +0.003 C 
ATOM     21  C   UNL     1       0.370  -2.535   3.461  0.00  0.00    +0.019 C 
ATOM     22  C   UNL     1       0.235  -1.027   3.691  0.00  0.00    +0.109 C 
ATOM     23  N   UNL     1      -0.150  -0.385   2.426  0.00  0.00    -0.283 N 
ATOM     24  C   UNL     1      -1.232   0.415   2.364  0.00  0.00    +0.303 C 
ATOM     25  O   UNL     1      -1.603   0.855   1.292  0.00  0.00    -0.253 OA
ATOM     26  N   UNL     1      -1.905   0.729   3.489  0.00  0.00    -0.293 N 
ATOM     27  H   UNL     1      -1.654   0.322   4.333  0.00  0.00    +0.151 HD
BRANCH  18  29
ATOM     28  C   UNL     1       0.841  -0.274  -1.236  0.00  0.00    +0.006 C 
ATOM     29  C   UNL     1      -0.011  -0.012   0.008  0.00  0.00    +0.019 C 
ENDBRANCH  18  29
ENDBRANCH  16  26
ENDBRANCH   1  16
TORSDOF 6
