REMARK  Name = ZINC38002083
REMARK  5 active torsions:
REMARK  status: ('A' for Active; 'I' for Inactive)
REMARK    1  A    between atoms: C_1  and  C_2
REMARK    2  A    between atoms: C_2  and  C_4
REMARK    3  A    between atoms: C_2  and  N_10
REMARK    4  A    between atoms: N_10  and  C_11
REMARK    5  A    between atoms: C_14  and  C_17
REMARK                            x       y       z     vdW  Elec       q    Type
REMARK                         _______ _______ _______ _____ _____    ______ ____
ROOT
ATOM      1  C   UNL     1       2.077  -0.591  -1.215  0.00  0.00    +0.028 A 
ATOM      2  C   UNL     1       2.811  -0.261  -0.080  0.00  0.00    +0.023 A 
ATOM      3  C   UNL     1       4.184  -0.373  -0.089  0.00  0.00    +0.015 A 
ATOM      4  C   UNL     1       4.839  -0.818  -1.239  0.00  0.00    +0.039 A 
ATOM      5  C   UNL     1       4.100  -1.148  -2.377  0.00  0.00    +0.015 A 
ATOM      6  C   UNL     1       2.727  -1.040  -2.360  0.00  0.00    +0.023 A 
ENDROOT
BRANCH   4   7
ATOM      7  C   UNL     1       6.312  -0.939  -1.252  0.00  0.00    +0.248 A 
ATOM      8  N   UNL     1       7.124  -0.668  -0.257  0.00  0.00    -0.108 NA
ATOM      9  N   UNL     1       8.336  -0.888  -0.627  0.00  0.00    -0.116 NA
ATOM     10  C   UNL     1       8.347  -1.304  -1.862  0.00  0.00    +0.332 A 
ATOM     11  O   UNL     1       7.071  -1.352  -2.286  0.00  0.00    -0.423 OA
ENDBRANCH   4   7
BRANCH   1  12
ATOM     12  N   UNL     1       0.688  -0.476  -1.203  0.00  0.00    -0.337 N 
ATOM     13  H   UNL     1       0.175  -0.710  -1.993  0.00  0.00    +0.147 HD
BRANCH  12  15
ATOM     14  C   UNL     1      -0.019   1.526   0.010  0.00  0.00    +0.033 C 
ATOM     15  C   UNL     1       0.002  -0.004   0.002  0.00  0.00    +0.104 C 
BRANCH  15  16
ATOM     16  C   UNL     1      -1.412  -0.526   0.013  0.00  0.00    +0.011 A 
ATOM     17  C   UNL     1      -2.141  -0.993   1.055  0.00  0.00    +0.014 A 
ATOM     18  C   UNL     1      -3.434  -1.425   0.828  0.00  0.00    +0.023 A 
ATOM     19  C   UNL     1      -3.935  -1.368  -0.431  0.00  0.00    +0.055 A 
ATOM     20  S   UNL     1      -2.563  -0.681  -1.343  0.00  0.00    -0.085 S 
ATOM     21 BR   UNL     1      -5.645  -1.878  -1.057  0.00  0.00    -0.043 Br
ENDBRANCH  15  16
ENDBRANCH  12  15
ENDBRANCH   1  12
TORSDOF 4
