REMARK  Name = ZINC02576139
REMARK  6 active torsions:
REMARK  status: ('A' for Active; 'I' for Inactive)
REMARK    1  A    between atoms: C_1  and  C_2
REMARK    2  A    between atoms: C_2  and  C_3
REMARK    3  A    between atoms: C_2  and  C_4
REMARK    4  A    between atoms: C_2  and  O_5
REMARK    5  A    between atoms: O_5  and  C_6
REMARK    6  A    between atoms: C_12  and  C_14
REMARK                            x       y       z     vdW  Elec       q    Type
REMARK                         _______ _______ _______ _____ _____    ______ ____
ROOT
ATOM      1  C   UNL     1       0.221   1.741  -0.886  0.00  0.00    +0.404 C 
ATOM      2  O   UNL     1      -0.006   0.550  -0.966  0.00  0.00    -0.226 OA
ATOM      3  N   UNL     1       1.419   2.170  -0.441  0.00  0.00    -0.264 N 
ATOM      4  C   UNL     1       1.868   3.570  -0.405  0.00  0.00    +0.111 C 
ATOM      5  C   UNL     1       3.307   3.575   0.154  0.00  0.00    +0.021 C 
ATOM      6  C   UNL     1       3.794   2.129  -0.128  0.00  0.00    +0.025 C 
ATOM      7  C   UNL     1       2.493   1.315   0.096  0.00  0.00    +0.090 C 
ENDROOT
BRANCH   7   8
ATOM      8  C   UNL     1       2.554  -0.007  -0.672  0.00  0.00    +0.102 C 
ATOM      9 BR   UNL     1       1.176  -1.229   0.016  0.00  0.00    -0.090 Br
ENDBRANCH   7   8
BRANCH   1  10
ATOM     10  O   UNL     1      -0.722   2.632  -1.246  0.00  0.00    -0.445 OA
BRANCH  10  12
ATOM     11  C   UNL     1      -2.624   1.245  -0.623  0.00  0.00    +0.055 C 
ATOM     12  C   UNL     1      -1.986   2.098  -1.721  0.00  0.00    +0.107 C 
ATOM     13  C   UNL     1      -2.924   3.252  -2.081  0.00  0.00    +0.055 C 
ATOM     14  C   UNL     1      -1.741   1.234  -2.960  0.00  0.00    +0.055 C 
ENDBRANCH  10  12
ENDBRANCH   1  10
TORSDOF 3
