REMARK  Name = ZINC21102396
REMARK  4 active torsions:
REMARK  status: ('A' for Active; 'I' for Inactive)
REMARK    1  A    between atoms: C_1  and  C_2
REMARK    2  A    between atoms: C_5  and  C_8
REMARK    3  A    between atoms: C_8  and  N_9
REMARK    4  A    between atoms: C_11  and  C_18
REMARK                            x       y       z     vdW  Elec       q    Type
REMARK                         _______ _______ _______ _____ _____    ______ ____
ROOT
ATOM      1  N   UNL     1       2.731   1.327  -1.564  0.00  0.00    -0.259 NA
ATOM      2  C   UNL     1       3.979   1.377  -1.910  0.00  0.00    +0.180 C 
ATOM      3  C   UNL     1       5.139   1.765  -1.063  0.00  0.00    +0.119 C 
ATOM      4  N   UNL     1       6.207   1.670  -1.819  0.00  0.00    -0.207 NA
ATOM      5  C   UNL     1       5.874   1.272  -3.071  0.00  0.00    +0.255 A 
ATOM      6  N   UNL     1       4.527   1.085  -3.160  0.00  0.00    -0.177 N 
ATOM      7  N   UNL     1       4.263   0.679  -4.472  0.00  0.00    -0.150 NA
ATOM      8  C   UNL     1       5.411   0.637  -5.098  0.00  0.00    +0.247 A 
ATOM      9  N   UNL     1       6.384   0.992  -4.262  0.00  0.00    -0.197 NA
ENDROOT
BRANCH   3  10
ATOM     10  C   UNL     1       5.098   2.173   0.355  0.00  0.00    +0.007 A 
ATOM     11  C   UNL     1       4.430   1.381   1.294  0.00  0.00    +0.013 A 
ATOM     12  C   UNL     1       4.394   1.766   2.616  0.00  0.00    +0.042 A 
ATOM     13  C   UNL     1       5.018   2.937   3.018  0.00  0.00    +0.158 A 
ATOM     14  C   UNL     1       5.683   3.729   2.091  0.00  0.00    +0.159 A 
ATOM     15  C   UNL     1       5.731   3.350   0.765  0.00  0.00    +0.051 A 
ATOM     16  F   UNL     1       6.290   4.869   2.489  0.00  0.00    -0.202 F 
ATOM     17  F   UNL     1       4.979   3.310   4.316  0.00  0.00    -0.202 F 
ENDBRANCH   3  10
BRANCH   1  18
ATOM     18  C   UNL     1       2.313   1.833  -0.254  0.00  0.00    +0.179 C 
BRANCH  18  23
ATOM     19  C   UNL     1      -3.043   3.969  -0.634  0.00  0.00    +0.044 C 
ATOM     20  C   UNL     1      -1.646   3.412  -0.535  0.00  0.00    -0.050 A 
ATOM     21  C   UNL     1      -1.454   2.059  -0.323  0.00  0.00    +0.004 A 
ATOM     22  C   UNL     1      -0.173   1.549  -0.226  0.00  0.00    +0.006 A 
ATOM     23  C   UNL     1       0.917   2.390  -0.353  0.00  0.00    -0.026 A 
ATOM     24  C   UNL     1       0.725   3.742  -0.572  0.00  0.00    +0.006 A 
ATOM     25  C   UNL     1      -0.556   4.253  -0.663  0.00  0.00    +0.004 A 
ENDBRANCH  18  23
ENDBRANCH   1  18
TORSDOF 3
