REMARK  Name = ZINC49483930
REMARK  5 active torsions:
REMARK  status: ('A' for Active; 'I' for Inactive)
REMARK    1  A    between atoms: C_8  and  S_10
REMARK    2  A    between atoms: S_10  and  C_11
REMARK    3  A    between atoms: C_11  and  C_12
REMARK    4  A    between atoms: C_16  and  C_18
REMARK    5  A    between atoms: C_20  and  C_23
REMARK                            x       y       z     vdW  Elec       q    Type
REMARK                         _______ _______ _______ _____ _____    ______ ____
ROOT
ATOM      1  C   UNL     1       6.412  -4.280  -0.086  0.00  0.00    +0.226 C 
ATOM      2  O   UNL     1       5.928  -5.392  -0.087  0.00  0.00    -0.275 OA
ATOM      3  N   UNL     1       7.751  -4.128  -0.098  0.00  0.00    -0.299 N 
ATOM      4  C   UNL     1       8.689  -2.995  -0.095  0.00  0.00    +0.122 C 
ATOM      5  C   UNL     1       9.699  -3.899  -0.815  0.00  0.00    +0.112 C 
ATOM      6  C   UNL     1       8.918  -5.023  -0.115  0.00  0.00    +0.122 C 
ENDROOT
BRANCH   5   7
ATOM      7  C   UNL     1      11.119  -3.745  -0.334  0.00  0.00    +0.234 A 
ATOM      8  N   UNL     1      12.132  -3.373  -1.063  0.00  0.00    -0.191 NA
ATOM      9  C   UNL     1      13.251  -3.341  -0.314  0.00  0.00    +0.209 A 
ATOM     10  N   UNL     1      12.944  -3.700   0.911  0.00  0.00    -0.056 NA
ATOM     11  O   UNL     1      11.549  -3.962   0.915  0.00  0.00    -0.337 OA
BRANCH   9  12
ATOM     12  C   UNL     1      14.598  -2.967  -0.792  0.00  0.00    +0.060 A 
ATOM     13  C   UNL     1      15.777  -2.917  -0.097  0.00  0.00    +0.019 A 
ATOM     14  C   UNL     1      16.921  -2.535  -0.760  0.00  0.00    +0.008 A 
ATOM     15  C   UNL     1      16.847  -2.221  -2.080  0.00  0.00    +0.046 A 
ATOM     16  S   UNL     1      15.114  -2.469  -2.427  0.00  0.00    -0.093 S 
ENDBRANCH   9  12
ENDBRANCH   5   7
BRANCH   1  17
ATOM     17  C   UNL     1       5.517  -3.068  -0.070  0.00  0.00    +0.174 C 
BRANCH  17  18
ATOM     18  S   UNL     1       3.782  -3.598  -0.055  0.00  0.00    -0.058 S 
BRANCH  18  26
ATOM     19  C   UNL     1      -0.017   1.373   0.010  0.00  0.00    +0.002 A 
ATOM     20  C   UNL     1       1.170   2.091   0.002  0.00  0.00    +0.004 A 
ATOM     21  C   UNL     1       2.384   1.435  -0.013  0.00  0.00    +0.048 A 
ATOM     22  C   UNL     1       2.421   0.051  -0.021  0.00  0.00    +0.156 A 
ATOM     23  C   UNL     1       1.223  -0.680  -0.013  0.00  0.00    +0.110 A 
ATOM     24  C   UNL     1       0.002  -0.004   0.002  0.00  0.00    +0.031 A 
ATOM     25  N   UNL     1       1.569  -1.996  -0.024  0.00  0.00    -0.203 NA
ATOM     26  C   UNL     1       2.875  -2.087  -0.038  0.00  0.00    +0.258 A 
ATOM     27  O   UNL     1       3.423  -0.859  -0.036  0.00  0.00    -0.431 OA
ENDBRANCH  18  26
ENDBRANCH  17  18
ENDBRANCH   1  17
TORSDOF 5
