REMARK  Name = ZINC02715003
REMARK  6 active torsions:
REMARK  status: ('A' for Active; 'I' for Inactive)
REMARK    1  A    between atoms: C_4  and  C_7
REMARK    2  A    between atoms: N_9  and  C_20
REMARK    3  A    between atoms: C_12  and  N_16
REMARK    4  A    between atoms: N_16  and  C_17
REMARK    5  A    between atoms: C_17  and  C_18
REMARK    6  A    between atoms: C_18  and  O_19
REMARK                            x       y       z     vdW  Elec       q    Type
REMARK                         _______ _______ _______ _____ _____    ______ ____
ROOT
ATOM      1  C   UNL     1       3.659   2.163  -0.022  0.00  0.00    +0.013 A 
ATOM      2  C   UNL     1       4.718   1.975   0.804  0.00  0.00    +0.102 A 
ATOM      3  N   UNL     1       5.712   2.862   0.487  0.00  0.00    -0.300 N 
ATOM      4  C   UNL     1       5.318   3.663  -0.554  0.00  0.00    +0.151 A 
ATOM      5  C   UNL     1       4.020   3.267  -0.921  0.00  0.00    +0.067 A 
ATOM      6  C   UNL     1       3.383   3.937  -1.973  0.00  0.00    +0.132 A 
ATOM      7  N   UNL     1       4.037   4.924  -2.581  0.00  0.00    -0.220 NA
ATOM      8  C   UNL     1       5.256   5.265  -2.205  0.00  0.00    +0.225 A 
ATOM      9  N   UNL     1       5.891   4.662  -1.223  0.00  0.00    -0.217 NA
ENDROOT
BRANCH   3  10
ATOM     10  C   UNL     1       6.951   2.945   1.137  0.00  0.00    +0.048 A 
ATOM     11  C   UNL     1       8.125   2.958   0.397  0.00  0.00    +0.027 A 
ATOM     12  C   UNL     1       9.344   3.044   1.039  0.00  0.00    +0.022 A 
ATOM     13  C   UNL     1       9.397   3.106   2.421  0.00  0.00    +0.041 A 
ATOM     14  C   UNL     1       8.228   3.087   3.161  0.00  0.00    +0.022 A 
ATOM     15  C   UNL     1       7.006   3.007   2.523  0.00  0.00    +0.027 A 
ATOM     16 CL   UNL     1      10.931   3.208   3.226  0.00  0.00    -0.084 Cl
ENDBRANCH   3  10
BRANCH   1  20
ATOM     17  C   UNL     1       0.002  -0.004   0.002  0.00  0.00    +0.000 A 
ATOM     18  C   UNL     1      -0.017   1.379   0.010  0.00  0.00    +0.001 A 
ATOM     19  C   UNL     1       1.167   2.088   0.002  0.00  0.00    +0.008 A 
ATOM     20  C   UNL     1       2.384   1.407  -0.014  0.00  0.00    -0.016 A 
ATOM     21  C   UNL     1       2.397   0.013  -0.021  0.00  0.00    +0.008 A 
ATOM     22  C   UNL     1       1.206  -0.685  -0.013  0.00  0.00    +0.001 A 
ENDBRANCH   1  20
BRANCH   6  23
ATOM     23  N   UNL     1       2.107   3.582  -2.371  0.00  0.00    -0.326 N 
ATOM     24  H   UNL     1       1.641   2.860  -1.919  0.00  0.00    +0.148 HD
BRANCH  23  25
ATOM     25  C   UNL     1       1.458   4.295  -3.473  0.00  0.00    +0.130 C 
BRANCH  25  26
ATOM     26  C   UNL     1       0.063   3.710  -3.709  0.00  0.00    +0.174 C 
BRANCH  26  27
ATOM     27  O   UNL     1      -0.756   3.957  -2.564  0.00  0.00    -0.393 OA
ATOM     28  H   UNL     1      -1.656   3.613  -2.644  0.00  0.00    +0.209 HD
ENDBRANCH  26  27
ENDBRANCH  25  26
ENDBRANCH  23  25
ENDBRANCH   6  23
TORSDOF 6
