REMARK  Name = ZINC61717252
REMARK  6 active torsions:
REMARK  status: ('A' for Active; 'I' for Inactive)
REMARK    1  A    between atoms: C_4  and  N_7
REMARK    2  A    between atoms: C_11  and  C_13
REMARK    3  A    between atoms: C_13  and  C_14
REMARK    4  A    between atoms: C_14  and  S_15
REMARK    5  A    between atoms: S_15  and  C_16
REMARK    6  A    between atoms: C_19  and  C_22
REMARK                            x       y       z     vdW  Elec       q    Type
REMARK                         _______ _______ _______ _____ _____    ______ ____
ROOT
ATOM      1  N   UNL     1       3.622  -0.651  -0.037  0.00  0.00    -0.269 N 
ATOM      2  C   UNL     1       3.645  -1.995   0.057  0.00  0.00    +0.310 C 
ATOM      3  O   UNL     1       2.603  -2.622   0.064  0.00  0.00    -0.252 OA
ATOM      4  N   UNL     1       4.823  -2.644   0.143  0.00  0.00    -0.240 N 
ATOM      5  C   UNL     1       4.846  -3.989   0.237  0.00  0.00    +0.221 C 
ATOM      6  O   UNL     1       3.807  -4.614   0.244  0.00  0.00    -0.275 OA
ATOM      7  H   UNL     1       4.452  -0.156  -0.121  0.00  0.00    +0.156 HD
ATOM      8  H   UNL     1       5.654  -2.144   0.137  0.00  0.00    +0.159 HD
ENDROOT
BRANCH   1  12
ATOM      9  C   UNL     1      -0.015   1.381   0.032  0.00  0.00    +0.000 A 
ATOM     10  C   UNL     1       0.140   0.218   0.765  0.00  0.00    +0.002 A 
ATOM     11  C   UNL     1       1.344  -0.457   0.744  0.00  0.00    +0.023 A 
ATOM     12  C   UNL     1       2.400   0.031  -0.015  0.00  0.00    +0.035 A 
ATOM     13  C   UNL     1       2.241   1.198  -0.750  0.00  0.00    +0.023 A 
ATOM     14  C   UNL     1       1.034   1.870  -0.725  0.00  0.00    +0.002 A 
ENDBRANCH   1  12
BRANCH   5  15
ATOM     15  C   UNL     1       6.163  -4.715   0.333  0.00  0.00    +0.107 C 
BRANCH  15  16
ATOM     16  C   UNL     1       5.909  -6.220   0.429  0.00  0.00    +0.086 C 
BRANCH  16  17
ATOM     17  S   UNL     1       7.495  -7.094   0.544  0.00  0.00    -0.086 S 
BRANCH  17  18
ATOM     18  C   UNL     1       7.038  -8.793   0.647  0.00  0.00    +0.185 A 
ATOM     19  N   UNL     1       5.811  -9.265   0.637  0.00  0.00    -0.200 NA
ATOM     20  H   UNL     1       8.858  -9.798   0.770  0.00  0.00    +0.191 HD
ATOM     21  C   UNL     1       5.842 -10.604   0.731  0.00  0.00    +0.189 A 
ATOM     22  N   UNL     1       7.096 -10.996   0.802  0.00  0.00    -0.151 NA
ATOM     23  N   UNL     1       7.889  -9.839   0.744  0.00  0.00    -0.253 N 
BRANCH  21  24
ATOM     24  C   UNL     1       4.660 -11.492   0.752  0.00  0.00    +0.058 A 
ATOM     25  C   UNL     1       4.608 -12.856   0.851  0.00  0.00    +0.019 A 
ATOM     26  C   UNL     1       3.377 -13.474   0.850  0.00  0.00    +0.008 A 
ATOM     27  C   UNL     1       2.256 -12.715   0.751  0.00  0.00    +0.046 A 
ATOM     28  S   UNL     1       2.929 -11.064   0.663  0.00  0.00    -0.093 S 
ENDBRANCH  21  24
ENDBRANCH  17  18
ENDBRANCH  16  17
ENDBRANCH  15  16
ENDBRANCH   5  15
TORSDOF 6
