REMARK  Name = ZINC39562224
REMARK  5 active torsions:
REMARK  status: ('A' for Active; 'I' for Inactive)
REMARK    1  A    between atoms: C_1  and  C_2
REMARK    2  A    between atoms: C_3  and  C_24
REMARK    3  A    between atoms: C_7  and  O_11
REMARK    4  A    between atoms: O_11  and  C_12
REMARK    5  A    between atoms: C_12  and  C_13
REMARK                            x       y       z     vdW  Elec       q    Type
REMARK                         _______ _______ _______ _____ _____    ______ ____
ROOT
ATOM      1  O   UNL     1       0.015   1.059   2.845  0.00  0.00    -0.471 OA
ENDROOT
BRANCH   1   8
ATOM      2  C   UNL     1      -0.018   1.503   0.010  0.00  0.00    +0.045 C 
ATOM      3  C   UNL     1       0.002  -0.004   0.002  0.00  0.00    -0.026 A 
ATOM      4  C   UNL     1       0.006  -0.676  -1.159  0.00  0.00    -0.008 A 
ATOM      5  S   UNL     1       0.031  -2.385  -0.651  0.00  0.00    -0.073 S 
ATOM      6  C   UNL     1       0.036  -2.151   1.107  0.00  0.00    +0.116 A 
ATOM      7  C   UNL     1       0.024  -0.746   1.251  0.00  0.00    +0.072 A 
ATOM      8  C   UNL     1       0.030  -0.271   2.589  0.00  0.00    +0.227 A 
ATOM      9  N   UNL     1       0.051  -1.142   3.582  0.00  0.00    -0.201 NA
ATOM     10  C   UNL     1       0.067  -2.447   3.374  0.00  0.00    +0.226 A 
ATOM     11  N   UNL     1       0.051  -2.949   2.155  0.00  0.00    -0.228 NA
ATOM     12  C   UNL     1      -0.009  -0.119  -2.559  0.00  0.00    +0.052 C 
ENDBRANCH   1   8
BRANCH   1  13
ATOM     13  C   UNL     1       0.023   1.456   4.217  0.00  0.00    +0.267 C 
BRANCH  13  14
ATOM     14  C   UNL     1       0.004   2.961   4.305  0.00  0.00    +0.007 A 
ATOM     15  C   UNL     1      -0.023   3.719   3.150  0.00  0.00    +0.057 A 
ATOM     16  C   UNL     1      -0.042   5.103   3.228  0.00  0.00    +0.163 A 
ATOM     17  C   UNL     1      -0.036   5.726   4.470  0.00  0.00    +0.163 A 
ATOM     18  C   UNL     1      -0.007   4.960   5.626  0.00  0.00    +0.065 A 
ATOM     19  C   UNL     1       0.007   3.580   5.542  0.00  0.00    +0.028 A 
ATOM     20 BR   UNL     1       0.037   2.538   7.120  0.00  0.00    -0.050 Br
ATOM     21  O   UNL     1      -0.061   7.084   4.569  0.00  0.00    -0.485 OA
ATOM     22  C   UNL     1       0.286   7.821   3.392  0.00  0.00    +0.270 C 
ATOM     23  C   UNL     1      -0.462   7.207   2.201  0.00  0.00    +0.270 C 
ATOM     24  O   UNL     1      -0.064   5.837   2.081  0.00  0.00    -0.485 OA
ENDBRANCH  13  14
ENDBRANCH   1  13
TORSDOF 3
