REMARK  Name = ZINC14886280
REMARK  7 active torsions:
REMARK  status: ('A' for Active; 'I' for Inactive)
REMARK    1  A    between atoms: C_1  and  C_2
REMARK    2  A    between atoms: C_2  and  C_3
REMARK    3  A    between atoms: C_2  and  C_4
REMARK    4  A    between atoms: C_4  and  C_6
REMARK    5  A    between atoms: C_4  and  O_24
REMARK    6  A    between atoms: C_16  and  C_17
REMARK    7  A    between atoms: C_16  and  N_48
REMARK                            x       y       z     vdW  Elec       q    Type
REMARK                         _______ _______ _______ _____ _____    ______ ____
ROOT
ATOM      1  C   UNL     1       2.398   0.040   0.014  0.00  0.00    -0.018 A 
ATOM      2  C   UNL     1       1.212  -0.671   0.004  0.00  0.00    +0.010 A 
ATOM      3  C   UNL     1       0.002  -0.004   0.002  0.00  0.00    +0.046 A 
ATOM      4  C   UNL     1      -0.017   1.383   0.010  0.00  0.00    +0.122 A 
ATOM      5  C   UNL     1       1.171   2.090   0.002  0.00  0.00    -0.022 A 
ATOM      6  C   UNL     1       2.379   1.423   0.013  0.00  0.00    +0.011 A 
ATOM      7  C   UNL     1       1.137   3.605  -0.044  0.00  0.00    -0.039 C 
ATOM      8  C   UNL     1      -0.850   4.123   1.263  0.00  0.00    -0.036 C 
ATOM      9  C   UNL     1      -1.474   2.745   1.275  0.00  0.00    +0.210 C 
ATOM     10  O   UNL     1      -1.202   2.053   0.050  0.00  0.00    -0.494 OA
ATOM     11  N   UNL     1       0.628   4.088   1.262  0.00  0.00    +0.387 N 
ATOM     12  H   UNL     1       0.943   3.444   1.997  0.00  0.00    -0.081 HD
ENDROOT
BRANCH   1  13
ATOM     13  C   UNL     1       3.715  -0.694   0.026  0.00  0.00    +0.147 C 
BRANCH  13  15
ATOM     14  C   UNL     1       2.984  -2.191   1.888  0.00  0.00    +0.010 C 
ATOM     15  C   UNL     1       4.026  -1.160   1.450  0.00  0.00    +0.016 C 
ATOM     16  C   UNL     1       5.418  -1.794   1.487  0.00  0.00    +0.010 C 
ENDBRANCH  13  15
BRANCH  13  17
ATOM     17  O   UNL     1       3.636  -1.828  -0.840  0.00  0.00    -0.387 OA
ATOM     18  H   UNL     1       2.952  -2.465  -0.592  0.00  0.00    +0.210 HD
ENDBRANCH  13  17
ENDBRANCH   1  13
BRANCH  11  19
ATOM     19  C   UNL     1       1.161   5.431   1.544  0.00  0.00    -0.042 C 
BRANCH  19  20
ATOM     20  C   UNL     1       0.796   5.804   2.958  0.00  0.00    -0.064 A 
ATOM     21  C   UNL     1      -0.376   6.492   3.211  0.00  0.00    +0.003 A 
ATOM     22  C   UNL     1      -0.713   6.830   4.508  0.00  0.00    +0.020 A 
ATOM     23  C   UNL     1       0.129   6.489   5.552  0.00  0.00    +0.041 A 
ATOM     24  C   UNL     1       1.304   5.806   5.298  0.00  0.00    +0.020 A 
ATOM     25  C   UNL     1       1.638   5.463   4.001  0.00  0.00    +0.003 A 
ATOM     26 CL   UNL     1      -0.291   6.919   7.181  0.00  0.00    -0.084 Cl
ENDBRANCH  19  20
ENDBRANCH  11  19
TORSDOF 5
