REMARK  Name = ZINC09730119
REMARK  9 active torsions:
REMARK  status: ('A' for Active; 'I' for Inactive)
REMARK    1  A    between atoms: C_3  and  C_6
REMARK    2  A    between atoms: C_6  and  N_60
REMARK    3  A    between atoms: C_7  and  C_8
REMARK    4  A    between atoms: C_7  and  N_60
REMARK    5  A    between atoms: C_14  and  C_15
REMARK    6  A    between atoms: C_14  and  N_60
REMARK    7  A    between atoms: N_17  and  C_18
REMARK    8  A    between atoms: C_20  and  S_25
REMARK    9  A    between atoms: S_25  and  N_28
REMARK                            x       y       z     vdW  Elec       q    Type
REMARK                         _______ _______ _______ _____ _____    ______ ____
ROOT
ATOM      1  C   UNL     1      -1.987   6.126  -0.876  0.00  0.00    +0.201 C 
ATOM      2  O   UNL     1      -1.164   5.558  -0.190  0.00  0.00    -0.278 OA
ATOM      3  N   UNL     1      -1.735   7.364  -1.344  0.00  0.00    -0.286 N 
ATOM      4  H   UNL     1      -2.358   7.788  -1.954  0.00  0.00    +0.155 HD
ENDROOT
BRANCH   3   5
ATOM      5  C   UNL     1      -0.575   8.039  -0.948  0.00  0.00    +0.054 A 
ATOM      6  C   UNL     1       0.591   7.329  -0.692  0.00  0.00    +0.053 A 
ATOM      7  C   UNL     1       1.734   7.997  -0.302  0.00  0.00    +0.107 A 
ATOM      8  C   UNL     1       1.720   9.373  -0.165  0.00  0.00    +0.030 A 
ATOM      9  C   UNL     1       0.562  10.085  -0.418  0.00  0.00    +0.024 A 
ATOM     10  C   UNL     1      -0.584   9.422  -0.815  0.00  0.00    +0.062 A 
ATOM     11 CL   UNL     1      -2.036  10.317  -1.139  0.00  0.00    -0.082 Cl
BRANCH   7  12
ATOM     12  S   UNL     1       3.213   7.096   0.022  0.00  0.00    +0.061 S 
ATOM     13  O   UNL     1       3.994   7.897   0.899  0.00  0.00    -0.153 OA
ATOM     14  O   UNL     1       2.818   5.771   0.349  0.00  0.00    -0.153 OA
BRANCH  12  15
ATOM     15  N   UNL     1       4.051   7.001  -1.404  0.00  0.00    -0.177 NA
ATOM     16  C   UNL     1       3.925   5.929  -2.402  0.00  0.00    +0.109 C 
ATOM     17  C   UNL     1       4.911   6.249  -3.545  0.00  0.00    +0.018 C 
ATOM     18  C   UNL     1       5.948   7.176  -2.857  0.00  0.00    +0.018 C 
ATOM     19  C   UNL     1       5.051   7.975  -1.879  0.00  0.00    +0.109 C 
ENDBRANCH  12  15
ENDBRANCH   7  12
ENDBRANCH   3   5
BRANCH   1  20
ATOM     20  C   UNL     1      -3.291   5.446  -1.207  0.00  0.00    +0.019 C 
BRANCH  20  21
ATOM     21  N   UNL     1      -3.315   4.119  -0.557  0.00  0.00    +0.390 N 
ATOM     22  H   UNL     1      -3.092   4.231   0.439  0.00  0.00    -0.081 HD
BRANCH  21  23
ATOM     23  C   UNL     1      -4.660   3.519  -0.683  0.00  0.00    -0.035 C 
BRANCH  23  26
ATOM     24  C   UNL     1      -5.185   1.048   2.168  0.00  0.00    +0.008 A 
ATOM     25  C   UNL     1      -5.193   2.265   1.513  0.00  0.00    +0.009 A 
ATOM     26  C   UNL     1      -4.748   2.327   0.235  0.00  0.00    -0.027 A 
ATOM     27  S   UNL     1      -4.284   0.632  -0.077  0.00  0.00    -0.103 S 
ATOM     28  C   UNL     1      -4.722  -0.046   1.515  0.00  0.00    +0.045 A 
ENDBRANCH  23  26
ENDBRANCH  21  23
BRANCH  21  29
ATOM     29  C   UNL     1      -2.307   3.234  -1.178  0.00  0.00    -0.046 C 
BRANCH  29  30
ATOM     30  C   UNL     1      -2.481   3.206  -2.698  0.00  0.00    +0.102 C 
ATOM     31  C   UNL     1      -1.325   2.422  -3.357  0.00  0.00    +0.032 C 
ATOM     32  C   UNL     1      -2.000   1.668  -4.524  0.00  0.00    +0.030 C 
ATOM     33  C   UNL     1      -3.485   2.083  -4.434  0.00  0.00    +0.160 C 
ATOM     34  O   UNL     1      -3.674   2.474  -3.054  0.00  0.00    -0.378 OA
ENDBRANCH  29  30
ENDBRANCH  21  29
ENDBRANCH  20  21
ENDBRANCH   1  20
TORSDOF 9
