REMARK  Name = ZINC12211029
REMARK  7 active torsions:
REMARK  status: ('A' for Active; 'I' for Inactive)
REMARK    1  A    between atoms: C_4  and  C_7
REMARK    2  A    between atoms: C_7  and  C_8
REMARK    3  A    between atoms: C_8  and  C_9
REMARK    4  A    between atoms: C_9  and  C_10
REMARK    5  A    between atoms: C_10  and  C_17
REMARK    6  A    between atoms: C_22  and  C_23
REMARK    7  A    between atoms: C_22  and  N_55
REMARK                            x       y       z     vdW  Elec       q    Type
REMARK                         _______ _______ _______ _____ _____    ______ ____
ROOT
ATOM      1  C   UNL     1       0.002  -0.004   0.002  0.00  0.00    +0.115 C 
ATOM      2  C   UNL     1       1.480  -0.340  -0.014  0.00  0.00    +0.244 C 
ATOM      3  O   UNL     1       1.980  -1.445  -0.024  0.00  0.00    -0.273 OA
ATOM      4  N   UNL     1       2.123   0.844  -0.014  0.00  0.00    -0.238 N 
ATOM      5  C   UNL     1       1.266   1.871   0.000  0.00  0.00    +0.307 C 
ATOM      6  O   UNL     1       1.608   3.037   0.003  0.00  0.00    -0.252 OA
ATOM      7  N   UNL     1      -0.018   1.469   0.010  0.00  0.00    -0.285 N 
ATOM      8  H   UNL     1       3.088   0.940  -0.023  0.00  0.00    +0.159 HD
ATOM      9  H   UNL     1      -0.803   2.038   0.017  0.00  0.00    +0.151 HD
ENDROOT
BRANCH   1  10
ATOM     10  C   UNL     1      -0.686  -0.545  -1.253  0.00  0.00    +0.018 C 
ATOM     11  C   UNL     1      -0.744  -2.074  -1.186  0.00  0.00    -0.013 C 
ATOM     12  C   UNL     1      -1.377  -2.612  -2.471  0.00  0.00    -0.078 C 
ATOM     13  C   UNL     1      -0.553  -0.719  -3.740  0.00  0.00    -0.078 C 
ATOM     14  C   UNL     1       0.106  -0.124  -2.493  0.00  0.00    -0.013 C 
ATOM     15  N   UNL     1      -0.554  -2.193  -3.625  0.00  0.00    +0.383 N 
ATOM     16  H   UNL     1       0.410  -2.516  -3.482  0.00  0.00    -0.081 HD
BRANCH  15  17
ATOM     17  C   UNL     1      -1.081  -2.795  -4.867  0.00  0.00    -0.036 C 
BRANCH  17  18
ATOM     18  C   UNL     1      -0.869  -4.286  -4.812  0.00  0.00    -0.027 A 
ATOM     19  C   UNL     1      -1.697  -5.249  -4.339  0.00  0.00    +0.009 A 
ATOM     20  C   UNL     1      -1.288  -6.569  -4.391  0.00  0.00    +0.008 A 
ATOM     21  C   UNL     1      -0.072  -6.860  -4.913  0.00  0.00    +0.045 A 
ATOM     22  S   UNL     1       0.536  -5.242  -5.359  0.00  0.00    -0.103 S 
ENDBRANCH  17  18
ENDBRANCH  15  17
ENDBRANCH   1  10
BRANCH   1  23
ATOM     23  C   UNL     1      -0.666  -0.558   1.262  0.00  0.00    +0.036 C 
BRANCH  23  24
ATOM     24  C   UNL     1      -0.006   0.052   2.500  0.00  0.00    +0.007 C 
BRANCH  24  25
ATOM     25  C   UNL     1      -0.674  -0.502   3.760  0.00  0.00    +0.035 C 
BRANCH  25  29
ATOM     26  C   UNL     1       1.168   1.203   7.216  0.00  0.00    +0.000 A 
ATOM     27  C   UNL     1       0.081   1.827   6.634  0.00  0.00    +0.000 A 
ATOM     28  C   UNL     1      -0.515   1.275   5.515  0.00  0.00    +0.003 A 
ATOM     29  C   UNL     1      -0.024   0.100   4.979  0.00  0.00    -0.047 A 
ATOM     30  C   UNL     1       1.060  -0.527   5.564  0.00  0.00    +0.003 A 
ATOM     31  C   UNL     1       1.659   0.027   6.680  0.00  0.00    +0.000 A 
ENDBRANCH  25  29
ENDBRANCH  24  25
ENDBRANCH  23  24
ENDBRANCH   1  23
TORSDOF 7
