REMARK  Name = ZINC04741867
REMARK  5 active torsions:
REMARK  status: ('A' for Active; 'I' for Inactive)
REMARK    1  A    between atoms: C_1  and  C_2
REMARK    2  A    between atoms: C_4  and  C_16
REMARK    3  A    between atoms: C_5  and  C_15
REMARK    4  A    between atoms: N_6  and  C_7
REMARK    5  A    between atoms: N_17  and  N_18
REMARK                            x       y       z     vdW  Elec       q    Type
REMARK                         _______ _______ _______ _____ _____    ______ ____
ROOT
ATOM      1  C   UNL     1       4.354   1.360  -2.335  0.00  0.00    +0.064 C 
ATOM      2  C   UNL     1       4.492   2.125  -1.044  0.00  0.00    +0.022 A 
ATOM      3  C   UNL     1       5.526   2.919  -0.711  0.00  0.00    +0.032 A 
ATOM      4  C   UNL     1       5.234   3.450   0.624  0.00  0.00    +0.016 A 
ATOM      5  C   UNL     1       4.025   2.928   0.987  0.00  0.00    +0.030 A 
ATOM      6  N   UNL     1       3.587   2.126  -0.021  0.00  0.00    -0.317 N 
ATOM      7  C   UNL     1       3.303   3.192   2.284  0.00  0.00    +0.064 C 
ENDROOT
BRANCH   6   8
ATOM      8  C   UNL     1       2.381   1.410  -0.014  0.00  0.00    +0.048 A 
ATOM      9  C   UNL     1       2.397   0.022  -0.022  0.00  0.00    +0.027 A 
ATOM     10  C   UNL     1       1.209  -0.682  -0.014  0.00  0.00    +0.023 A 
ATOM     11  C   UNL     1       0.002  -0.004   0.002  0.00  0.00    +0.059 A 
ATOM     12  C   UNL     1      -0.017   1.381   0.010  0.00  0.00    +0.061 A 
ATOM     13  C   UNL     1       1.171   2.089   0.002  0.00  0.00    +0.047 A 
ATOM     14 CL   UNL     1      -1.532   2.228   0.021  0.00  0.00    -0.082 Cl
ATOM     15 CL   UNL     1      -1.490  -0.891   0.012  0.00  0.00    -0.082 Cl
ENDBRANCH   6   8
BRANCH   4  16
ATOM     16  C   UNL     1       6.074   4.368   1.414  0.00  0.00    +0.140 C 
ATOM     17  N   UNL     1       5.684   4.756   2.590  0.00  0.00    -0.188 NA
BRANCH  17  18
ATOM     18  N   UNL     1       6.482   5.629   3.341  0.00  0.00    -0.207 N 
ATOM     19  C   UNL     1       6.068   6.040   4.589  0.00  0.00    +0.214 A 
ATOM     20  N   UNL     1       6.762   6.886   5.408  0.00  0.00    -0.325 N 
ATOM     21  H   UNL     1       7.646   7.310   5.211  0.00  0.00    +0.169 HD
ATOM     22  C   UNL     1       6.012   7.048   6.561  0.00  0.00    +0.067 A 
ATOM     23  C   UNL     1       6.191   7.772   7.730  0.00  0.00    +0.028 A 
ATOM     24  C   UNL     1       5.232   7.724   8.721  0.00  0.00    +0.002 A 
ATOM     25  C   UNL     1       4.089   6.956   8.556  0.00  0.00    +0.002 A 
ATOM     26  C   UNL     1       3.895   6.231   7.402  0.00  0.00    +0.030 A 
ATOM     27  C   UNL     1       4.856   6.268   6.389  0.00  0.00    +0.091 A 
ATOM     28  N   UNL     1       4.946   5.684   5.166  0.00  0.00    -0.213 NA
ATOM     29  H   UNL     1       7.327   5.943   2.982  0.00  0.00    +0.177 HD
ENDBRANCH  17  18
ENDBRANCH   4  16
TORSDOF 3
