REMARK  Name = ZINC30691466
REMARK  8 active torsions:
REMARK  status: ('A' for Active; 'I' for Inactive)
REMARK    1  A    between atoms: C_4  and  C_7
REMARK    2  A    between atoms: C_7  and  C_8
REMARK    3  A    between atoms: C_7  and  C_25
REMARK    4  A    between atoms: C_7  and  C_27
REMARK    5  A    between atoms: C_8  and  C_9
REMARK    6  A    between atoms: C_9  and  N_10
REMARK    7  A    between atoms: C_13  and  C_16
REMARK    8  A    between atoms: C_13  and  N_19
REMARK                            x       y       z     vdW  Elec       q    Type
REMARK                         _______ _______ _______ _____ _____    ______ ____
ROOT
ATOM      1  N   UNL     1      -0.163   0.710  -2.460  0.00  0.00    +0.380 N 
ATOM      2  C   UNL     1       1.092   1.428  -2.206  0.00  0.00    -0.077 C 
ATOM      3  C   UNL     1       2.164   0.948  -3.188  0.00  0.00    +0.013 C 
ATOM      4  C   UNL     1       1.688   1.204  -4.621  0.00  0.00    +0.095 C 
ATOM      5  C   UNL     1       0.354   0.485  -4.843  0.00  0.00    +0.013 C 
ATOM      6  C   UNL     1      -0.664   0.978  -3.814  0.00  0.00    -0.077 C 
ATOM      7  H   UNL     1       0.047  -0.368  -2.388  0.00  0.00    -0.082 HD
ENDROOT
BRANCH   4   8
ATOM      8  N   UNL     1       2.686   0.692  -5.569  0.00  0.00    -0.289 NA
ATOM      9  C   UNL     1       2.807  -0.768  -5.469  0.00  0.00    +0.085 C 
ATOM     10  C   UNL     1       3.744  -1.280  -6.565  0.00  0.00    +0.015 C 
ATOM     11  C   UNL     1       5.117  -0.624  -6.403  0.00  0.00    +0.002 C 
ATOM     12  C   UNL     1       4.958   0.898  -6.462  0.00  0.00    +0.015 C 
ATOM     13  C   UNL     1       3.985   1.347  -5.369  0.00  0.00    +0.085 C 
ENDBRANCH   4   8
BRANCH   4  14
ATOM     14  C   UNL     1       1.502   2.684  -4.833  0.00  0.00    +0.231 C 
ATOM     15  O   UNL     1       1.371   3.422  -3.879  0.00  0.00    -0.274 OA
ATOM     16  N   UNL     1       1.483   3.189  -6.082  0.00  0.00    -0.328 N 
ATOM     17  H   UNL     1       1.348   4.270  -6.237  0.00  0.00    +0.145 HD
ATOM     18  H   UNL     1       1.602   2.520  -6.948  0.00  0.00    +0.145 HD
ENDBRANCH   4  14
BRANCH   1  19
ATOM     19  C   UNL     1      -1.175   1.044  -1.448  0.00  0.00    -0.077 C 
BRANCH  19  20
ATOM     20  C   UNL     1      -0.721   0.524  -0.082  0.00  0.00    +0.013 C 
BRANCH  20  21
ATOM     21  C   UNL     1      -1.738   0.937   0.984  0.00  0.00    +0.105 C 
BRANCH  21  25
ATOM     22  C   UNL     1      -5.524  -0.831   0.100  0.00  0.00    +0.000 A 
ATOM     23  C   UNL     1      -4.447  -1.633   0.428  0.00  0.00    +0.000 A 
ATOM     24  C   UNL     1      -3.221  -1.060   0.713  0.00  0.00    +0.005 A 
ATOM     25  C   UNL     1      -3.074   0.313   0.672  0.00  0.00    -0.023 A 
ATOM     26  C   UNL     1      -4.153   1.115   0.350  0.00  0.00    +0.005 A 
ATOM     27  C   UNL     1      -5.377   0.543   0.059  0.00  0.00    +0.000 A 
ENDBRANCH  21  25
BRANCH  21  28
ATOM     28  C   UNL     1      -1.267   0.467   2.336  0.00  0.00    -0.023 A 
ATOM     29  C   UNL     1      -0.038  -0.154   2.462  0.00  0.00    +0.005 A 
ATOM     30  C   UNL     1       0.396  -0.581   3.703  0.00  0.00    +0.000 A 
ATOM     31  C   UNL     1      -0.403  -0.397   4.816  0.00  0.00    +0.000 A 
ATOM     32  C   UNL     1      -1.635   0.218   4.689  0.00  0.00    +0.000 A 
ATOM     33  C   UNL     1      -2.066   0.650   3.448  0.00  0.00    +0.005 A 
ENDBRANCH  21  28
BRANCH  21  34
ATOM     34  C   UNL     1      -1.871   2.403   0.993  0.00  0.00    +0.079 C 
ATOM     35  N   UNL     1      -1.974   3.534   1.001  0.00  0.00    -0.195 NA
ENDBRANCH  21  34
ENDBRANCH  20  21
ENDBRANCH  19  20
ENDBRANCH   1  19
TORSDOF 8
