REMARK  Name = ZINC30200785
REMARK  9 active torsions:
REMARK  status: ('A' for Active; 'I' for Inactive)
REMARK    1  A    between atoms: C_1  and  C_2
REMARK    2  A    between atoms: C_2  and  C_4
REMARK    3  A    between atoms: C_2  and  N_14
REMARK    4  A    between atoms: C_7  and  C_10
REMARK    5  A    between atoms: C_10  and  C_11
REMARK    6  A    between atoms: C_11  and  C_12
REMARK    7  A    between atoms: C_11  and  C_13
REMARK    8  A    between atoms: C_15  and  C_17
REMARK    9  A    between atoms: C_17  and  N_18
REMARK                            x       y       z     vdW  Elec       q    Type
REMARK                         _______ _______ _______ _____ _____    ______ ____
ROOT
ATOM      1  N   UNL     1       1.120  -0.786   1.324  0.00  0.00    -0.310 N 
ATOM      2  C   UNL     1       0.369  -0.819   2.443  0.00  0.00    +0.197 C 
ATOM      3  O   UNL     1      -0.750  -0.351   2.436  0.00  0.00    -0.278 OA
ATOM      4  H   UNL     1       2.015  -1.159   1.330  0.00  0.00    +0.149 HD
ENDROOT
BRANCH   1   6
ATOM      5  C   UNL     1       0.821   1.326   0.128  0.00  0.00    +0.033 C 
ATOM      6  C   UNL     1       0.585  -0.185   0.100  0.00  0.00    +0.100 C 
BRANCH   6   7
ATOM      7  C   UNL     1       1.279  -0.780  -1.097  0.00  0.00    -0.027 A 
ATOM      8  C   UNL     1       2.638  -1.034  -1.053  0.00  0.00    +0.006 A 
ATOM      9  C   UNL     1       3.275  -1.581  -2.151  0.00  0.00    +0.004 A 
ATOM     10  C   UNL     1       2.554  -1.873  -3.294  0.00  0.00    -0.047 A 
ATOM     11  C   UNL     1       1.196  -1.621  -3.338  0.00  0.00    +0.004 A 
ATOM     12  C   UNL     1       0.558  -1.078  -2.238  0.00  0.00    +0.006 A 
BRANCH  10  13
ATOM     13  C   UNL     1       3.249  -2.468  -4.491  0.00  0.00    +0.038 C 
BRANCH  13  14
ATOM     14  C   UNL     1       3.222  -3.994  -4.391  0.00  0.00    -0.013 C 
ATOM     15  C   UNL     1       3.815  -4.600  -5.665  0.00  0.00    +0.007 C 
ATOM     16  C   UNL     1       4.046  -4.441  -3.182  0.00  0.00    +0.007 C 
ENDBRANCH  13  14
ENDBRANCH  10  13
ENDBRANCH   6   7
ENDBRANCH   1   6
BRANCH   2  17
ATOM     17  C   UNL     1       0.920  -1.437   3.702  0.00  0.00    +0.019 C 
BRANCH  17  18
ATOM     18  N   UNL     1      -0.084  -1.349   4.771  0.00  0.00    +0.387 N 
ATOM     19  C   UNL     1      -0.330   0.062   5.094  0.00  0.00    -0.059 C 
ATOM     20  C   UNL     1      -1.459   0.160   6.126  0.00  0.00    +0.088 C 
ATOM     21  N   UNL     1      -1.105  -0.676   7.284  0.00  0.00    -0.319 N 
ATOM     22  C   UNL     1      -0.686  -2.064   7.035  0.00  0.00    +0.088 C 
ATOM     23  C   UNL     1       0.406  -2.056   5.960  0.00  0.00    -0.059 C 
ATOM     24  C   UNL     1      -1.165  -0.168   8.577  0.00  0.00    +0.121 A 
ATOM     25  C   UNL     1      -1.767   1.065   8.805  0.00  0.00    +0.045 A 
ATOM     26  C   UNL     1      -1.820   1.559  10.096  0.00  0.00    +0.020 A 
ATOM     27  C   UNL     1      -1.266   0.800  11.120  0.00  0.00    +0.036 A 
ATOM     28  C   UNL     1      -0.684  -0.416  10.820  0.00  0.00    +0.128 A 
ATOM     29  N   UNL     1      -0.653  -0.864   9.579  0.00  0.00    -0.239 NA
ATOM     30 BR   UNL     1      -1.309   1.425  12.904  0.00  0.00    -0.049 Br
ATOM     31  H   UNL     1      -0.944  -1.775   4.458  0.00  0.00    -0.081 HD
ENDBRANCH  17  18
ENDBRANCH   2  17
TORSDOF 6
