REMARK  Name = ZINC06952340
REMARK  8 active torsions:
REMARK  status: ('A' for Active; 'I' for Inactive)
REMARK    1  A    between atoms: C_1  and  C_2
REMARK    2  A    between atoms: C_2  and  C_3
REMARK    3  A    between atoms: C_2  and  C_4
REMARK    4  A    between atoms: C_4  and  C_5
REMARK    5  A    between atoms: C_5  and  C_7
REMARK    6  A    between atoms: C_5  and  N_25
REMARK    7  A    between atoms: N_9  and  N_10
REMARK    8  A    between atoms: C_11  and  C_12
REMARK                            x       y       z     vdW  Elec       q    Type
REMARK                         _______ _______ _______ _____ _____    ______ ____
ROOT
ATOM      1  N   UNL     1      -5.817  -0.175  -0.490  0.00  0.00    -0.188 NA
ATOM      2  C   UNL     1      -6.673   0.553   0.160  0.00  0.00    +0.138 C 
ENDROOT
BRANCH   2   3
ATOM      3  C   UNL     1      -8.089   0.148   0.221  0.00  0.00    -0.005 A 
ATOM      4  C   UNL     1      -8.512  -1.022  -0.416  0.00  0.00    +0.010 A 
ATOM      5  C   UNL     1      -9.833  -1.400  -0.359  0.00  0.00    +0.009 A 
ATOM      6  C   UNL     1     -10.759  -0.615   0.335  0.00  0.00    -0.014 A 
ATOM      7  C   UNL     1     -10.334   0.552   0.969  0.00  0.00    -0.035 A 
ATOM      8  C   UNL     1      -9.013   0.930   0.920  0.00  0.00    +0.014 A 
ATOM      9  C   UNL     1     -11.541   1.178   1.625  0.00  0.00    +0.071 C 
ATOM     10  C   UNL     1     -12.704   0.267   1.314  0.00  0.00    -0.035 A 
ATOM     11  C   UNL     1     -12.216  -0.789   0.548  0.00  0.00    -0.014 A 
ATOM     12  C   UNL     1     -13.095  -1.786   0.120  0.00  0.00    +0.009 A 
ATOM     13  C   UNL     1     -14.431  -1.718   0.457  0.00  0.00    +0.001 A 
ATOM     14  C   UNL     1     -14.905  -0.665   1.217  0.00  0.00    +0.000 A 
ATOM     15  C   UNL     1     -14.040   0.327   1.646  0.00  0.00    +0.004 A 
ENDBRANCH   2   3
BRANCH   1  18
ATOM     16  C   UNL     1      -3.583  -0.545  -1.223  0.00  0.00    +0.218 C 
ATOM     17  O   UNL     1      -3.948  -1.559  -1.781  0.00  0.00    -0.276 OA
ATOM     18  N   UNL     1      -4.471   0.210  -0.548  0.00  0.00    -0.208 N 
ATOM     19  H   UNL     1      -4.179   1.021  -0.103  0.00  0.00    +0.177 HD
BRANCH  16  20
ATOM     20  C   UNL     1      -2.135  -0.131  -1.286  0.00  0.00    +0.015 C 
BRANCH  20  21
ATOM     21  N   UNL     1      -1.484  -0.797  -2.421  0.00  0.00    +0.386 N 
ATOM     22  H   UNL     1      -1.543  -1.798  -2.303  0.00  0.00    -0.089 HD
ATOM     23  H   UNL     1      -1.947  -0.532  -3.278  0.00  0.00    -0.089 HD
ATOM     24  H   UNL     1      -0.514  -0.520  -2.463  0.00  0.00    -0.089 HD
ENDBRANCH  20  21
BRANCH  20  25
ATOM     25  C   UNL     1      -1.433  -0.534   0.013  0.00  0.00    -0.004 C 
BRANCH  25  27
ATOM     26  C   UNL     1      -0.019   1.526   0.010  0.00  0.00    +0.007 C 
ATOM     27  C   UNL     1       0.002  -0.004   0.002  0.00  0.00    -0.018 C 
ATOM     28  C   UNL     1       0.742  -0.511   1.242  0.00  0.00    +0.007 C 
ENDBRANCH  25  27
ENDBRANCH  20  25
ENDBRANCH  16  20
ENDBRANCH   1  18
TORSDOF 6
