REMARK  Name = ZINC39111352
REMARK  1 active torsions:
REMARK  status: ('A' for Active; 'I' for Inactive)
REMARK    1  A    between atoms: C_13  and  O_16
REMARK                            x       y       z     vdW  Elec       q    Type
REMARK                         _______ _______ _______ _____ _____    ______ ____
ROOT
ATOM      1  C   UNL     1      -0.019   1.526   0.010  0.00  0.00    +0.003 C 
ATOM      2  C   UNL     1       1.417   2.054  -0.000  0.00  0.00    +0.008 C 
ATOM      3  C   UNL     1       2.163   1.543   1.234  0.00  0.00    +0.024 C 
ATOM      4  C   UNL     1       1.378   1.944   2.480  0.00  0.00    -0.027 C 
ATOM      5  C   UNL     1       1.113   1.164   3.488  0.00  0.00    -0.030 C 
ATOM      6  C   UNL     1       1.633  -0.266   3.621  0.00  0.00    +0.035 C 
ATOM      7  C   UNL     1       2.834  -0.260   2.666  0.00  0.00    +0.028 C 
ATOM      8  C   UNL     1       2.176   0.033   1.260  0.00  0.00    +0.027 C 
ATOM      9  C   UNL     1       3.134  -0.982   0.855  0.00  0.00    -0.020 C 
ATOM     10  C   UNL     1       3.445  -1.451   2.037  0.00  0.00    -0.026 C 
ATOM     11  C   UNL     1       0.730  -0.526   1.241  0.00  0.00    +0.126 C 
ATOM     12  C   UNL     1       0.002  -0.004   0.002  0.00  0.00    +0.032 C 
ENDROOT
BRANCH  11  13
ATOM     13  O   UNL     1       0.768  -1.954   1.232  0.00  0.00    -0.391 OA
ATOM     14  H   UNL     1      -0.105  -2.371   1.220  0.00  0.00    +0.210 HD
ENDBRANCH  11  13
TORSDOF 1
