REMARK  Name = ZINC59088070
REMARK  15 active torsions:
REMARK  status: ('A' for Active; 'I' for Inactive)
REMARK    1  A    between atoms: C_1  and  C_2
REMARK    2  A    between atoms: C_2  and  N_3
REMARK    3  A    between atoms: N_3  and  C_4
REMARK    4  A    between atoms: N_3  and  C_6
REMARK    5  A    between atoms: C_4  and  C_5
REMARK    6  A    between atoms: C_9  and  C_12
REMARK    7  A    between atoms: C_12  and  N_13
REMARK    8  A    between atoms: N_13  and  C_14
REMARK    9  A    between atoms: N_13  and  C_23
REMARK   10  A    between atoms: C_14  and  C_16
REMARK   11  A    between atoms: C_14  and  C_17
REMARK   12  A    between atoms: C_23  and  N_25
REMARK   13  A    between atoms: N_25  and  C_26
REMARK   14  A    between atoms: C_28  and  C_33
REMARK   15  A    between atoms: C_30  and  C_32
REMARK                            x       y       z     vdW  Elec       q    Type
REMARK                         _______ _______ _______ _____ _____    ______ ____
ROOT
ATOM      1  N   UNL     1      -0.189  -6.464   2.177  0.00  0.00    -0.301 N 
ENDROOT
BRANCH   1   2
ATOM      2  C   UNL     1      -0.356  -6.429   3.632  0.00  0.00    +0.103 C 
ATOM      3  C   UNL     1      -1.842  -6.306   3.972  0.00  0.00    +0.033 C 
BRANCH   2   4
ATOM      4  C   UNL     1       0.388  -5.245   4.195  0.00  0.00    -0.027 A 
ATOM      5  C   UNL     1       0.349  -4.029   3.537  0.00  0.00    +0.005 A 
ATOM      6  C   UNL     1       1.031  -2.943   4.053  0.00  0.00    +0.000 A 
ATOM      7  C   UNL     1       1.750  -3.072   5.227  0.00  0.00    +0.000 A 
ATOM      8  C   UNL     1       1.788  -4.287   5.884  0.00  0.00    +0.000 A 
ATOM      9  C   UNL     1       1.102  -5.372   5.371  0.00  0.00    +0.005 A 
ENDBRANCH   2   4
ENDBRANCH   1   2
BRANCH   1  10
ATOM     10  C   UNL     1       1.030  -6.680   1.643  0.00  0.00    +0.138 C 
ATOM     11  S   UNL     1       1.249  -6.594  -0.052  0.00  0.00    -0.018 S 
BRANCH  10  12
ATOM     12  N   UNL     1       2.076  -6.963   2.445  0.00  0.00    -0.297 N 
ATOM     13  H   UNL     1       2.712  -6.269   2.675  0.00  0.00    +0.154 HD
BRANCH  12  14
ATOM     14  C   UNL     1       2.243  -8.259   2.944  0.00  0.00    +0.033 A 
ATOM     15  C   UNL     1       1.287  -9.233   2.687  0.00  0.00    +0.026 A 
ATOM     16  C   UNL     1       1.456 -10.512   3.181  0.00  0.00    -0.048 A 
ATOM     17  C   UNL     1       2.575 -10.823   3.932  0.00  0.00    +0.006 A 
ATOM     18  C   UNL     1       3.529  -9.855   4.189  0.00  0.00    -0.048 A 
ATOM     19  C   UNL     1       3.369  -8.576   3.693  0.00  0.00    +0.026 A 
ATOM     20  C   UNL     1       4.747 -10.199   5.007  0.00  0.00    +0.044 C 
ATOM     21  C   UNL     1       0.418 -11.569   2.903  0.00  0.00    +0.044 C 
ENDBRANCH  12  14
ENDBRANCH  10  12
ENDBRANCH   1  10
BRANCH   1  22
ATOM     22  C   UNL     1      -1.347  -6.264   1.302  0.00  0.00    +0.142 C 
BRANCH  22  26
ATOM     23  C   UNL     1      -1.568  -2.158   0.146  0.00  0.00    +0.013 A 
ATOM     24  C   UNL     1      -0.811  -3.045  -0.596  0.00  0.00    +0.022 A 
ATOM     25  C   UNL     1      -0.739  -4.373  -0.222  0.00  0.00    +0.007 A 
ATOM     26  C   UNL     1      -1.424  -4.815   0.895  0.00  0.00    -0.030 A 
ATOM     27  C   UNL     1      -2.181  -3.928   1.637  0.00  0.00    +0.007 A 
ATOM     28  C   UNL     1      -2.249  -2.598   1.265  0.00  0.00    +0.022 A 
BRANCH  23  29
ATOM     29  N   UNL     1      -1.641  -0.814  -0.233  0.00  0.00    -0.394 NA
ATOM     30  H   UNL     1      -2.228  -0.313   0.417  0.00  0.00    +0.126 HD
BRANCH  29  32
ATOM     31  C   UNL     1       0.243  -0.202   1.207  0.00  0.00    +0.022 C 
ATOM     32  C   UNL     1      -0.293  -0.230  -0.226  0.00  0.00    +0.081 C 
ENDBRANCH  29  32
BRANCH  29  33
ATOM     33  C   UNL     1      -2.210  -0.716  -1.583  0.00  0.00    +0.081 C 
ATOM     34  C   UNL     1      -3.657  -1.213  -1.564  0.00  0.00    +0.022 C 
ENDBRANCH  29  33
ENDBRANCH  23  29
ENDBRANCH  22  26
ENDBRANCH   1  22
TORSDOF 10
