REMARK  Name = ZINC40317226
REMARK  11 active torsions:
REMARK  status: ('A' for Active; 'I' for Inactive)
REMARK    1  A    between atoms: C_1  and  C_2
REMARK    2  A    between atoms: C_4  and  O_9
REMARK    3  A    between atoms: O_9  and  C_10
REMARK    4  A    between atoms: C_10  and  C_11
REMARK    5  A    between atoms: C_11  and  C_13
REMARK    6  A    between atoms: C_11  and  O_37
REMARK    7  A    between atoms: C_13  and  N_14
REMARK    8  A    between atoms: N_14  and  C_15
REMARK    9  A    between atoms: C_16  and  C_26
REMARK   10  A    between atoms: C_21  and  C_25
REMARK   11  A    between atoms: N_28  and  C_29
REMARK                            x       y       z     vdW  Elec       q    Type
REMARK                         _______ _______ _______ _____ _____    ______ ____
ROOT
ATOM      1  C   UNL     1       0.459  -8.180  -5.208  0.00  0.00    +0.078 A 
ATOM      2  C   UNL     1       0.592  -8.866  -6.407  0.00  0.00    +0.068 A 
ATOM      3  C   UNL     1       0.730 -10.311  -6.333  0.00  0.00    -0.023 A 
ATOM      4  C   UNL     1       0.710 -10.804  -5.077  0.00  0.00    -0.004 A 
ATOM      5  S   UNL     1       0.521  -9.384  -4.039  0.00  0.00    -0.078 S 
ATOM      6  C   UNL     1       0.828 -12.241  -4.673  0.00  0.00    +0.046 C 
ATOM      7  C   UNL     1       0.597 -13.112  -5.916  0.00  0.00    -0.009 C 
ATOM      8  C   UNL     1       1.448 -12.568  -7.067  0.00  0.00    +0.008 C 
ATOM      9  C   UNL     1       0.887 -11.225  -7.539  0.00  0.00    +0.037 C 
ATOM     10  C   UNL     1       1.004 -14.556  -5.613  0.00  0.00    +0.008 C 
ENDROOT
BRANCH   2  11
ATOM     11  C   UNL     1       0.592  -8.163  -7.692  0.00  0.00    +0.247 C 
ATOM     12  O   UNL     1       1.640  -7.768  -8.169  0.00  0.00    -0.270 OA
ATOM     13  N   UNL     1      -0.568  -7.954  -8.345  0.00  0.00    -0.307 N 
ATOM     14  H   UNL     1      -1.403  -8.269  -7.965  0.00  0.00    +0.149 HD
BRANCH  13  15
ATOM     15  C   UNL     1      -0.568  -7.252  -9.631  0.00  0.00    +0.096 C 
ATOM     16  C   UNL     1      -0.637  -5.734  -9.393  0.00  0.00    +0.046 C 
ATOM     17  C   UNL     1      -0.959  -5.006 -10.721  0.00  0.00    +0.168 C 
ATOM     18  S   UNL     1      -1.912  -6.272 -11.655  0.00  0.00    -0.029 S 
ATOM     19  O   UNL     1      -1.192  -6.619 -12.830  0.00  0.00    -0.174 OA
ATOM     20  O   UNL     1      -3.264  -5.846 -11.763  0.00  0.00    -0.174 OA
ATOM     21  C   UNL     1      -1.817  -7.670 -10.458  0.00  0.00    +0.188 C 
ENDBRANCH  13  15
ENDBRANCH   2  11
BRANCH   1  22
ATOM     22  N   UNL     1       0.315  -6.819  -5.018  0.00  0.00    -0.335 N 
ATOM     23  H   UNL     1       0.294  -6.222  -5.783  0.00  0.00    +0.147 HD
BRANCH  22  24
ATOM     24  C   UNL     1       0.195  -6.276  -3.663  0.00  0.00    +0.136 C 
BRANCH  24  25
ATOM     25  C   UNL     1       0.048  -4.755  -3.734  0.00  0.00    +0.169 C 
BRANCH  25  26
ATOM     26  O   UNL     1      -1.181  -4.425  -4.384  0.00  0.00    -0.387 OA
ATOM     27  H   UNL     1      -1.967  -4.767  -3.936  0.00  0.00    +0.210 HD
ENDBRANCH  25  26
BRANCH  25  28
ATOM     28  C   UNL     1       0.047  -4.176  -2.317  0.00  0.00    +0.261 C 
BRANCH  28  29
ATOM     29  O   UNL     1       0.028  -2.749  -2.386  0.00  0.00    -0.489 OA
BRANCH  29  33
ATOM     30  C   UNL     1      -0.018   1.503   0.010  0.00  0.00    +0.045 C 
ATOM     31  C   UNL     1       0.002  -0.004   0.002  0.00  0.00    -0.029 A 
ATOM     32  C   UNL     1       0.006  -0.688  -1.199  0.00  0.00    +0.050 A 
ATOM     33  C   UNL     1       0.025  -2.075  -1.206  0.00  0.00    +0.121 A 
ATOM     34  C   UNL     1       0.040  -2.773  -0.007  0.00  0.00    +0.047 A 
ATOM     35  C   UNL     1       0.036  -2.086   1.192  0.00  0.00    +0.024 A 
ATOM     36  C   UNL     1       0.023  -0.702   1.196  0.00  0.00    +0.044 A 
ATOM     37 CL   UNL     1       0.025   0.160   2.704  0.00  0.00    -0.083 Cl
ENDBRANCH  29  33
ENDBRANCH  28  29
ENDBRANCH  25  28
ENDBRANCH  24  25
ENDBRANCH  22  24
ENDBRANCH   1  22
TORSDOF 9
