REMARK  Name = ZINC01781549
REMARK  9 active torsions:
REMARK  status: ('A' for Active; 'I' for Inactive)
REMARK    1  A    between atoms: C_1  and  O_2
REMARK    2  A    between atoms: O_2  and  C_3
REMARK    3  A    between atoms: C_6  and  C_9
REMARK    4  A    between atoms: C_10  and  C_11
REMARK    5  A    between atoms: N_13  and  N_14
REMARK    6  A    between atoms: C_15  and  C_17
REMARK    7  A    between atoms: C_17  and  O_18
REMARK    8  A    between atoms: O_18  and  C_19
REMARK    9  A    between atoms: C_22  and  N_25
REMARK                            x       y       z     vdW  Elec       q    Type
REMARK                         _______ _______ _______ _____ _____    ______ ____
ROOT
ATOM      1  N   UNL     1       0.002  -0.004   0.002  0.00  0.00    -0.231 N 
ATOM      2  C   UNL     1      -0.016   1.344   0.009  0.00  0.00    +0.267 C 
ATOM      3  O   UNL     1      -1.075   1.936   0.018  0.00  0.00    -0.271 OA
ATOM      4  H   UNL     1       0.849  -0.478  -0.009  0.00  0.00    +0.173 HD
ENDROOT
BRANCH   1   7
ATOM      5  C   UNL     1      -1.183  -2.069   0.002  0.00  0.00    +0.253 C 
ATOM      6  O   UNL     1      -0.121  -2.663  -0.011  0.00  0.00    -0.269 OA
ATOM      7  N   UNL     1      -1.202  -0.721   0.010  0.00  0.00    -0.231 N 
ATOM      8  H   UNL     1      -2.048  -0.247   0.020  0.00  0.00    +0.173 HD
BRANCH   5  10
ATOM      9  C   UNL     1      -2.421  -4.167   0.003  0.00  0.00    +0.013 C 
ATOM     10  C   UNL     1      -2.440  -2.817   0.010  0.00  0.00    +0.069 C 
BRANCH   9  14
ATOM     11  C   UNL     1      -6.066  -6.337   0.026  0.00  0.00    +0.120 A 
ATOM     12  C   UNL     1      -4.854  -7.018   0.011  0.00  0.00    +0.046 A 
ATOM     13  C   UNL     1      -3.668  -6.319   0.003  0.00  0.00    +0.011 A 
ATOM     14  C   UNL     1      -3.684  -4.919   0.011  0.00  0.00    -0.025 A 
ATOM     15  C   UNL     1      -4.907  -4.238   0.032  0.00  0.00    +0.011 A 
ATOM     16  C   UNL     1      -6.087  -4.947   0.034  0.00  0.00    +0.046 A 
BRANCH  11  18
ATOM     17  C   UNL     1      -8.441  -6.270   0.050  0.00  0.00    +0.277 C 
ATOM     18  O   UNL     1      -7.232  -7.032   0.034  0.00  0.00    -0.495 OA
ENDBRANCH  11  18
ENDBRANCH   9  14
ENDBRANCH   5  10
ENDBRANCH   1   7
BRANCH   2  19
ATOM     19  C   UNL     1       1.278   2.115   0.001  0.00  0.00    +0.326 C 
BRANCH  19  20
ATOM     20  O   UNL     1       0.998   3.516   0.011  0.00  0.00    -0.483 OA
BRANCH  20  21
ATOM     21  C   UNL     1       2.065   4.358   0.006  0.00  0.00    +0.121 A 
ATOM     22  C   UNL     1       3.354   3.847  -0.004  0.00  0.00    +0.048 A 
ATOM     23  C   UNL     1       4.437   4.705  -0.014  0.00  0.00    +0.036 A 
ATOM     24  C   UNL     1       4.236   6.073  -0.005  0.00  0.00    +0.126 A 
ATOM     25  C   UNL     1       2.951   6.586   0.010  0.00  0.00    +0.036 A 
ATOM     26  C   UNL     1       1.866   5.731   0.015  0.00  0.00    +0.048 A 
BRANCH  24  27
ATOM     27  N   UNL     1       5.397   6.991  -0.011  0.00  0.00    +0.056 N 
ATOM     28  O   UNL     1       5.221   8.196  -0.003  0.00  0.00    -0.126 OA
ATOM     29  O   UNL     1       6.529   6.541  -0.024  0.00  0.00    -0.126 OA
ENDBRANCH  24  27
ENDBRANCH  20  21
ENDBRANCH  19  20
ENDBRANCH   2  19
TORSDOF 8
