REMARK  Name = ZINC26963415
REMARK  7 active torsions:
REMARK  status: ('A' for Active; 'I' for Inactive)
REMARK    1  A    between atoms: C_1  and  C_2
REMARK    2  A    between atoms: C_5  and  N_9
REMARK    3  A    between atoms: C_6  and  C_8
REMARK    4  A    between atoms: C_10  and  C_12
REMARK    5  A    between atoms: C_12  and  C_14
REMARK    6  A    between atoms: C_12  and  S_15
REMARK    7  A    between atoms: S_15  and  C_16
REMARK                            x       y       z     vdW  Elec       q    Type
REMARK                         _______ _______ _______ _____ _____    ______ ____
ROOT
ATOM      1  N   UNL     1       2.403   1.107  -0.014  0.00  0.00    -0.284 N 
ATOM      2  C   UNL     1       2.426  -0.238   0.081  0.00  0.00    +0.230 C 
ATOM      3  O   UNL     1       1.388  -0.864   0.088  0.00  0.00    -0.274 OA
ATOM      4  H   UNL     1       3.345   1.669  -0.095  0.00  0.00    +0.155 HD
ENDROOT
BRANCH   1   9
ATOM      5  C   UNL     1      -2.555   3.864   0.001  0.00  0.00    +0.044 C 
ATOM      6  C   UNL     1      -1.238   3.131  -0.003  0.00  0.00    -0.050 A 
ATOM      7  C   UNL     1      -1.140   1.891  -0.607  0.00  0.00    +0.005 A 
ATOM      8  C   UNL     1       0.064   1.215  -0.608  0.00  0.00    +0.024 A 
ATOM      9  C   UNL     1       1.180   1.787  -0.010  0.00  0.00    +0.036 A 
ATOM     10  C   UNL     1       1.079   3.034   0.592  0.00  0.00    -0.029 A 
ATOM     11  C   UNL     1      -0.130   3.702   0.594  0.00  0.00    +0.008 A 
ATOM     12  C   UNL     1       2.287   3.657   1.242  0.00  0.00    +0.045 C 
ENDBRANCH   1   9
BRANCH   2  13
ATOM     13  C   UNL     1       3.744  -0.963   0.179  0.00  0.00    +0.136 C 
ATOM     14  C   UNL     1       4.199  -0.998   1.639  0.00  0.00    +0.029 C 
BRANCH  13  15
ATOM     15  S   UNL     1       3.548  -2.655  -0.432  0.00  0.00    -0.092 S 
BRANCH  15  16
ATOM     16  C   UNL     1       5.220  -3.206  -0.349  0.00  0.00    +0.115 A 
ATOM     17  C   UNL     1       5.563  -4.493  -0.728  0.00  0.00    +0.069 A 
ATOM     18  C   UNL     1       6.901  -4.938  -0.668  0.00  0.00    +0.082 A 
ATOM     19  C   UNL     1       7.114  -6.263  -1.087  0.00  0.00    +0.036 A 
ATOM     20  C   UNL     1       6.079  -7.013  -1.513  0.00  0.00    +0.048 A 
ATOM     21  S   UNL     1       4.691  -5.901  -1.359  0.00  0.00    -0.092 S 
ATOM     22  N   UNL     1       7.800  -4.031  -0.211  0.00  0.00    -0.235 NA
ATOM     23  C   UNL     1       7.434  -2.826   0.141  0.00  0.00    +0.223 A 
ATOM     24  N   UNL     1       6.186  -2.396   0.085  0.00  0.00    -0.228 NA
ENDBRANCH  15  16
ENDBRANCH  13  15
ENDBRANCH   2  13
TORSDOF 4
