REMARK  Name = ZINC22083444
REMARK  7 active torsions:
REMARK  status: ('A' for Active; 'I' for Inactive)
REMARK    1  A    between atoms: C_1  and  C_2
REMARK    2  A    between atoms: N_10  and  N_14
REMARK    3  A    between atoms: C_15  and  C_17
REMARK    4  A    between atoms: C_17  and  S_18
REMARK    5  A    between atoms: S_18  and  C_19
REMARK    6  A    between atoms: C_22  and  C_25
REMARK    7  A    between atoms: N_23  and  C_24
REMARK                            x       y       z     vdW  Elec       q    Type
REMARK                         _______ _______ _______ _____ _____    ______ ____
ROOT
ATOM      1  N   UNL     1       0.147  -7.268  -0.031  0.00  0.00    -0.223 N 
ATOM      2  C   UNL     1       0.910  -6.176   0.176  0.00  0.00    +0.240 C 
ATOM      3  O   UNL     1       2.079  -6.301   0.477  0.00  0.00    -0.273 OA
ATOM      4  H   UNL     1      -0.912  -7.154  -0.304  0.00  0.00    +0.174 HD
ENDROOT
BRANCH   1  14
ATOM      5  C   UNL     1       2.289 -12.501  -4.146  0.00  0.00    +0.007 C 
ATOM      6  C   UNL     1       2.232 -12.267  -2.635  0.00  0.00    -0.014 C 
ATOM      7  C   UNL     1       3.075 -11.042  -2.276  0.00  0.00    +0.006 C 
ATOM      8  C   UNL     1       3.026 -10.816  -0.763  0.00  0.00    +0.035 C 
ATOM      9  C   UNL     1       1.582 -10.607  -0.323  0.00  0.00    +0.114 C 
ATOM     10  C   UNL     1       0.723 -11.810  -0.696  0.00  0.00    +0.035 C 
ATOM     11  C   UNL     1       0.781 -12.032  -2.210  0.00  0.00    +0.006 C 
ATOM     12  C   UNL     1       1.015  -9.348  -0.939  0.00  0.00    +0.263 C 
ATOM     13  O   UNL     1       0.872  -9.109  -2.119  0.00  0.00    -0.271 OA
ATOM     14  N   UNL     1       0.704  -8.546   0.100  0.00  0.00    -0.137 N 
ATOM     15  C   UNL     1       0.989  -9.127   1.273  0.00  0.00    +0.326 C 
ATOM     16  O   UNL     1       0.793  -8.602   2.351  0.00  0.00    -0.251 OA
ATOM     17  N   UNL     1       1.515 -10.357   1.123  0.00  0.00    -0.284 N 
ATOM     18  H   UNL     1       1.867 -11.123   1.830  0.00  0.00    +0.151 HD
ENDBRANCH   1  14
BRANCH   2  19
ATOM     19  C   UNL     1       0.311  -4.800   0.035  0.00  0.00    +0.174 C 
BRANCH  19  20
ATOM     20  S   UNL     1       1.578  -3.553   0.374  0.00  0.00    -0.077 S 
BRANCH  20  21
ATOM     21  C   UNL     1       0.632  -2.085   0.144  0.00  0.00    +0.192 A 
ATOM     22  N   UNL     1      -0.638  -2.018  -0.182  0.00  0.00    -0.122 NA
ATOM     23  N   UNL     1      -1.004  -0.788  -0.265  0.00  0.00    -0.130 NA
ATOM     24  C   UNL     1       0.002  -0.004   0.002  0.00  0.00    +0.178 A 
ATOM     25  N   UNL     1       1.081  -0.801   0.267  0.00  0.00    -0.306 N 
ATOM     26  C   UNL     1       2.437  -0.368   0.614  0.00  0.00    +0.153 C 
BRANCH  24  27
ATOM     27  C   UNL     1      -0.018   1.503   0.010  0.00  0.00    +0.278 C 
ATOM     28  C   UNL     1      -0.749   2.004   1.264  0.00  0.00    +0.281 C 
ATOM     29  O   UNL     1      -0.761   3.435   1.233  0.00  0.00    -0.484 OA
ATOM     30  C   UNL     1      -1.110   4.018   0.054  0.00  0.00    +0.162 A 
ATOM     31  C   UNL     1      -1.491   5.352   0.040  0.00  0.00    +0.049 A 
ATOM     32  C   UNL     1      -1.845   5.959  -1.150  0.00  0.00    +0.004 A 
ATOM     33  C   UNL     1      -1.820   5.239  -2.330  0.00  0.00    +0.004 A 
ATOM     34  C   UNL     1      -1.441   3.910  -2.324  0.00  0.00    +0.049 A 
ATOM     35  C   UNL     1      -1.086   3.294  -1.132  0.00  0.00    +0.163 A 
ATOM     36  O   UNL     1      -0.722   1.982  -1.141  0.00  0.00    -0.474 OA
ENDBRANCH  24  27
ENDBRANCH  20  21
ENDBRANCH  19  20
ENDBRANCH   2  19
TORSDOF 5
