REMARK  Name = ZINC17079174
REMARK  5 active torsions:
REMARK  status: ('A' for Active; 'I' for Inactive)
REMARK    1  A    between atoms: C_1  and  C_2
REMARK    2  A    between atoms: C_3  and  C_25
REMARK    3  A    between atoms: C_4  and  N_10
REMARK    4  A    between atoms: C_6  and  C_7
REMARK    5  A    between atoms: C_11  and  C_13
REMARK                            x       y       z     vdW  Elec       q    Type
REMARK                         _______ _______ _______ _____ _____    ______ ____
ROOT
ATOM      1  N   UNL     1       1.234  -4.943  -0.036  0.00  0.00    -0.275 N 
ATOM      2  C   UNL     1       0.071  -4.262  -0.022  0.00  0.00    +0.256 C 
ATOM      3  O   UNL     1      -0.986  -4.864  -0.016  0.00  0.00    -0.270 OA
ATOM      4  H   UNL     1       2.077  -4.463  -0.041  0.00  0.00    +0.156 HD
ENDROOT
BRANCH   2   5
ATOM      5  C   UNL     1       0.080  -2.790  -0.014  0.00  0.00    +0.122 A 
ATOM      6  C   UNL     1       1.276  -2.093  -0.021  0.00  0.00    +0.031 A 
ATOM      7  C   UNL     1       1.238  -0.675  -0.013  0.00  0.00    +0.020 A 
ATOM      8  C   UNL     1       2.431   0.062  -0.021  0.00  0.00    +0.031 A 
ATOM      9  C   UNL     1       2.387   1.427  -0.013  0.00  0.00    +0.042 A 
ATOM     10  C   UNL     1       1.167   2.092   0.002  0.00  0.00    +0.023 A 
ATOM     11  C   UNL     1      -0.017   1.387   0.010  0.00  0.00    +0.048 A 
ATOM     12  C   UNL     1       0.002  -0.004   0.002  0.00  0.00    +0.139 A 
ATOM     13  O   UNL     1      -1.160  -0.692   0.009  0.00  0.00    -0.422 OA
ATOM     14  C   UNL     1      -1.179  -2.035   0.002  0.00  0.00    +0.350 A 
ATOM     15  O   UNL     1      -2.241  -2.628   0.009  0.00  0.00    -0.244 OA
ATOM     16 CL   UNL     1       3.865   2.338  -0.022  0.00  0.00    -0.084 Cl
ENDBRANCH   2   5
BRANCH   1  20
ATOM     17  C   UNL     1       3.161  -9.575  -0.079  0.00  0.00    +0.046 C 
ATOM     18  C   UNL     1       2.046  -8.562  -0.063  0.00  0.00    -0.012 A 
ATOM     19  C   UNL     1       2.313  -7.202  -0.059  0.00  0.00    +0.084 A 
ATOM     20  C   UNL     1       1.225  -6.324  -0.044  0.00  0.00    +0.090 A 
ATOM     21  S   UNL     1      -0.137  -7.396  -0.030  0.00  0.00    -0.067 S 
ATOM     22  C   UNL     1       0.734  -8.952  -0.053  0.00  0.00    +0.080 A 
BRANCH  22  23
ATOM     23  C   UNL     1       0.183 -10.308  -0.054  0.00  0.00    +0.248 C 
ATOM     24  O   UNL     1       0.930 -11.268  -0.066  0.00  0.00    -0.270 OA
ATOM     25  N   UNL     1      -1.152 -10.493  -0.043  0.00  0.00    -0.325 N 
ATOM     26  H   UNL     1      -1.748  -9.727  -0.034  0.00  0.00    +0.145 HD
ATOM     27  H   UNL     1      -1.517 -11.392  -0.044  0.00  0.00    +0.145 HD
ENDBRANCH  22  23
BRANCH  19  28
ATOM     28  C   UNL     1       3.659  -6.712  -0.069  0.00  0.00    +0.102 C 
ATOM     29  N   UNL     1       4.726  -6.324  -0.077  0.00  0.00    -0.191 NA
ENDBRANCH  19  28
ENDBRANCH   1  20
TORSDOF 4
