REMARK  Name = ZINC06439285
REMARK  9 active torsions:
REMARK  status: ('A' for Active; 'I' for Inactive)
REMARK    1  A    between atoms: C_1  and  C_2
REMARK    2  A    between atoms: C_2  and  O_3
REMARK    3  A    between atoms: O_3  and  C_4
REMARK    4  A    between atoms: C_4  and  C_6
REMARK    5  A    between atoms: C_8  and  C_21
REMARK    6  A    between atoms: N_13  and  C_20
REMARK    7  A    between atoms: C_14  and  C_15
REMARK    8  A    between atoms: C_14  and  O_19
REMARK    9  A    between atoms: C_24  and  N_27
REMARK                            x       y       z     vdW  Elec       q    Type
REMARK                         _______ _______ _______ _____ _____    ______ ____
ROOT
ATOM      1  C   UNL     1       1.467  -2.352  -2.527  0.00  0.00    +0.182 C 
ATOM      2  C   UNL     1       2.881  -1.769  -2.628  0.00  0.00    +0.123 C 
ATOM      3  N   UNL     1       3.576  -2.388  -3.757  0.00  0.00    -0.291 N 
ATOM      4  C   UNL     1       3.284  -3.635  -4.158  0.00  0.00    +0.305 C 
ATOM      5  O   UNL     1       3.900  -4.106  -5.095  0.00  0.00    -0.253 OA
ATOM      6  N   UNL     1       2.341  -4.382  -3.566  0.00  0.00    -0.252 N 
ATOM      7  C   UNL     1       1.570  -3.878  -2.428  0.00  0.00    +0.248 C 
ATOM      8  C   UNL     1       2.072  -5.731  -4.071  0.00  0.00    +0.137 C 
ATOM      9  H   UNL     1       4.262  -1.887  -4.225  0.00  0.00    +0.151 HD
ENDROOT
BRANCH   2  10
ATOM     10  C   UNL     1       2.797  -0.280  -2.841  0.00  0.00    -0.026 A 
ATOM     11  C   UNL     1       2.533   0.224  -4.101  0.00  0.00    +0.008 A 
ATOM     12  C   UNL     1       2.456   1.591  -4.297  0.00  0.00    +0.033 A 
ATOM     13  C   UNL     1       2.644   2.453  -3.233  0.00  0.00    +0.126 A 
ATOM     14  C   UNL     1       2.908   1.949  -1.973  0.00  0.00    +0.033 A 
ATOM     15  C   UNL     1       2.980   0.583  -1.776  0.00  0.00    +0.008 A 
BRANCH  13  16
ATOM     16  N   UNL     1       2.563   3.916  -3.442  0.00  0.00    +0.056 N 
ATOM     17  O   UNL     1       2.333   4.357  -4.544  0.00  0.00    -0.126 OA
ATOM     18  O   UNL     1       2.728   4.670  -2.512  0.00  0.00    -0.126 OA
ENDBRANCH  13  16
ENDBRANCH   2  10
BRANCH   7  19
ATOM     19  C   UNL     1       0.167  -4.487  -2.445  0.00  0.00    +0.437 C 
ATOM     20  F   UNL     1      -0.427  -4.255  -3.690  0.00  0.00    -0.166 F 
ATOM     21  F   UNL     1       0.254  -5.865  -2.219  0.00  0.00    -0.166 F 
ATOM     22  F   UNL     1      -0.610  -3.898  -1.441  0.00  0.00    -0.166 F 
ENDBRANCH   7  19
BRANCH   1  23
ATOM     23  C   UNL     1       0.782  -1.810  -1.299  0.00  0.00    +0.317 C 
ATOM     24  O   UNL     1       1.339  -1.854  -0.228  0.00  0.00    -0.250 OA
BRANCH  23  25
ATOM     25  O   UNL     1      -0.446  -1.277  -1.396  0.00  0.00    -0.465 OA
BRANCH  25  27
ATOM     26  C   UNL     1      -2.425  -0.218  -0.498  0.00  0.00    +0.048 C 
ATOM     27  C   UNL     1      -1.036  -0.782  -0.192  0.00  0.00    +0.229 C 
ENDBRANCH  25  27
ENDBRANCH  23  25
ENDBRANCH   1  23
BRANCH   7  28
ATOM     28  O   UNL     1       2.232  -4.233  -1.212  0.00  0.00    -0.364 OA
ATOM     29  H   UNL     1       2.332  -5.186  -1.083  0.00  0.00    +0.212 HD
ENDBRANCH   7  28
TORSDOF 7
