REMARK  Name = ZINC47309442
REMARK  4 active torsions:
REMARK  status: ('A' for Active; 'I' for Inactive)
REMARK    1  A    between atoms: C_3  and  C_6
REMARK    2  A    between atoms: C_13  and  N_26
REMARK    3  A    between atoms: C_14  and  C_24
REMARK    4  A    between atoms: C_15  and  C_17
REMARK                            x       y       z     vdW  Elec       q    Type
REMARK                         _______ _______ _______ _____ _____    ______ ____
ROOT
ATOM      1  C   UNL     1       3.736   1.822  -0.024  0.00  0.00    +0.080 A 
ATOM      2  C   UNL     1       4.754   1.370  -0.818  0.00  0.00    +0.050 A 
ATOM      3  C   UNL     1       5.909   2.114  -0.506  0.00  0.00    +0.245 A 
ATOM      4  N   UNL     1       5.606   2.972   0.426  0.00  0.00    -0.135 NA
ATOM      5  N   UNL     1       4.250   2.824   0.753  0.00  0.00    -0.273 N 
ATOM      6  H   UNL     1       3.763   3.340   1.415  0.00  0.00    +0.189 HD
ATOM      7  O   UNL     1       7.097   1.893  -1.132  0.00  0.00    -0.422 OA
ATOM      8  C   UNL     1       7.214   0.768  -1.864  0.00  0.00    +0.200 C 
ATOM      9  C   UNL     1       6.180  -0.017  -2.232  0.00  0.00    +0.094 C 
ATOM     10  C   UNL     1       4.749   0.285  -1.863  0.00  0.00    +0.075 C 
ENDROOT
BRANCH  10  11
ATOM     11  C   UNL     1       3.986   0.764  -3.100  0.00  0.00    +0.006 C 
ATOM     12  C   UNL     1       3.974  -0.346  -4.159  0.00  0.00    +0.009 C 
ATOM     13  C   UNL     1       3.365   0.218  -5.444  0.00  0.00    +0.027 C 
ATOM     14  C   UNL     1       2.073   0.918  -5.140  0.00  0.00    -0.031 C 
ATOM     15  C   UNL     1       1.716   1.300  -3.956  0.00  0.00    -0.031 C 
ATOM     16  C   UNL     1       2.541   1.091  -2.719  0.00  0.00    +0.031 C 
ENDBRANCH  10  11
BRANCH   1  19
ATOM     17  C   UNL     1      -0.016   1.354   0.009  0.00  0.00    +0.008 A 
ATOM     18  C   UNL     1       1.177   2.042   0.002  0.00  0.00    +0.017 A 
ATOM     19  C   UNL     1       2.348   1.328  -0.013  0.00  0.00    +0.037 A 
ATOM     20  S   UNL     1       1.752  -0.355  -0.017  0.00  0.00    -0.095 S 
ATOM     21  C   UNL     1       0.002  -0.004   0.002  0.00  0.00    +0.046 A 
ENDBRANCH   1  19
BRANCH   8  22
ATOM     22  N   UNL     1       8.473   0.393  -2.262  0.00  0.00    -0.328 N 
ATOM     23  H   UNL     1       9.241   0.933  -2.016  0.00  0.00    +0.145 HD
ATOM     24  H   UNL     1       8.596  -0.411  -2.790  0.00  0.00    +0.145 HD
ENDBRANCH   8  22
BRANCH   9  25
ATOM     25  C   UNL     1       6.453  -1.189  -3.008  0.00  0.00    +0.100 C 
ATOM     26  N   UNL     1       6.670  -2.119  -3.624  0.00  0.00    -0.191 NA
ENDBRANCH   9  25
TORSDOF 4
