REMARK  Name = ZINC40838681
REMARK  7 active torsions:
REMARK  status: ('A' for Active; 'I' for Inactive)
REMARK    1  A    between atoms: C_1  and  C_2
REMARK    2  A    between atoms: N_8  and  S_9
REMARK    3  A    between atoms: S_9  and  C_12
REMARK    4  A    between atoms: C_15  and  C_18
REMARK    5  A    between atoms: C_27  and  S_29
REMARK    6  A    between atoms: S_29  and  N_32
REMARK    7  A    between atoms: N_32  and  C_33
REMARK                            x       y       z     vdW  Elec       q    Type
REMARK                         _______ _______ _______ _____ _____    ______ ____
ROOT
ATOM      1  C   UNL     1      -2.455   0.608   6.850  0.00  0.00    +0.251 C 
ATOM      2  O   UNL     1      -3.438   1.322   6.809  0.00  0.00    -0.270 OA
ATOM      3  N   UNL     1      -2.242  -0.186   7.918  0.00  0.00    -0.267 N 
ATOM      4  C   UNL     1      -1.163  -1.170   8.031  0.00  0.00    +0.118 C 
ATOM      5  C   UNL     1      -1.344  -1.810   9.417  0.00  0.00    +0.056 C 
ATOM      6  C   UNL     1      -2.553  -1.115  10.002  0.00  0.00    -0.023 A 
ATOM      7  C   UNL     1      -3.015  -0.186   9.082  0.00  0.00    +0.040 A 
ATOM      8  C   UNL     1      -4.131   0.589   9.404  0.00  0.00    +0.026 A 
ATOM      9  C   UNL     1      -4.758   0.433  10.622  0.00  0.00    +0.030 A 
ATOM     10  C   UNL     1      -4.286  -0.493  11.534  0.00  0.00    +0.106 A 
ATOM     11  C   UNL     1      -3.187  -1.271  11.219  0.00  0.00    +0.034 A 
ENDROOT
BRANCH   1  15
ATOM     12  C   UNL     1       0.311   0.619   3.627  0.00  0.00    +0.106 A 
ATOM     13  C   UNL     1      -0.726   1.534   3.647  0.00  0.00    +0.029 A 
ATOM     14  C   UNL     1      -1.628   1.536   4.691  0.00  0.00    +0.015 A 
ATOM     15  C   UNL     1      -1.492   0.612   5.728  0.00  0.00    +0.037 A 
ATOM     16  C   UNL     1      -0.444  -0.310   5.701  0.00  0.00    +0.015 A 
ATOM     17  C   UNL     1       0.448  -0.304   4.649  0.00  0.00    +0.029 A 
BRANCH  12  18
ATOM     18  S   UNL     1       1.459   0.623   2.290  0.00  0.00    +0.061 S 
ATOM     19  O   UNL     1       2.651   0.021   2.776  0.00  0.00    -0.153 OA
ATOM     20  O   UNL     1       1.436   1.933   1.739  0.00  0.00    -0.153 OA
BRANCH  18  27
ATOM     21  C   UNL     1      -0.337   1.596   0.330  0.00  0.00    +0.026 C 
ATOM     22  C   UNL     1      -0.139   0.088   0.159  0.00  0.00    +0.077 C 
ATOM     23  C   UNL     1       0.363  -0.206  -1.258  0.00  0.00    +0.020 C 
ATOM     24  C   UNL     1       0.692  -1.695  -1.380  0.00  0.00    +0.003 C 
ATOM     25  C   UNL     1       1.801  -2.057  -0.390  0.00  0.00    +0.017 C 
ATOM     26  C   UNL     1       1.315  -1.784   1.037  0.00  0.00    +0.110 C 
ATOM     27  N   UNL     1       0.858  -0.390   1.126  0.00  0.00    -0.174 NA
ENDBRANCH  18  27
ENDBRANCH  12  18
ENDBRANCH   1  15
BRANCH  10  28
ATOM     28  S   UNL     1      -5.090  -0.690  13.089  0.00  0.00    +0.059 S 
ATOM     29  O   UNL     1      -4.126  -1.236  13.979  0.00  0.00    -0.153 OA
ATOM     30  O   UNL     1      -5.766   0.532  13.355  0.00  0.00    -0.153 OA
BRANCH  28  31
ATOM     31  N   UNL     1      -6.261  -1.845  12.893  0.00  0.00    -0.187 NA
ATOM     32  H   UNL     1      -7.197  -1.608  12.986  0.00  0.00    +0.148 HD
BRANCH  31  33
ATOM     33  C   UNL     1      -5.883  -3.225  12.580  0.00  0.00    +0.077 C 
ATOM     34  C   UNL     1      -5.999  -3.473  11.061  0.00  0.00    +0.020 C 
ATOM     35  C   UNL     1      -6.527  -4.925  10.953  0.00  0.00    +0.002 C 
ATOM     36  C   UNL     1      -7.526  -5.015  12.133  0.00  0.00    +0.002 C 
ATOM     37  C   UNL     1      -6.853  -4.205  13.261  0.00  0.00    +0.020 C 
ENDBRANCH  31  33
ENDBRANCH  28  31
ENDBRANCH  10  28
TORSDOF 6
