REMARK  Name = ZINC16577950
REMARK  8 active torsions:
REMARK  status: ('A' for Active; 'I' for Inactive)
REMARK    1  A    between atoms: C_1  and  C_2
REMARK    2  A    between atoms: C_2  and  C_38
REMARK    3  A    between atoms: C_6  and  C_28
REMARK    4  A    between atoms: N_8  and  C_16
REMARK    5  A    between atoms: C_16  and  C_17
REMARK    6  A    between atoms: N_19  and  C_20
REMARK    7  A    between atoms: C_20  and  C_21
REMARK    8  A    between atoms: C_21  and  C_22
REMARK                            x       y       z     vdW  Elec       q    Type
REMARK                         _______ _______ _______ _____ _____    ______ ____
ROOT
ATOM      1  C   UNL     1      -0.717   1.587  -0.115  0.00  0.00    +0.011 C 
ATOM      2  C   UNL     1      -0.491   0.074  -0.093  0.00  0.00    -0.023 C 
ATOM      3  C   UNL     1      -1.835  -0.649  -0.026  0.00  0.00    +0.058 C 
ATOM      4  C   UNL     1      -1.613  -2.152   0.008  0.00  0.00    +0.017 C 
ATOM      5  C   UNL     1      -0.530  -2.664   0.617  0.00  0.00    +0.032 C 
ATOM      6  C   UNL     1      -0.197  -4.132   0.745  0.00  0.00    +0.113 C 
ATOM      7  N   UNL     1      -1.010  -5.004  -0.076  0.00  0.00    -0.312 N 
ATOM      8  C   UNL     1      -2.381  -5.124   0.139  0.00  0.00    +0.052 A 
ATOM      9  C   UNL     1      -2.947  -6.317   0.560  0.00  0.00    +0.025 A 
ATOM     10  C   UNL     1      -4.308  -6.375   0.804  0.00  0.00    +0.002 A 
ATOM     11  C   UNL     1      -5.099  -5.254   0.634  0.00  0.00    +0.002 A 
ATOM     12  C   UNL     1      -4.540  -4.065   0.197  0.00  0.00    +0.025 A 
ATOM     13  C   UNL     1      -3.182  -4.011  -0.067  0.00  0.00    +0.052 A 
ATOM     14  N   UNL     1      -2.577  -2.882  -0.607  0.00  0.00    -0.316 N 
ATOM     15  C   UNL     1       0.431  -1.807   1.202  0.00  0.00    +0.163 C 
ATOM     16  O   UNL     1       1.391  -2.300   1.763  0.00  0.00    -0.292 OA
ATOM     17  C   UNL     1       0.310  -0.314   1.155  0.00  0.00    +0.086 C 
ATOM     18  C   UNL     1       0.268  -0.355  -1.350  0.00  0.00    +0.011 C 
ATOM     19  H   UNL     1      -2.864  -2.595  -1.488  0.00  0.00    +0.152 HD
ENDROOT
BRANCH   6  20
ATOM     20  C   UNL     1      -0.376  -4.544   2.208  0.00  0.00    +0.018 C 
ATOM     21  C   UNL     1      -0.248  -6.067   2.334  0.00  0.00    +0.010 C 
ATOM     22  C   UNL     1      -0.251  -6.432   3.820  0.00  0.00    +0.027 C 
ATOM     23  C   UNL     1      -1.399  -5.760   4.515  0.00  0.00    -0.031 C 
ATOM     24  C   UNL     1      -2.056  -4.757   4.026  0.00  0.00    -0.031 C 
ATOM     25  C   UNL     1      -1.766  -4.128   2.694  0.00  0.00    +0.032 C 
ENDBRANCH   6  20
BRANCH   7  26
ATOM     26  C   UNL     1      -0.379  -5.774  -1.152  0.00  0.00    +0.201 C 
BRANCH  26  27
ATOM     27  C   UNL     1      -0.064  -7.162  -0.658  0.00  0.00    +0.230 C 
ATOM     28  O   UNL     1      -0.442  -7.516   0.439  0.00  0.00    -0.274 OA
ATOM     29  N   UNL     1       0.638  -8.011  -1.435  0.00  0.00    -0.314 N 
ATOM     30  H   UNL     1       0.940  -7.728  -2.312  0.00  0.00    +0.149 HD
BRANCH  29  31
ATOM     31  C   UNL     1       0.944  -9.361  -0.955  0.00  0.00    +0.110 C 
BRANCH  31  32
ATOM     32  C   UNL     1       1.744 -10.112  -2.022  0.00  0.00    +0.073 C 
BRANCH  32  33
ATOM     33  C   UNL     1       2.059 -11.500  -1.528  0.00  0.00    +0.035 A 
ATOM     34  H   UNL     1       1.605 -14.536  -0.971  0.00  0.00    +0.166 HD
ATOM     35  C   UNL     1       1.255 -12.576  -1.623  0.00  0.00    +0.105 A 
ATOM     36  N   UNL     1       1.926 -13.624  -1.054  0.00  0.00    -0.352 N 
ATOM     37  C   UNL     1       3.118 -13.152  -0.630  0.00  0.00    +0.171 A 
ATOM     38  N   UNL     1       3.193 -11.882  -0.921  0.00  0.00    -0.350 N 
ATOM     39  H   UNL     1       3.948 -11.306  -0.728  0.00  0.00    +0.166 HD
ENDBRANCH  32  33
ENDBRANCH  31  32
ENDBRANCH  29  31
ENDBRANCH  26  27
ENDBRANCH   7  26
TORSDOF 6
