REMARK  Name = ZINC02886510
REMARK  8 active torsions:
REMARK  status: ('A' for Active; 'I' for Inactive)
REMARK    1  A    between atoms: C_3  and  C_10
REMARK    2  A    between atoms: C_5  and  N_7
REMARK    3  A    between atoms: N_12  and  C_13
REMARK    4  A    between atoms: C_13  and  N_15
REMARK    5  A    between atoms: N_15  and  N_16
REMARK    6  A    between atoms: C_17  and  C_19
REMARK    7  A    between atoms: C_19  and  O_20
REMARK    8  A    between atoms: O_20  and  C_21
REMARK                            x       y       z     vdW  Elec       q    Type
REMARK                         _______ _______ _______ _____ _____    ______ ____
ROOT
ATOM      1  N   UNL     1       4.787   5.542  -0.016  0.00  0.00    -0.245 N 
ATOM      2  H   UNL     1       5.621   6.036  -0.021  0.00  0.00    +0.172 HD
ENDROOT
BRANCH   1   3
ATOM      3  N   UNL     1       3.566   6.229  -0.001  0.00  0.00    -0.232 N 
ATOM      4  C   UNL     1       3.551   7.577   0.006  0.00  0.00    +0.267 C 
ATOM      5  O   UNL     1       4.595   8.194  -0.001  0.00  0.00    -0.271 OA
ATOM      6  H   UNL     1       2.731   5.735   0.005  0.00  0.00    +0.173 HD
BRANCH   4   7
ATOM      7  C   UNL     1       2.238   8.316   0.023  0.00  0.00    +0.326 C 
BRANCH   7   8
ATOM      8  O   UNL     1       2.484   9.723   0.028  0.00  0.00    -0.482 OA
BRANCH   8   9
ATOM      9  C   UNL     1       1.397  10.540   0.042  0.00  0.00    +0.135 A 
ATOM     10  C   UNL     1       0.120   9.996   0.058  0.00  0.00    +0.048 A 
ATOM     11  C   UNL     1      -0.983  10.827   0.073  0.00  0.00    +0.023 A 
ATOM     12  C   UNL     1      -0.816  12.201   0.072  0.00  0.00    +0.042 A 
ATOM     13  C   UNL     1       0.455  12.745   0.057  0.00  0.00    +0.039 A 
ATOM     14  C   UNL     1       1.562  11.917   0.048  0.00  0.00    +0.061 A 
ATOM     15 BR   UNL     1       3.301  12.662   0.034  0.00  0.00    -0.046 Br
ATOM     16 CL   UNL     1      -2.205  13.242   0.091  0.00  0.00    -0.084 Cl
ENDBRANCH   8   9
ENDBRANCH   7   8
ENDBRANCH   4   7
ENDBRANCH   1   3
BRANCH   1  17
ATOM     17  C   UNL     1       4.801   4.194  -0.023  0.00  0.00    +0.153 C 
ATOM     18  S   UNL     1       6.293   3.354  -0.041  0.00  0.00    -0.017 S 
BRANCH  17  21
ATOM     19  C   UNL     1       3.656   2.160  -0.022  0.00  0.00    +0.250 C 
ATOM     20  O   UNL     1       4.715   1.564  -0.035  0.00  0.00    -0.270 OA
ATOM     21  N   UNL     1       3.642   3.507  -0.015  0.00  0.00    -0.263 N 
ATOM     22  H   UNL     1       2.796   3.983  -0.004  0.00  0.00    +0.157 HD
BRANCH  19  25
ATOM     23  C   UNL     1      -0.017   1.379   0.010  0.00  0.00    +0.003 A 
ATOM     24  C   UNL     1       1.167   2.088   0.002  0.00  0.00    +0.013 A 
ATOM     25  C   UNL     1       2.385   1.407  -0.013  0.00  0.00    +0.039 A 
ATOM     26  C   UNL     1       2.397   0.011  -0.021  0.00  0.00    +0.045 A 
ATOM     27  C   UNL     1       1.206  -0.686  -0.013  0.00  0.00    +0.127 A 
ATOM     28  C   UNL     1       0.002  -0.004   0.002  0.00  0.00    +0.033 A 
BRANCH  27  29
ATOM     29  N   UNL     1       1.217  -2.166  -0.021  0.00  0.00    +0.056 N 
ATOM     30  O   UNL     1       2.268  -2.763  -0.034  0.00  0.00    -0.126 OA
ATOM     31  O   UNL     1       0.174  -2.778  -0.014  0.00  0.00    -0.126 OA
ENDBRANCH  27  29
ENDBRANCH  19  25
ENDBRANCH  17  21
ENDBRANCH   1  17
TORSDOF 8
