REMARK  Name = ZINC39218223
REMARK  6 active torsions:
REMARK  status: ('A' for Active; 'I' for Inactive)
REMARK    1  A    between atoms: C_4  and  C_7
REMARK    2  A    between atoms: C_8  and  N_14
REMARK    3  A    between atoms: N_14  and  N_15
REMARK    4  A    between atoms: C_18  and  C_25
REMARK    5  A    between atoms: C_20  and  C_23
REMARK    6  A    between atoms: C_21  and  N_22
REMARK                            x       y       z     vdW  Elec       q    Type
REMARK                         _______ _______ _______ _____ _____    ______ ____
ROOT
ATOM      1  N   UNL     1       1.347  -2.143  -0.451  0.00  0.00    -0.211 N 
ATOM      2  C   UNL     1       0.513  -1.934   0.614  0.00  0.00    +0.039 C 
ATOM      3  C   UNL     1      -0.800  -1.686   0.422  0.00  0.00    +0.026 C 
ATOM      4  C   UNL     1      -1.383  -1.632  -0.968  0.00  0.00    +0.100 C 
ATOM      5  C   UNL     1      -0.308  -1.455  -1.999  0.00  0.00    +0.078 C 
ATOM      6  C   UNL     1       0.995  -1.712  -1.708  0.00  0.00    +0.119 C 
ATOM      7  C   UNL     1      -1.664  -1.473   1.510  0.00  0.00    +0.162 C 
ATOM      8  O   UNL     1      -2.838  -1.235   1.302  0.00  0.00    -0.292 OA
ATOM      9  C   UNL     1      -1.164  -1.537   2.928  0.00  0.00    +0.080 C 
ATOM     10  C   UNL     1       0.039  -2.483   2.990  0.00  0.00    +0.014 C 
ATOM     11  C   UNL     1       1.099  -1.985   2.004  0.00  0.00    +0.053 C 
ENDROOT
BRANCH   4  12
ATOM     12  C   UNL     1      -2.124  -2.915  -1.242  0.00  0.00    +0.000 A 
ATOM     13  C   UNL     1      -1.455  -4.123  -1.197  0.00  0.00    +0.007 A 
ATOM     14  C   UNL     1      -2.134  -5.300  -1.449  0.00  0.00    +0.000 A 
ATOM     15  C   UNL     1      -3.484  -5.271  -1.747  0.00  0.00    +0.003 A 
ATOM     16  C   UNL     1      -4.156  -4.064  -1.792  0.00  0.00    +0.038 A 
ATOM     17  C   UNL     1      -3.477  -2.885  -1.534  0.00  0.00    +0.127 A 
ATOM     18  F   UNL     1      -4.134  -1.704  -1.574  0.00  0.00    -0.205 F 
ENDBRANCH   4  12
BRANCH   6  19
ATOM     19  N   UNL     1       1.961  -1.545  -2.671  0.00  0.00    -0.344 N 
ATOM     20  H   UNL     1       2.890  -1.732  -2.463  0.00  0.00    +0.144 HD
ATOM     21  H   UNL     1       1.714  -1.241  -3.558  0.00  0.00    +0.144 HD
ENDBRANCH   6  19
BRANCH   1  22
ATOM     22  N   UNL     1       2.571  -2.796  -0.257  0.00  0.00    -0.260 N 
ATOM     23  H   UNL     1       2.597  -3.762  -0.176  0.00  0.00    +0.170 HD
BRANCH  22  25
ATOM     24  C   UNL     1       4.959  -2.695  -0.086  0.00  0.00    +0.110 C 
ATOM     25  C   UNL     1       3.713  -2.081  -0.184  0.00  0.00    +0.059 C 
ATOM     26  C   UNL     1       3.710  -0.561  -0.203  0.00  0.00    +0.153 C 
ATOM     27  C   UNL     1       5.076   0.096  -0.113  0.00  0.00    +0.260 C 
ATOM     28  O   UNL     1       5.193   1.305  -0.119  0.00  0.00    -0.272 OA
ATOM     29  N   UNL     1       6.147  -0.706  -0.025  0.00  0.00    -0.080 NA
ATOM     30  N   UNL     1       6.072  -1.979  -0.010  0.00  0.00    -0.155 NA
BRANCH  24  34
ATOM     31  C   UNL     1       5.196  -6.940  -0.017  0.00  0.00    +0.000 A 
ATOM     32  C   UNL     1       4.419  -6.308  -0.972  0.00  0.00    +0.001 A 
ATOM     33  C   UNL     1       4.339  -4.931  -0.999  0.00  0.00    +0.010 A 
ATOM     34  C   UNL     1       5.041  -4.176  -0.062  0.00  0.00    +0.003 A 
ATOM     35  C   UNL     1       5.822  -4.817   0.898  0.00  0.00    +0.010 A 
ATOM     36  C   UNL     1       5.895  -6.195   0.916  0.00  0.00    +0.001 A 
ENDBRANCH  24  34
ENDBRANCH  22  25
ENDBRANCH   1  22
BRANCH   5  37
ATOM     37  C   UNL     1      -0.660  -1.003  -3.312  0.00  0.00    +0.099 C 
ATOM     38  N   UNL     1      -0.939  -0.645  -4.353  0.00  0.00    -0.191 NA
ENDBRANCH   5  37
TORSDOF 6
