REMARK  Name = ZINC36060935
REMARK  13 active torsions:
REMARK  status: ('A' for Active; 'I' for Inactive)
REMARK    1  A    between atoms: C_1  and  C_2
REMARK    2  A    between atoms: C_2  and  C_3
REMARK    3  A    between atoms: C_2  and  C_4
REMARK    4  A    between atoms: C_4  and  N_5
REMARK    5  A    between atoms: N_5  and  C_6
REMARK    6  A    between atoms: C_6  and  C_7
REMARK    7  A    between atoms: C_12  and  C_23
REMARK    8  A    between atoms: N_14  and  C_15
REMARK    9  A    between atoms: C_18  and  O_21
REMARK   10  A    between atoms: O_21  and  C_22
REMARK   11  A    between atoms: C_30  and  C_32
REMARK   12  A    between atoms: C_32  and  C_33
REMARK   13  A    between atoms: C_32  and  C_34
REMARK                            x       y       z     vdW  Elec       q    Type
REMARK                         _______ _______ _______ _____ _____    ______ ____
ROOT
ATOM      1  C   UNL     1      -1.825  -3.374   1.433  0.00  0.00    +0.237 C 
ATOM      2  O   UNL     1      -2.918  -2.961   1.108  0.00  0.00    -0.274 OA
ATOM      3  N   UNL     1      -1.709  -4.232   2.466  0.00  0.00    -0.254 N 
ATOM      4  C   UNL     1      -2.840  -4.643   3.158  0.00  0.00    +0.207 A 
ATOM      5  N   UNL     1      -4.070  -4.273   2.900  0.00  0.00    -0.214 NA
ATOM      6  C   UNL     1      -4.908  -4.870   3.774  0.00  0.00    +0.091 A 
ATOM      7  C   UNL     1      -4.165  -5.642   4.607  0.00  0.00    +0.122 A 
ATOM      8  N   UNL     1      -2.856  -5.503   4.215  0.00  0.00    -0.287 N 
ATOM      9  H   UNL     1      -0.835  -4.563   2.725  0.00  0.00    +0.158 HD
ENDROOT
BRANCH   6  10
ATOM     10  C   UNL     1      -6.382  -4.710   3.816  0.00  0.00    +0.002 A 
ATOM     11  C   UNL     1      -7.131  -5.384   4.779  0.00  0.00    +0.011 A 
ATOM     12  C   UNL     1      -8.502  -5.232   4.814  0.00  0.00    +0.020 A 
ATOM     13  C   UNL     1      -9.134  -4.413   3.894  0.00  0.00    +0.041 A 
ATOM     14  C   UNL     1      -8.395  -3.742   2.936  0.00  0.00    +0.020 A 
ATOM     15  C   UNL     1      -7.022  -3.882   2.896  0.00  0.00    +0.011 A 
ATOM     16 CL   UNL     1     -10.859  -4.227   3.943  0.00  0.00    -0.084 Cl
ENDBRANCH   6  10
BRANCH   8  17
ATOM     17  C   UNL     1      -1.742  -6.128   4.797  0.00  0.00    +0.049 A 
ATOM     18  C   UNL     1      -0.821  -6.790   3.997  0.00  0.00    +0.030 A 
ATOM     19  C   UNL     1       0.275  -7.404   4.570  0.00  0.00    +0.047 A 
ATOM     20  C   UNL     1       0.456  -7.360   5.945  0.00  0.00    +0.120 A 
ATOM     21  C   UNL     1      -0.465  -6.698   6.745  0.00  0.00    +0.047 A 
ATOM     22  C   UNL     1      -1.558  -6.080   6.172  0.00  0.00    +0.030 A 
BRANCH  20  23
ATOM     23  O   UNL     1       1.535  -7.965   6.508  0.00  0.00    -0.495 OA
ATOM     24  C   UNL     1       1.658  -7.880   7.929  0.00  0.00    +0.277 C 
ENDBRANCH  20  23
ENDBRANCH   8  17
BRANCH   1  25
ATOM     25  C   UNL     1      -0.598  -2.928   0.681  0.00  0.00    +0.203 C 
BRANCH  25  26
ATOM     26  N   UNL     1      -0.987  -2.004  -0.387  0.00  0.00    -0.292 N 
ATOM     27  C   UNL     1      -1.356  -2.483  -1.591  0.00  0.00    +0.219 C 
ATOM     28  O   UNL     1      -1.748  -1.724  -2.452  0.00  0.00    -0.275 OA
BRANCH  27  29
ATOM     29  C   UNL     1      -1.282  -3.963  -1.868  0.00  0.00    +0.069 C 
ATOM     30  C   UNL     1      -2.613  -4.619  -1.497  0.00  0.00    +0.017 C 
ATOM     31  C   UNL     1      -0.998  -4.189  -3.355  0.00  0.00    +0.017 C 
ENDBRANCH  27  29
BRANCH  26  32
ATOM     32  C   UNL     1      -0.976  -0.559  -0.145  0.00  0.00    +0.111 C 
BRANCH  32  34
ATOM     33  C   UNL     1       0.298   1.556  -0.525  0.00  0.00    +0.009 C 
ATOM     34  C   UNL     1       0.342   0.032  -0.648  0.00  0.00    +0.000 C 
ATOM     35  C   UNL     1       1.499  -0.514   0.191  0.00  0.00    +0.009 C 
ENDBRANCH  32  34
ENDBRANCH  26  32
ENDBRANCH  25  26
ENDBRANCH   1  25
TORSDOF 8
