REMARK  Name = ZINC06632264
REMARK  13 active torsions:
REMARK  status: ('A' for Active; 'I' for Inactive)
REMARK    1  A    between atoms: C_1  and  C_2
REMARK    2  A    between atoms: C_6  and  N_9
REMARK    3  A    between atoms: C_7  and  C_8
REMARK    4  A    between atoms: N_9  and  C_10
REMARK    5  A    between atoms: C_10  and  N_12
REMARK    6  A    between atoms: N_12  and  C_13
REMARK    7  A    between atoms: N_12  and  C_20
REMARK    8  A    between atoms: C_13  and  C_14
REMARK    9  A    between atoms: C_17  and  C_19
REMARK   10  A    between atoms: C_22  and  C_28
REMARK   11  A    between atoms: C_22  and  C_29
REMARK   12  A    between atoms: C_24  and  C_26
REMARK   13  A    between atoms: C_24  and  C_27
REMARK                            x       y       z     vdW  Elec       q    Type
REMARK                         _______ _______ _______ _____ _____    ______ ____
ROOT
ATOM      1  N   UNL     1      -0.059  -4.809   3.591  0.00  0.00    -0.302 N 
ENDROOT
BRANCH   1   2
ATOM      2  C   UNL     1      -0.151  -4.071   4.858  0.00  0.00    +0.073 C 
ATOM      3  C   UNL     1       1.114  -3.232   5.044  0.00  0.00    +0.009 C 
ATOM      4  C   UNL     1       1.028  -2.449   6.353  0.00  0.00    -0.072 C 
ATOM      5  N   UNL     1      -0.187  -1.652   6.436  0.00  0.00    +0.386 N 
ATOM      6  C   UNL     1      -1.442  -2.294   6.080  0.00  0.00    -0.072 C 
ATOM      7  C   UNL     1      -1.351  -3.126   4.804  0.00  0.00    +0.009 C 
ATOM      8  C   UNL     1      -1.984  -3.153   7.225  0.00  0.00    -0.010 C 
ATOM      9  C   UNL     1      -2.480  -1.175   5.824  0.00  0.00    -0.010 C 
ATOM     10  C   UNL     1       2.228  -1.474   6.384  0.00  0.00    -0.010 C 
ATOM     11  C   UNL     1       1.180  -3.393   7.545  0.00  0.00    -0.010 C 
ATOM     12  H   UNL     1      -0.270  -1.290   7.390  0.00  0.00    -0.084 HD
ATOM     13  H   UNL     1      -0.070  -0.825   5.845  0.00  0.00    -0.084 HD
ENDBRANCH   1   2
BRANCH   1  14
ATOM     14  C   UNL     1      -0.031  -4.139   2.422  0.00  0.00    +0.138 C 
ATOM     15  S   UNL     1      -0.026  -5.000   0.943  0.00  0.00    -0.018 S 
BRANCH  14  16
ATOM     16  N   UNL     1      -0.007  -2.791   2.418  0.00  0.00    -0.297 N 
ATOM     17  H   UNL     1       0.070  -2.305   3.254  0.00  0.00    +0.154 HD
BRANCH  16  23
ATOM     18  C   UNL     1      -2.129   0.707  -0.307  0.00  0.00    +0.044 C 
ATOM     19  C   UNL     1      -1.113  -0.393  -0.140  0.00  0.00    -0.046 A 
ATOM     20  C   UNL     1      -0.265  -0.715  -1.184  0.00  0.00    +0.004 A 
ATOM     21  C   UNL     1       0.668  -1.724  -1.035  0.00  0.00    +0.002 A 
ATOM     22  C   UNL     1       0.756  -2.414   0.158  0.00  0.00    +0.023 A 
ATOM     23  C   UNL     1      -0.094  -2.094   1.208  0.00  0.00    +0.036 A 
ATOM     24  C   UNL     1      -1.026  -1.076   1.057  0.00  0.00    -0.026 A 
ATOM     25  C   UNL     1      -1.947  -0.720   2.196  0.00  0.00    +0.046 C 
ENDBRANCH  16  23
ENDBRANCH  14  16
ENDBRANCH   1  14
BRANCH   1  26
ATOM     26  C   UNL     1       0.002  -6.272   3.599  0.00  0.00    +0.181 C 
BRANCH  26  27
ATOM     27  C   UNL     1       1.442  -6.714   3.670  0.00  0.00    +0.122 A 
ATOM     28  C   UNL     1       2.138  -6.947   4.796  0.00  0.00    +0.046 A 
ATOM     29  C   UNL     1       3.438  -7.338   4.401  0.00  0.00    +0.045 A 
ATOM     30  C   UNL     1       3.458  -7.321   3.056  0.00  0.00    +0.102 A 
ATOM     31  O   UNL     1       2.244  -6.948   2.619  0.00  0.00    -0.463 OA
ATOM     32  C   UNL     1       4.639  -7.667   2.187  0.00  0.00    +0.086 C 
ENDBRANCH  26  27
ENDBRANCH   1  26
TORSDOF 6
