REMARK  Name = ZINC06764125
REMARK  7 active torsions:
REMARK  status: ('A' for Active; 'I' for Inactive)
REMARK    1  A    between atoms: C_1  and  C_2
REMARK    2  A    between atoms: C_9  and  N_13
REMARK    3  A    between atoms: C_10  and  C_11
REMARK    4  A    between atoms: N_13  and  C_14
REMARK    5  A    between atoms: C_14  and  N_16
REMARK    6  A    between atoms: C_17  and  C_19
REMARK    7  A    between atoms: C_20  and  C_21
REMARK                            x       y       z     vdW  Elec       q    Type
REMARK                         _______ _______ _______ _____ _____    ______ ____
ROOT
ATOM      1  N   UNL     1       1.931  -5.846  -1.734  0.00  0.00    -0.290 N 
ATOM      2  H   UNL     1       1.954  -6.559  -1.077  0.00  0.00    +0.154 HD
ENDROOT
BRANCH   1  10
ATOM      3  C   UNL     1      -0.019   1.526   0.010  0.00  0.00    +0.008 C 
ATOM      4  C   UNL     1       0.002  -0.004   0.002  0.00  0.00    -0.009 C 
ATOM      5  C   UNL     1       0.742  -0.514   1.242  0.00  0.00    +0.008 C 
ATOM      6  C   UNL     1       0.556  -2.027   1.373  0.00  0.00    +0.037 C 
ATOM      7  C   UNL     1       0.941  -2.684   0.053  0.00  0.00    -0.018 A 
ATOM      8  C   UNL     1       1.008  -1.965  -1.089  0.00  0.00    -0.004 A 
ATOM      9  S   UNL     1       1.485  -3.134  -2.331  0.00  0.00    -0.077 S 
ATOM     10  C   UNL     1       1.593  -4.557  -1.349  0.00  0.00    +0.089 A 
ATOM     11  C   UNL     1       1.258  -4.095  -0.085  0.00  0.00    +0.084 A 
ATOM     12  C   UNL     1       0.736  -0.502  -1.252  0.00  0.00    +0.046 C 
BRANCH  11  13
ATOM     13  C   UNL     1       1.226  -4.977   1.043  0.00  0.00    +0.102 C 
ATOM     14  N   UNL     1       1.201  -5.677   1.938  0.00  0.00    -0.191 NA
ENDBRANCH  11  13
ENDBRANCH   1  10
BRANCH   1  15
ATOM     15  C   UNL     1       2.229  -6.108  -3.022  0.00  0.00    +0.141 C 
ATOM     16  S   UNL     1       2.190  -4.850  -4.183  0.00  0.00    -0.018 S 
BRANCH  15  17
ATOM     17  N   UNL     1       2.558  -7.360  -3.397  0.00  0.00    -0.264 N 
ATOM     18  C   UNL     1       2.856  -7.622  -4.685  0.00  0.00    +0.242 C 
ATOM     19  O   UNL     1       2.828  -6.728  -5.510  0.00  0.00    -0.270 OA
ATOM     20  H   UNL     1       2.580  -8.073  -2.739  0.00  0.00    +0.157 HD
BRANCH  18  21
ATOM     21  C   UNL     1       3.212  -8.982  -5.091  0.00  0.00    +0.068 C 
ATOM     22  C   UNL     1       3.510  -9.244  -6.380  0.00  0.00    +0.013 C 
BRANCH  22  23
ATOM     23  C   UNL     1       3.869 -10.612  -6.789  0.00  0.00    -0.025 A 
ATOM     24  C   UNL     1       3.908 -11.641  -5.843  0.00  0.00    +0.008 A 
ATOM     25  C   UNL     1       4.240 -12.920  -6.235  0.00  0.00    +0.001 A 
ATOM     26  C   UNL     1       4.546 -13.185  -7.559  0.00  0.00    +0.000 A 
ATOM     27  C   UNL     1       4.514 -12.171  -8.500  0.00  0.00    +0.001 A 
ATOM     28  C   UNL     1       4.179 -10.887  -8.125  0.00  0.00    +0.008 A 
ENDBRANCH  22  23
ENDBRANCH  18  21
ENDBRANCH  15  17
ENDBRANCH   1  15
TORSDOF 6
