REMARK  Name = ZINC24108341
REMARK  11 active torsions:
REMARK  status: ('A' for Active; 'I' for Inactive)
REMARK    1  A    between atoms: C_1  and  C_2
REMARK    2  A    between atoms: C_5  and  C_8
REMARK    3  A    between atoms: C_8  and  C_10
REMARK    4  A    between atoms: C_8  and  N_15
REMARK    5  A    between atoms: C_16  and  C_18
REMARK    6  A    between atoms: C_18  and  N_19
REMARK    7  A    between atoms: C_22  and  C_26
REMARK    8  A    between atoms: C_22  and  C_27
REMARK    9  A    between atoms: C_30  and  C_33
REMARK   10  A    between atoms: C_33  and  C_34
REMARK   11  A    between atoms: C_33  and  C_35
REMARK                            x       y       z     vdW  Elec       q    Type
REMARK                         _______ _______ _______ _____ _____    ______ ____
ROOT
ATOM      1  C   UNL     1       3.261   6.334  -2.720  0.00  0.00    +0.213 C 
ENDROOT
BRANCH   1   2
ATOM      2  N   UNL     1       3.109   5.238  -1.759  0.00  0.00    -0.215 N 
ATOM      3  C   UNL     1       2.273   5.269  -0.702  0.00  0.00    +0.251 C 
ATOM      4  O   UNL     1       1.534   6.173  -0.379  0.00  0.00    -0.272 OA
ATOM      5  C   UNL     1       2.451   3.937  -0.001  0.00  0.00    +0.135 C 
ATOM      6  N   UNL     1       3.460   3.245  -0.822  0.00  0.00    -0.281 N 
ATOM      7  C   UNL     1       3.782   4.084  -1.823  0.00  0.00    +0.310 C 
ATOM      8  O   UNL     1       4.595   3.823  -2.688  0.00  0.00    -0.252 OA
ATOM      9  C   UNL     1       2.962   4.143   1.426  0.00  0.00    +0.047 C 
ATOM     10  H   UNL     1       3.794   2.234  -0.547  0.00  0.00    +0.152 HD
BRANCH   5  11
ATOM     11  C   UNL     1       1.156   3.165   0.008  0.00  0.00    -0.015 A 
ATOM     12  C   UNL     1       1.175   1.783   0.000  0.00  0.00    +0.006 A 
ATOM     13  C   UNL     1      -0.013   1.076   0.008  0.00  0.00    +0.004 A 
ATOM     14  C   UNL     1      -1.219   1.751   0.017  0.00  0.00    -0.045 A 
ATOM     15  C   UNL     1      -1.238   3.133   0.030  0.00  0.00    +0.004 A 
ATOM     16  C   UNL     1      -0.050   3.840   0.022  0.00  0.00    +0.006 A 
BRANCH  14  17
ATOM     17  C   UNL     1      -2.514   0.980   0.019  0.00  0.00    +0.013 C 
ATOM     18  C   UNL     1      -3.315   1.331   1.274  0.00  0.00    +0.012 C 
ATOM     19  C   UNL     1      -3.327   1.345  -1.224  0.00  0.00    +0.012 C 
ENDBRANCH  14  17
ENDBRANCH   5  11
ENDBRANCH   1   2
BRANCH   1  21
ATOM     20  N   UNL     1       4.663   8.355  -2.978  0.00  0.00    -0.303 N 
ATOM     21  C   UNL     1       4.346   7.268  -2.249  0.00  0.00    +0.232 C 
ATOM     22  O   UNL     1       4.935   7.040  -1.213  0.00  0.00    -0.274 OA
ATOM     23  H   UNL     1       4.130   8.562  -3.918  0.00  0.00    +0.150 HD
BRANCH  20  24
ATOM     24  C   UNL     1       5.718   9.263  -2.521  0.00  0.00    +0.140 C 
BRANCH  24  29
ATOM     25  C   UNL     1       7.955  12.060  -7.056  0.00  0.00    +0.044 C 
ATOM     26  C   UNL     1       7.372  11.330  -5.873  0.00  0.00    -0.050 A 
ATOM     27  C   UNL     1       8.200  10.882  -4.861  0.00  0.00    +0.004 A 
ATOM     28  C   UNL     1       7.664  10.213  -3.776  0.00  0.00    +0.006 A 
ATOM     29  C   UNL     1       6.302   9.992  -3.703  0.00  0.00    -0.022 A 
ATOM     30  C   UNL     1       5.475  10.436  -4.718  0.00  0.00    +0.006 A 
ATOM     31  C   UNL     1       6.009  11.109  -5.801  0.00  0.00    +0.004 A 
ENDBRANCH  24  29
BRANCH  24  32
ATOM     32  C   UNL     1       5.137  10.261  -1.552  0.00  0.00    +0.014 A 
ATOM     33  C   UNL     1       5.669  10.744  -0.403  0.00  0.00    +0.013 A 
ATOM     34  C   UNL     1       4.949  11.666   0.333  0.00  0.00    +0.008 A 
ATOM     35  C   UNL     1       3.728  12.052  -0.111  0.00  0.00    +0.045 A 
ATOM     36  S   UNL     1       3.567  11.107  -1.616  0.00  0.00    -0.099 S 
ENDBRANCH  24  32
ENDBRANCH  20  24
ENDBRANCH   1  21
TORSDOF 7
