REMARK  Name = ZINC29710672
REMARK  7 active torsions:
REMARK  status: ('A' for Active; 'I' for Inactive)
REMARK    1  A    between atoms: C_1  and  O_2
REMARK    2  A    between atoms: O_2  and  C_3
REMARK    3  A    between atoms: C_3  and  C_5
REMARK    4  A    between atoms: N_11  and  C_12
REMARK    5  A    between atoms: C_12  and  C_13
REMARK    6  A    between atoms: C_16  and  C_18
REMARK    7  A    between atoms: C_18  and  C_19
REMARK                            x       y       z     vdW  Elec       q    Type
REMARK                         _______ _______ _______ _____ _____    ______ ____
ROOT
ATOM      1  C   UNL     1       0.896   0.124  -3.235  0.00  0.00    +0.032 A 
ATOM      2  C   UNL     1       1.855  -0.755  -2.848  0.00  0.00    +0.068 A 
ATOM      3  S   UNL     1       3.267  -0.114  -3.737  0.00  0.00    -0.080 S 
ATOM      4  C   UNL     1       2.462   1.222  -4.502  0.00  0.00    +0.083 A 
ATOM      5  N   UNL     1       1.233   1.096  -4.056  0.00  0.00    -0.251 NA
ENDROOT
BRANCH   1   6
ATOM      6  C   UNL     1      -0.518  -0.006  -2.732  0.00  0.00    -0.021 C 
BRANCH   6  12
ATOM      7  C   UNL     1      -2.126   1.062  -1.271  0.00  0.00    +0.043 C 
ATOM      8  C   UNL     1      -2.279   2.074  -0.133  0.00  0.00    -0.004 C 
ATOM      9  C   UNL     1      -1.564   1.544   1.113  0.00  0.00    -0.003 C 
ATOM     10  C   UNL     1      -0.092   1.290   0.777  0.00  0.00    -0.019 C 
ATOM     11  C   UNL     1      -0.003   0.300  -0.387  0.00  0.00    -0.077 C 
ATOM     12  N   UNL     1      -0.701   0.853  -1.554  0.00  0.00    +0.392 N 
ATOM     13  H   UNL     1      -0.256   1.834  -1.778  0.00  0.00    -0.080 HD
BRANCH   7  14
ATOM     14  C   UNL     1      -2.812   1.588  -2.506  0.00  0.00    +0.293 C 
ATOM     15  O   UNL     1      -2.193   2.251  -3.304  0.00  0.00    -0.253 OA
BRANCH  14  17
ATOM     16  C   UNL     1      -4.705   1.859  -3.928  0.00  0.00    +0.280 C 
ATOM     17  O   UNL     1      -4.110   1.320  -2.718  0.00  0.00    -0.469 OA
ENDBRANCH  14  17
ENDBRANCH   7  14
ENDBRANCH   6  12
ENDBRANCH   1   6
BRANCH   4  18
ATOM     18  C   UNL     1       3.028   2.258  -5.438  0.00  0.00    +0.098 C 
BRANCH  18  19
ATOM     19  C   UNL     1       3.535   3.432  -4.640  0.00  0.00    -0.041 A 
ATOM     20  C   UNL     1       2.693   4.490  -4.357  0.00  0.00    +0.005 A 
ATOM     21  C   UNL     1       3.155   5.565  -3.620  0.00  0.00    +0.020 A 
ATOM     22  C   UNL     1       4.465   5.585  -3.176  0.00  0.00    +0.041 A 
ATOM     23  C   UNL     1       5.310   4.528  -3.464  0.00  0.00    +0.020 A 
ATOM     24  C   UNL     1       4.844   3.452  -4.196  0.00  0.00    +0.005 A 
ATOM     25 CL   UNL     1       5.049   6.937  -2.256  0.00  0.00    -0.084 Cl
ENDBRANCH  18  19
ENDBRANCH   4  18
TORSDOF 6
