REMARK  Name = ZINC35671594
REMARK  17 active torsions:
REMARK  status: ('A' for Active; 'I' for Inactive)
REMARK    1  A    between atoms: C_1  and  C_2
REMARK    2  A    between atoms: C_2  and  N_3
REMARK    3  A    between atoms: N_3  and  C_4
REMARK    4  A    between atoms: N_3  and  C_6
REMARK    5  A    between atoms: C_4  and  C_5
REMARK    6  A    between atoms: C_6  and  C_8
REMARK    7  A    between atoms: C_6  and  C_26
REMARK    8  A    between atoms: C_8  and  N_9
REMARK    9  A    between atoms: N_9  and  C_10
REMARK   10  A    between atoms: C_11  and  C_24
REMARK   11  A    between atoms: C_13  and  C_15
REMARK   12  A    between atoms: C_15  and  O_16
REMARK   13  A    between atoms: O_16  and  C_17
REMARK   14  A    between atoms: C_29  and  C_32
REMARK   15  A    between atoms: C_32  and  C_33
REMARK   16  A    between atoms: C_32  and  C_34
REMARK   17  A    between atoms: C_32  and  C_35
REMARK                            x       y       z     vdW  Elec       q    Type
REMARK                         _______ _______ _______ _____ _____    ______ ____
ROOT
ATOM      1  C   UNL     1       1.385  -0.071  -2.145  0.00  0.00    +0.094 C 
ENDROOT
BRANCH   1   2
ATOM      2  N   UNL     1       1.457   0.929  -1.078  0.00  0.00    -0.314 N 
ATOM      3  H   UNL     1       0.817   0.908  -0.349  0.00  0.00    +0.149 HD
BRANCH   2   4
ATOM      4  C   UNL     1       2.436   1.901  -1.108  0.00  0.00    +0.225 A 
ATOM      5  C   UNL     1       2.695   2.846  -0.131  0.00  0.00    +0.201 A 
ATOM      6  N   UNL     1       3.742   3.596  -0.577  0.00  0.00    -0.198 NA
ATOM      7  C   UNL     1       4.104   3.152  -1.741  0.00  0.00    +0.237 A 
ATOM      8  O   UNL     1       3.330   2.112  -2.091  0.00  0.00    -0.421 OA
BRANCH   5   9
ATOM      9  C   UNL     1       1.997   3.006   1.110  0.00  0.00    +0.124 C 
ATOM     10  N   UNL     1       1.444   3.132   2.094  0.00  0.00    -0.189 NA
ENDBRANCH   5   9
BRANCH   7  11
ATOM     11  C   UNL     1       5.229   3.713  -2.572  0.00  0.00    +0.324 C 
BRANCH  11  12
ATOM     12  O   UNL     1       6.447   3.041  -2.242  0.00  0.00    -0.483 OA
BRANCH  12  13
ATOM     13  C   UNL     1       7.566   3.431  -2.906  0.00  0.00    +0.121 A 
ATOM     14  C   UNL     1       7.496   4.443  -3.852  0.00  0.00    +0.047 A 
ATOM     15  C   UNL     1       8.635   4.838  -4.526  0.00  0.00    +0.023 A 
ATOM     16  C   UNL     1       9.846   4.224  -4.259  0.00  0.00    +0.041 A 
ATOM     17  C   UNL     1       9.918   3.214  -3.317  0.00  0.00    +0.023 A 
ATOM     18  C   UNL     1       8.782   2.821  -2.635  0.00  0.00    +0.047 A 
ATOM     19 CL   UNL     1      11.276   4.721  -5.108  0.00  0.00    -0.084 Cl
ENDBRANCH  12  13
ENDBRANCH  11  12
ENDBRANCH   7  11
ENDBRANCH   2   4
ENDBRANCH   1   2
BRANCH   1  20
ATOM     20  C   UNL     1       0.146  -0.947  -1.941  0.00  0.00    -0.020 C 
BRANCH  20  21
ATOM     21  C   UNL     1       0.156  -2.072  -2.942  0.00  0.00    -0.059 A 
ATOM     22  C   UNL     1       1.353  -2.511  -3.478  0.00  0.00    +0.002 A 
ATOM     23  C   UNL     1       1.362  -3.543  -4.397  0.00  0.00    +0.004 A 
ATOM     24  C   UNL     1       0.174  -4.138  -4.779  0.00  0.00    -0.042 A 
ATOM     25  C   UNL     1      -1.022  -3.701  -4.243  0.00  0.00    +0.004 A 
ATOM     26  C   UNL     1      -1.031  -2.671  -3.321  0.00  0.00    +0.002 A 
BRANCH  24  27
ATOM     27  C   UNL     1       0.184  -5.264  -5.782  0.00  0.00    -0.013 C 
ATOM     28  C   UNL     1       1.020  -6.424  -5.238  0.00  0.00    +0.015 C 
ATOM     29  C   UNL     1      -1.249  -5.739  -6.028  0.00  0.00    +0.015 C 
ATOM     30  C   UNL     1       0.791  -4.770  -7.097  0.00  0.00    +0.015 C 
ENDBRANCH  24  27
ENDBRANCH  20  21
BRANCH  20  31
ATOM     31  N   UNL     1       0.158  -1.501  -0.581  0.00  0.00    +0.385 N 
ATOM     32  H   UNL     1       0.232  -0.749   0.088  0.00  0.00    -0.081 HD
BRANCH  31  34
ATOM     33  C   UNL     1      -2.271  -1.276  -0.360  0.00  0.00    -0.017 C 
ATOM     34  C   UNL     1      -1.087  -2.245  -0.345  0.00  0.00    -0.081 C 
ENDBRANCH  31  34
BRANCH  31  35
ATOM     35  C   UNL     1       1.305  -2.406  -0.430  0.00  0.00    -0.081 C 
ATOM     36  C   UNL     1       2.525  -1.609   0.038  0.00  0.00    -0.017 C 
ENDBRANCH  31  35
ENDBRANCH  20  31
ENDBRANCH   1  20
TORSDOF 12
