REMARK  Name = ZINC20731324
REMARK  11 active torsions:
REMARK  status: ('A' for Active; 'I' for Inactive)
REMARK    1  A    between atoms: C_1  and  O_2
REMARK    2  A    between atoms: O_2  and  C_3
REMARK    3  A    between atoms: C_6  and  C_10
REMARK    4  A    between atoms: N_23  and  C_24
REMARK    5  A    between atoms: C_24  and  C_26
REMARK    6  A    between atoms: C_24  and  C_30
REMARK    7  A    between atoms: C_26  and  C_27
REMARK    8  A    between atoms: C_27  and  S_28
REMARK    9  A    between atoms: S_28  and  C_29
REMARK   10  A    between atoms: C_30  and  O_32
REMARK   11  A    between atoms: O_32  and  C_33
REMARK                            x       y       z     vdW  Elec       q    Type
REMARK                         _______ _______ _______ _____ _____    ______ ____
ROOT
ATOM      1  C   UNL     1       2.505  -2.498  -4.384  0.00  0.00    +0.159 C 
ATOM      2  C   UNL     1       1.468  -2.937  -5.390  0.00  0.00    +0.062 A 
ATOM      3  C   UNL     1       1.287  -2.341  -6.588  0.00  0.00    +0.040 A 
ATOM      4  N   UNL     1       0.271  -3.002  -7.210  0.00  0.00    -0.349 N 
ATOM      5  H   UNL     1      -0.093  -2.805  -8.088  0.00  0.00    +0.166 HD
ATOM      6  C   UNL     1      -0.136  -3.983  -6.373  0.00  0.00    +0.171 A 
ATOM      7  N   UNL     1       0.588  -3.935  -5.285  0.00  0.00    -0.348 N 
ATOM      8  C   UNL     1       2.089  -1.173  -7.098  0.00  0.00    +0.074 C 
ATOM      9  C   UNL     1       2.799  -0.505  -5.914  0.00  0.00    +0.116 C 
ATOM     10  N   UNL     1       3.401  -1.545  -5.064  0.00  0.00    -0.273 N 
ATOM     11  C   UNL     1       4.738  -1.627  -4.912  0.00  0.00    +0.304 C 
ATOM     12  O   UNL     1       5.224  -2.548  -4.286  0.00  0.00    -0.253 OA
ATOM     13  N   UNL     1       5.536  -0.686  -5.455  0.00  0.00    -0.286 N 
ATOM     14  H   UNL     1       5.146   0.089  -5.890  0.00  0.00    +0.151 HD
ATOM     15  H   UNL     1       0.501  -4.530  -4.524  0.00  0.00    +0.167 HD
ENDROOT
BRANCH   1  19
ATOM     16  C   UNL     1       0.599  -0.588  -1.067  0.00  0.00    +0.123 A 
ATOM     17  C   UNL     1      -0.103  -0.804  -2.245  0.00  0.00    +0.046 A 
ATOM     18  C   UNL     1       0.515  -1.421  -3.315  0.00  0.00    +0.012 A 
ATOM     19  C   UNL     1       1.833  -1.824  -3.215  0.00  0.00    +0.014 A 
ATOM     20  C   UNL     1       2.538  -1.611  -2.042  0.00  0.00    +0.132 A 
ATOM     21  C   UNL     1       1.923  -0.988  -0.969  0.00  0.00    +0.084 A 
ATOM     22  F   UNL     1       3.826  -2.006  -1.946  0.00  0.00    -0.205 F 
BRANCH  16  24
ATOM     23  C   UNL     1      -1.374   0.403  -0.186  0.00  0.00    +0.277 C 
ATOM     24  O   UNL     1      -0.008   0.018  -0.014  0.00  0.00    -0.495 OA
ENDBRANCH  16  24
ENDBRANCH   1  19
BRANCH  13  25
ATOM     25  C   UNL     1       6.992  -0.833  -5.387  0.00  0.00    +0.184 C 
BRANCH  25  26
ATOM     26  C   UNL     1       7.491  -0.292  -4.072  0.00  0.00    +0.327 C 
ATOM     27  O   UNL     1       6.711   0.169  -3.273  0.00  0.00    -0.249 OA
BRANCH  26  28
ATOM     28  O   UNL     1       8.803  -0.322  -3.788  0.00  0.00    -0.467 OA
ATOM     29  C   UNL     1       9.206   0.208  -2.524  0.00  0.00    +0.280 C 
ENDBRANCH  26  28
ENDBRANCH  25  26
BRANCH  25  30
ATOM     30  C   UNL     1       7.637  -0.055  -6.536  0.00  0.00    +0.044 C 
BRANCH  30  31
ATOM     31  C   UNL     1       7.228  -0.684  -7.870  0.00  0.00    +0.071 C 
BRANCH  31  32
ATOM     32  S   UNL     1       7.993   0.238  -9.232  0.00  0.00    -0.164 S 
ATOM     33  C   UNL     1       7.417  -0.622 -10.722  0.00  0.00    +0.084 C 
ENDBRANCH  31  32
ENDBRANCH  30  31
ENDBRANCH  25  30
ENDBRANCH  13  25
TORSDOF 8
