REMARK  Name = ZINC39710624
REMARK  11 active torsions:
REMARK  status: ('A' for Active; 'I' for Inactive)
REMARK    1  A    between atoms: C_1  and  C_2
REMARK    2  A    between atoms: C_7  and  C_14
REMARK    3  A    between atoms: C_14  and  C_16
REMARK    4  A    between atoms: C_14  and  N_27
REMARK    5  A    between atoms: N_21  and  C_22
REMARK    6  A    between atoms: N_27  and  C_28
REMARK    7  A    between atoms: N_27  and  C_37
REMARK    8  A    between atoms: C_28  and  C_29
REMARK    9  A    between atoms: C_32  and  O_35
REMARK   10  A    between atoms: O_35  and  C_36
REMARK   11  A    between atoms: C_37  and  C_38
REMARK                            x       y       z     vdW  Elec       q    Type
REMARK                         _______ _______ _______ _____ _____    ______ ____
ROOT
ATOM      1  C   UNL     1       1.357  -5.399   1.374  0.00  0.00    -0.009 C 
ENDROOT
BRANCH   1   8
ATOM      2  C   UNL     1      -0.558   1.849   1.366  0.00  0.00    +0.044 C 
ATOM      3  C   UNL     1      -0.321   0.399   1.029  0.00  0.00    -0.049 A 
ATOM      4  C   UNL     1       0.149   0.076  -0.244  0.00  0.00    +0.004 A 
ATOM      5  C   UNL     1       0.382  -1.212  -0.606  0.00  0.00    +0.010 A 
ATOM      6  C   UNL     1       0.132  -2.275   0.369  0.00  0.00    -0.007 A 
ATOM      7  C   UNL     1       0.352  -3.582   0.050  0.00  0.00    -0.006 C 
ATOM      8  C   UNL     1       0.067  -4.616   1.122  0.00  0.00    +0.088 C 
ATOM      9  C   UNL     1      -0.439  -4.114   2.455  0.00  0.00    +0.223 C 
ATOM     10  O   UNL     1      -0.684  -4.900   3.351  0.00  0.00    -0.275 OA
ATOM     11  N   UNL     1      -0.613  -2.817   2.645  0.00  0.00    -0.285 N 
ATOM     12  C   UNL     1      -0.363  -1.904   1.706  0.00  0.00    +0.041 A 
ATOM     13  C   UNL     1      -0.568  -0.539   1.980  0.00  0.00    +0.027 A 
ATOM     14  H   UNL     1      -0.938  -2.515   3.507  0.00  0.00    +0.155 HD
ENDBRANCH   1   8
BRANCH   1  15
ATOM     15  C   UNL     1       1.696  -6.234   0.138  0.00  0.00    +0.205 C 
ATOM     16  N   UNL     1       3.055  -6.782   0.246  0.00  0.00    -0.152 NA
ATOM     17  N   UNL     1       3.737  -6.346  -0.684  0.00  0.00    -0.070 NA
ATOM     18  N   UNL     1       3.023  -5.492  -1.525  0.00  0.00    -0.179 N 
ATOM     19  N   UNL     1       1.734  -5.379  -1.068  0.00  0.00    -0.185 NA
ATOM     20  H   UNL     1       3.381  -5.049  -2.310  0.00  0.00    +0.191 HD
BRANCH  19  21
ATOM     21  C   UNL     1       0.773  -5.847  -2.075  0.00  0.00    +0.080 C 
ATOM     22  C   UNL     1       1.149  -7.268  -2.545  0.00  0.00    +0.021 C 
ATOM     23  C   UNL     1       0.816  -7.268  -4.058  0.00  0.00    +0.002 C 
ATOM     24  C   UNL     1       1.239  -5.845  -4.501  0.00  0.00    +0.002 C 
ATOM     25  C   UNL     1       0.830  -4.943  -3.318  0.00  0.00    +0.021 C 
ENDBRANCH  19  21
ENDBRANCH   1  15
BRANCH   1  26
ATOM     26  N   UNL     1       1.172  -6.288   2.529  0.00  0.00    +0.392 N 
ATOM     27  H   UNL     1       0.883  -5.744   3.329  0.00  0.00    -0.080 HD
BRANCH  26  28
ATOM     28  C   UNL     1       0.142  -7.288   2.218  0.00  0.00    -0.042 C 
BRANCH  28  29
ATOM     29  C   UNL     1      -0.156  -8.102   3.451  0.00  0.00    -0.064 A 
ATOM     30  C   UNL     1       0.565  -9.254   3.708  0.00  0.00    +0.005 A 
ATOM     31  C   UNL     1       0.293 -10.002   4.837  0.00  0.00    +0.046 A 
ATOM     32  C   UNL     1      -0.703  -9.597   5.713  0.00  0.00    +0.120 A 
ATOM     33  C   UNL     1      -1.424  -8.441   5.453  0.00  0.00    +0.046 A 
ATOM     34  C   UNL     1      -1.145  -7.693   4.326  0.00  0.00    +0.005 A 
BRANCH  32  35
ATOM     35  O   UNL     1      -0.973 -10.332   6.824  0.00  0.00    -0.495 OA
ATOM     36  C   UNL     1      -2.011  -9.855   7.682  0.00  0.00    +0.277 C 
ENDBRANCH  32  35
ENDBRANCH  28  29
ENDBRANCH  26  28
BRANCH  26  37
ATOM     37  C   UNL     1       2.439  -6.967   2.832  0.00  0.00    -0.002 C 
BRANCH  37  38
ATOM     38  C   UNL     1       3.492  -5.942   3.165  0.00  0.00    +0.089 A 
ATOM     39  C   UNL     1       3.821  -5.525   4.400  0.00  0.00    +0.042 A 
ATOM     40  C   UNL     1       4.848  -4.565   4.249  0.00  0.00    +0.041 A 
ATOM     41  C   UNL     1       5.085  -4.453   2.930  0.00  0.00    +0.195 A 
ATOM     42  O   UNL     1       4.265  -5.294   2.278  0.00  0.00    -0.470 OA
ENDBRANCH  37  38
ENDBRANCH  26  37
ENDBRANCH   1  26
TORSDOF 9
