REMARK  Name = ZINC61324521
REMARK  4 active torsions:
REMARK  status: ('A' for Active; 'I' for Inactive)
REMARK    1  A    between atoms: C_3  and  O_18
REMARK    2  A    between atoms: C_6  and  N_7
REMARK    3  A    between atoms: N_7  and  C_8
REMARK    4  A    between atoms: O_18  and  C_19
REMARK                            x       y       z     vdW  Elec       q    Type
REMARK                         _______ _______ _______ _____ _____    ______ ____
ROOT
ATOM      1  C   UNL     1      -0.017   1.384   0.010  0.00  0.00    +0.026 A 
ATOM      2  C   UNL     1       1.170   2.091   0.002  0.00  0.00    +0.048 A 
ATOM      3  C   UNL     1       2.380   1.414  -0.013  0.00  0.00    +0.130 A 
ATOM      4  C   UNL     1       2.400   0.027  -0.021  0.00  0.00    +0.048 A 
ATOM      5  C   UNL     1       1.214  -0.681  -0.013  0.00  0.00    +0.026 A 
ATOM      6  C   UNL     1       0.002  -0.004   0.002  0.00  0.00    +0.028 A 
ENDROOT
BRANCH   6   7
ATOM      7  N   UNL     1      -1.200  -0.721   0.010  0.00  0.00    -0.337 N 
ATOM      8  H   UNL     1      -2.047  -0.247   0.021  0.00  0.00    +0.147 HD
BRANCH   7   9
ATOM      9  C   UNL     1      -1.180  -2.185   0.002  0.00  0.00    +0.101 C 
ATOM     10  C   UNL     1      -2.487  -2.713  -0.591  0.00  0.00    +0.027 C 
ATOM     11  C   UNL     1      -3.656  -2.379   0.340  0.00  0.00    +0.007 C 
ATOM     12  C   UNL     1      -3.541  -3.243   1.605  0.00  0.00    +0.043 C 
ATOM     13  C   UNL     1      -2.134  -3.166   2.100  0.00  0.00    -0.005 A 
ATOM     14  C   UNL     1      -1.040  -2.703   1.431  0.00  0.00    -0.017 A 
ATOM     15  C   UNL     1       0.175  -2.733   2.116  0.00  0.00    +0.013 A 
ATOM     16  C   UNL     1       0.227  -3.206   3.382  0.00  0.00    +0.046 A 
ATOM     17  S   UNL     1      -1.488  -3.647   3.679  0.00  0.00    -0.101 S 
ENDBRANCH   7   9
ENDBRANCH   6   7
BRANCH   3  18
ATOM     18  O   UNL     1       3.549   2.110  -0.021  0.00  0.00    -0.406 OA
BRANCH  18  19
ATOM     19  C   UNL     1       4.758   1.349  -0.036  0.00  0.00    +0.575 C 
ATOM     20  F   UNL     1       4.790   0.548  -1.183  0.00  0.00    -0.133 F 
ATOM     21  F   UNL     1       5.855   2.216  -0.043  0.00  0.00    -0.133 F 
ATOM     22  F   UNL     1       4.812   0.536   1.101  0.00  0.00    -0.133 F 
ENDBRANCH  18  19
ENDBRANCH   3  18
TORSDOF 4
