REMARK  Name = ZINC16074092
REMARK  7 active torsions:
REMARK  status: ('A' for Active; 'I' for Inactive)
REMARK    1  A    between atoms: C_1  and  C_2
REMARK    2  A    between atoms: C_2  and  N_3
REMARK    3  A    between atoms: N_3  and  C_4
REMARK    4  A    between atoms: C_12  and  C_14
REMARK    5  A    between atoms: C_14  and  C_16
REMARK    6  A    between atoms: C_14  and  S_17
REMARK    7  A    between atoms: S_17  and  C_18
REMARK                            x       y       z     vdW  Elec       q    Type
REMARK                         _______ _______ _______ _____ _____    ______ ____
ROOT
ATOM      1  S   UNL     1      -1.543  -0.625  -0.708  0.00  0.00    -0.075 S 
ENDROOT
BRANCH   1   2
ATOM      2  C   UNL     1      -1.195  -2.352  -0.736  0.00  0.00    +0.171 A 
ATOM      3  N   UNL     1      -2.135  -3.220  -1.211  0.00  0.00    -0.301 N 
ATOM      4  H   UNL     1      -2.984  -2.875  -1.528  0.00  0.00    +0.171 HD
ATOM      5  C   UNL     1      -1.903  -4.545  -1.253  0.00  0.00    +0.261 A 
ATOM      6  O   UNL     1      -2.751  -5.307  -1.685  0.00  0.00    -0.267 OA
ATOM      7  C   UNL     1      -0.650  -5.047  -0.779  0.00  0.00    +0.075 A 
ATOM      8  C   UNL     1      -0.191  -6.436  -0.727  0.00  0.00    -0.023 A 
ATOM      9  C   UNL     1       1.044  -6.655  -0.232  0.00  0.00    -0.004 A 
ATOM     10  S   UNL     1       1.662  -5.048   0.190  0.00  0.00    -0.073 S 
ATOM     11  C   UNL     1       0.255  -4.084  -0.303  0.00  0.00    +0.117 A 
ATOM     12  N   UNL     1      -0.033  -2.788  -0.293  0.00  0.00    -0.216 NA
ATOM     13  C   UNL     1       1.739  -7.973  -0.074  0.00  0.00    +0.043 C 
ATOM     14  C   UNL     1       0.696  -9.091  -0.216  0.00  0.00    +0.005 C 
ATOM     15  C   UNL     1      -0.157  -8.811  -1.457  0.00  0.00    +0.005 C 
ATOM     16  C   UNL     1      -1.055  -7.599  -1.207  0.00  0.00    +0.037 C 
ENDBRANCH   1   2
BRANCH   1  17
ATOM     17  C   UNL     1       0.002  -0.004   0.002  0.00  0.00    +0.137 C 
ATOM     18  C   UNL     1       0.148  -0.520   1.435  0.00  0.00    +0.029 C 
BRANCH  17  20
ATOM     19  N   UNL     1       1.139   2.192   0.003  0.00  0.00    -0.296 N 
ATOM     20  C   UNL     1      -0.018   1.503   0.010  0.00  0.00    +0.229 C 
ATOM     21  O   UNL     1      -1.077   2.095   0.018  0.00  0.00    -0.274 OA
BRANCH  19  22
ATOM     22  C   UNL     1       1.120   3.657   0.011  0.00  0.00    +0.098 C 
ATOM     23  C   UNL     1       0.365   4.164  -1.229  0.00  0.00    +0.046 C 
ATOM     24  C   UNL     1       0.087   5.683  -1.040  0.00  0.00    +0.168 C 
ATOM     25  S   UNL     1      -0.376   5.720   0.743  0.00  0.00    -0.029 S 
ATOM     26  O   UNL     1      -1.787   5.591   0.857  0.00  0.00    -0.174 OA
ATOM     27  O   UNL     1       0.279   6.815   1.368  0.00  0.00    -0.174 OA
ATOM     28  C   UNL     1       0.415   4.155   1.296  0.00  0.00    +0.188 C 
ENDBRANCH  19  22
BRANCH  19  30
ATOM     29  C   UNL     1       2.849   1.236  -1.461  0.00  0.00    +0.024 C 
ATOM     30  C   UNL     1       2.418   1.477  -0.013  0.00  0.00    +0.105 C 
ENDBRANCH  19  30
ENDBRANCH  17  20
ENDBRANCH   1  17
TORSDOF 5
