REMARK  Name = ZINC02223666
REMARK  11 active torsions:
REMARK  status: ('A' for Active; 'I' for Inactive)
REMARK    1  A    between atoms: C_1  and  C_2
REMARK    2  A    between atoms: C_4  and  C_31
REMARK    3  A    between atoms: C_6  and  N_8
REMARK    4  A    between atoms: C_9  and  N_30
REMARK    5  A    between atoms: C_10  and  C_21
REMARK    6  A    between atoms: C_21  and  O_23
REMARK    7  A    between atoms: O_23  and  C_24
REMARK    8  A    between atoms: C_24  and  C_26
REMARK    9  A    between atoms: C_24  and  C_27
REMARK   10  A    between atoms: C_27  and  O_28
REMARK   11  A    between atoms: O_28  and  C_29
REMARK                            x       y       z     vdW  Elec       q    Type
REMARK                         _______ _______ _______ _____ _____    ______ ____
ROOT
ATOM      1  N   UNL     1       1.254   1.880   0.000  0.00  0.00    -0.280 N 
ATOM      2  C   UNL     1      -0.017   1.387   0.010  0.00  0.00    +0.119 A 
ATOM      3  C   UNL     1       0.002  -0.004   0.002  0.00  0.00    +0.126 A 
ATOM      4  C   UNL     1       1.419  -0.403  -0.014  0.00  0.00    +0.125 A 
ATOM      5  C   UNL     1       2.176   0.852  -0.014  0.00  0.00    +0.167 A 
ATOM      6  N   UNL     1       3.492   0.814  -0.025  0.00  0.00    -0.225 NA
ATOM      7  C   UNL     1       4.125  -0.366  -0.038  0.00  0.00    +0.092 A 
ATOM      8  C   UNL     1       5.531  -0.415  -0.050  0.00  0.00    +0.030 A 
ATOM      9  C   UNL     1       6.166  -1.619  -0.062  0.00  0.00    +0.002 A 
ATOM     10  C   UNL     1       5.444  -2.811  -0.062  0.00  0.00    +0.002 A 
ATOM     11  C   UNL     1       4.084  -2.803  -0.050  0.00  0.00    +0.030 A 
ATOM     12  C   UNL     1       3.391  -1.578  -0.037  0.00  0.00    +0.090 A 
ATOM     13  N   UNL     1       2.053  -1.559  -0.025  0.00  0.00    -0.241 NA
ENDROOT
BRANCH   1  19
ATOM     14  C   UNL     1       3.244   5.764  -2.266  0.00  0.00    +0.044 C 
ATOM     15  C   UNL     1       2.544   5.151  -1.081  0.00  0.00    -0.048 A 
ATOM     16  C   UNL     1       2.223   5.934   0.013  0.00  0.00    +0.006 A 
ATOM     17  C   UNL     1       1.581   5.375   1.102  0.00  0.00    -0.048 A 
ATOM     18  C   UNL     1       1.258   4.032   1.101  0.00  0.00    +0.029 A 
ATOM     19  C   UNL     1       1.579   3.243   0.004  0.00  0.00    +0.050 A 
ATOM     20  C   UNL     1       2.229   3.806  -1.086  0.00  0.00    +0.029 A 
ATOM     21  C   UNL     1       1.232   6.231   2.292  0.00  0.00    +0.044 C 
ENDBRANCH   1  19
BRANCH   2  22
ATOM     22  N   UNL     1      -1.153   2.154   0.019  0.00  0.00    -0.343 N 
ATOM     23  H   UNL     1      -2.024   1.729   0.022  0.00  0.00    +0.144 HD
ATOM     24  H   UNL     1      -1.085   3.121   0.024  0.00  0.00    +0.144 HD
ENDBRANCH   2  22
BRANCH   3  25
ATOM     25  C   UNL     1      -1.121  -0.867   0.008  0.00  0.00    +0.345 C 
ATOM     26  O   UNL     1      -1.614  -1.232  -1.043  0.00  0.00    -0.245 OA
BRANCH  25  27
ATOM     27  O   UNL     1      -1.645  -1.284   1.180  0.00  0.00    -0.456 OA
BRANCH  27  28
ATOM     28  C   UNL     1      -2.777  -2.154   1.111  0.00  0.00    +0.199 C 
ATOM     29  C   UNL     1      -4.060  -1.320   1.102  0.00  0.00    +0.054 C 
BRANCH  28  30
ATOM     30  C   UNL     1      -2.781  -3.083   2.327  0.00  0.00    +0.203 C 
BRANCH  30  31
ATOM     31  O   UNL     1      -2.968  -2.311   3.515  0.00  0.00    -0.379 OA
ATOM     32  C   UNL     1      -2.988  -3.087   4.715  0.00  0.00    +0.194 C 
ENDBRANCH  30  31
ENDBRANCH  28  30
ENDBRANCH  27  28
ENDBRANCH  25  27
ENDBRANCH   3  25
TORSDOF 7
