REMARK  Name = ZINC40752099
REMARK  6 active torsions:
REMARK  status: ('A' for Active; 'I' for Inactive)
REMARK    1  A    between atoms: C_1  and  C_2
REMARK    2  A    between atoms: C_6  and  N_9
REMARK    3  A    between atoms: C_7  and  C_8
REMARK    4  A    between atoms: C_11  and  N_27
REMARK    5  A    between atoms: C_12  and  O_16
REMARK    6  A    between atoms: O_16  and  C_17
REMARK                            x       y       z     vdW  Elec       q    Type
REMARK                         _______ _______ _______ _____ _____    ______ ____
ROOT
ATOM      1  N   UNL     1       0.049  -2.797   2.390  0.00  0.00    -0.298 N 
ATOM      2  C   UNL     1      -0.037  -4.184   2.383  0.00  0.00    +0.151 A 
ATOM      3  C   UNL     1      -0.131  -4.896   3.582  0.00  0.00    +0.128 A 
ATOM      4  C   UNL     1      -0.215  -6.286   3.517  0.00  0.00    +0.246 A 
ATOM      5  N   UNL     1      -0.204  -6.878   2.327  0.00  0.00    -0.199 NA
ATOM      6  C   UNL     1      -0.114  -6.171   1.219  0.00  0.00    +0.227 A 
ATOM      7  N   UNL     1      -0.037  -4.855   1.234  0.00  0.00    -0.218 NA
ATOM      8  H   UNL     1       0.132  -2.321   3.231  0.00  0.00    +0.154 HD
ENDROOT
BRANCH   1  14
ATOM      9  C   UNL     1       1.186   1.238  -0.177  0.00  0.00    +0.044 C 
ATOM     10  C   UNL     1       0.559  -0.130  -0.087  0.00  0.00    -0.046 A 
ATOM     11  C   UNL     1      -0.049  -0.685  -1.198  0.00  0.00    +0.004 A 
ATOM     12  C   UNL     1      -0.625  -1.940  -1.120  0.00  0.00    +0.002 A 
ATOM     13  C   UNL     1      -0.594  -2.643   0.068  0.00  0.00    +0.023 A 
ATOM     14  C   UNL     1       0.016  -2.088   1.186  0.00  0.00    +0.036 A 
ATOM     15  C   UNL     1       0.598  -0.830   1.103  0.00  0.00    -0.026 A 
ATOM     16  C   UNL     1       1.266  -0.226   2.311  0.00  0.00    +0.046 C 
ENDBRANCH   1  14
BRANCH   3  17
ATOM     17  N   UNL     1      -0.139  -4.230   4.817  0.00  0.00    -0.351 N 
ATOM     18  H   UNL     1      -0.080  -3.262   4.846  0.00  0.00    +0.143 HD
ATOM     19  H   UNL     1      -0.205  -4.737   5.641  0.00  0.00    +0.143 HD
ENDBRANCH   3  17
BRANCH   4  20
ATOM     20  O   UNL     1      -0.308  -7.024   4.652  0.00  0.00    -0.434 OA
BRANCH  20  21
ATOM     21  C   UNL     1      -0.282  -8.377   4.537  0.00  0.00    +0.156 A 
ATOM     22  C   UNL     1      -1.454  -9.098   4.578  0.00  0.00    +0.048 A 
ATOM     23  C   UNL     1      -1.442 -10.485   4.461  0.00  0.00    +0.004 A 
ATOM     24  C   UNL     1      -0.273 -11.165   4.303  0.00  0.00    +0.010 A 
ATOM     25  C   UNL     1       0.943 -10.465   4.256  0.00  0.00    +0.004 A 
ATOM     26  C   UNL     1       0.945  -9.053   4.369  0.00  0.00    +0.113 A 
ATOM     27  N   UNL     1       2.099  -8.383   4.321  0.00  0.00    -0.251 NA
ATOM     28  C   UNL     1       3.243  -9.005   4.166  0.00  0.00    +0.111 A 
ATOM     29  C   UNL     1       3.312 -10.391   4.044  0.00  0.00    +0.020 A 
ATOM     30  C   UNL     1       2.169 -11.137   4.094  0.00  0.00    +0.011 A 
ENDBRANCH  20  21
ENDBRANCH   4  20
TORSDOF 4
