REMARK  Name = ZINC11839491
REMARK  7 active torsions:
REMARK  status: ('A' for Active; 'I' for Inactive)
REMARK    1  A    between atoms: C_1  and  C_2
REMARK    2  A    between atoms: C_7  and  C_8
REMARK    3  A    between atoms: C_7  and  N_59
REMARK    4  A    between atoms: C_11  and  C_16
REMARK    5  A    between atoms: N_18  and  C_19
REMARK    6  A    between atoms: C_19  and  C_21
REMARK    7  A    between atoms: C_19  and  C_22
REMARK                            x       y       z     vdW  Elec       q    Type
REMARK                         _______ _______ _______ _____ _____    ______ ____
ROOT
ATOM      1  C   UNL     1      -0.279   5.875  -2.474  0.00  0.00    +0.003 A 
ATOM      2  C   UNL     1      -1.322   6.695  -2.187  0.00  0.00    +0.020 A 
ATOM      3  C   UNL     1      -2.174   7.124  -3.204  0.00  0.00    +0.020 A 
ATOM      4  C   UNL     1      -1.942   6.690  -4.508  0.00  0.00    +0.101 A 
ATOM      5  C   UNL     1      -0.842   5.829  -4.756  0.00  0.00    +0.261 A 
ATOM      6  O   UNL     1      -0.618   5.434  -5.887  0.00  0.00    -0.267 OA
ATOM      7  N   UNL     1      -0.047   5.448  -3.738  0.00  0.00    -0.327 N 
ATOM      8  H   UNL     1       0.704   4.859  -3.913  0.00  0.00    +0.169 HD
ENDROOT
BRANCH   4   9
ATOM      9  C   UNL     1      -2.821   7.116  -5.607  0.00  0.00    +0.250 C 
ATOM     10  O   UNL     1      -3.824   7.762  -5.368  0.00  0.00    -0.270 OA
ATOM     11  N   UNL     1      -2.517   6.791  -6.879  0.00  0.00    -0.305 N 
ATOM     12  H   UNL     1      -1.760   6.214  -7.064  0.00  0.00    +0.150 HD
BRANCH  11  13
ATOM     13  C   UNL     1      -3.329   7.310  -7.982  0.00  0.00    +0.101 C 
ATOM     14  C   UNL     1      -2.757   8.650  -8.450  0.00  0.00    +0.033 C 
BRANCH  13  15
ATOM     15  C   UNL     1      -3.308   6.329  -9.126  0.00  0.00    -0.020 A 
ATOM     16  C   UNL     1      -2.254   5.482  -9.282  0.00  0.00    +0.006 A 
ATOM     17  C   UNL     1      -2.217   4.568 -10.333  0.00  0.00    +0.001 A 
ATOM     18  C   UNL     1      -3.235   4.495 -11.234  0.00  0.00    +0.008 A 
ATOM     19  C   UNL     1      -4.341   5.353 -11.105  0.00  0.00    -0.018 A 
ATOM     20  C   UNL     1      -4.380   6.279 -10.033  0.00  0.00    -0.013 A 
ATOM     21  C   UNL     1      -5.488   7.133  -9.900  0.00  0.00    +0.009 A 
ATOM     22  C   UNL     1      -6.509   7.056 -10.798  0.00  0.00    +0.001 A 
ATOM     23  C   UNL     1      -6.472   6.142 -11.849  0.00  0.00    +0.001 A 
ATOM     24  C   UNL     1      -5.411   5.306 -12.015  0.00  0.00    +0.008 A 
ENDBRANCH  13  15
ENDBRANCH  11  13
ENDBRANCH   4   9
BRANCH   1  25
ATOM     25  C   UNL     1       0.635   5.425  -1.363  0.00  0.00    -0.025 C 
BRANCH  25  32
ATOM     26  C   UNL     1      -0.308  -0.009   0.137  0.00  0.00    +0.007 C 
ATOM     27  C   UNL     1      -0.277   1.521   0.122  0.00  0.00    -0.018 C 
ATOM     28  C   UNL     1      -0.986   2.034  -1.135  0.00  0.00    -0.016 C 
ATOM     29  C   UNL     1      -0.898   3.562  -1.176  0.00  0.00    -0.078 C 
ATOM     30  C   UNL     1       1.200   3.531   0.035  0.00  0.00    -0.078 C 
ATOM     31  C   UNL     1       1.176   2.003   0.112  0.00  0.00    -0.016 C 
ATOM     32  N   UNL     1       0.525   3.960  -1.208  0.00  0.00    +0.383 N 
ATOM     33  H   UNL     1       0.980   3.505  -2.008  0.00  0.00    -0.081 HD
ENDBRANCH  25  32
ENDBRANCH   1  25
TORSDOF 5
