REMARK  Name = ZINC12548694
REMARK  4 active torsions:
REMARK  status: ('A' for Active; 'I' for Inactive)
REMARK    1  A    between atoms: C_3  and  N_21
REMARK    2  A    between atoms: C_6  and  C_7
REMARK    3  A    between atoms: N_21  and  S_22
REMARK    4  A    between atoms: S_22  and  C_25
REMARK                            x       y       z     vdW  Elec       q    Type
REMARK                         _______ _______ _______ _____ _____    ______ ____
ROOT
ATOM      1  C   UNL     1      -7.055   0.239   0.438  0.00  0.00    +0.015 A 
ATOM      2  C   UNL     1      -8.330  -0.278   0.456  0.00  0.00    +0.025 A 
ATOM      3  C   UNL     1      -8.766  -1.094  -0.584  0.00  0.00    +0.048 A 
ATOM      4  C   UNL     1      -7.917  -1.385  -1.648  0.00  0.00    +0.025 A 
ATOM      5  C   UNL     1      -6.642  -0.867  -1.675  0.00  0.00    +0.015 A 
ATOM      6  C   UNL     1      -6.201  -0.047  -0.631  0.00  0.00    +0.037 A 
ENDROOT
BRANCH   6   7
ATOM      7  C   UNL     1      -4.836   0.511  -0.656  0.00  0.00    +0.247 C 
ATOM      8  O   UNL     1      -4.310   0.784  -1.718  0.00  0.00    -0.270 OA
ATOM      9  N   UNL     1      -4.170   0.716   0.498  0.00  0.00    -0.294 N 
ATOM     10  C   UNL     1      -4.795   0.428   1.804  0.00  0.00    +0.108 C 
ATOM     11  C   UNL     1      -3.876  -0.496   2.608  0.00  0.00    +0.019 C 
ATOM     12  C   UNL     1      -2.476   0.120   2.698  0.00  0.00    +0.007 C 
ATOM     13  C   UNL     1      -1.907   0.282   1.290  0.00  0.00    +0.010 C 
ATOM     14  C   UNL     1      -2.801   1.241   0.495  0.00  0.00    +0.079 C 
ATOM     15  C   UNL     1      -2.270   1.348  -0.934  0.00  0.00    +0.023 C 
ATOM     16  C   UNL     1      -0.845   1.907  -0.896  0.00  0.00    +0.002 C 
ATOM     17  C   UNL     1       0.055   0.981  -0.077  0.00  0.00    +0.000 C 
ATOM     18  C   UNL     1      -0.493   0.853   1.347  0.00  0.00    +0.005 C 
ENDBRANCH   6   7
BRANCH   3  19
ATOM     19  N   UNL     1     -10.053  -1.620  -0.561  0.00  0.00    -0.216 N 
ATOM     20  H   UNL     1     -10.191  -2.557  -0.352  0.00  0.00    +0.174 HD
BRANCH  19  21
ATOM     21  S   UNL     1     -11.352  -0.646  -0.890  0.00  0.00    +0.072 S 
ATOM     22  O   UNL     1     -12.505  -1.475  -0.840  0.00  0.00    -0.150 OA
ATOM     23  O   UNL     1     -11.209   0.510  -0.076  0.00  0.00    -0.150 OA
BRANCH  21  24
ATOM     24  C   UNL     1     -11.189  -0.108  -2.560  0.00  0.00    +0.112 A 
ATOM     25  C   UNL     1     -11.828  -0.801  -3.572  0.00  0.00    +0.032 A 
ATOM     26  C   UNL     1     -11.706  -0.385  -4.886  0.00  0.00    +0.051 A 
ATOM     27  C   UNL     1     -10.941   0.730  -5.184  0.00  0.00    +0.162 A 
ATOM     28  C   UNL     1     -10.300   1.425  -4.168  0.00  0.00    +0.164 A 
ATOM     29  C   UNL     1     -10.428   1.009  -2.854  0.00  0.00    +0.078 A 
ATOM     30  O   UNL     1      -9.548   2.523  -4.473  0.00  0.00    -0.488 OA
ATOM     31  C   UNL     1      -8.346   2.273  -5.205  0.00  0.00    +0.232 C 
ATOM     32  C   UNL     1      -8.630   2.192  -6.696  0.00  0.00    +0.082 C 
ATOM     33  C   UNL     1      -9.514   1.008  -7.054  0.00  0.00    +0.232 C 
ATOM     34  O   UNL     1     -10.813   1.153  -6.475  0.00  0.00    -0.488 OA
ENDBRANCH  21  24
ENDBRANCH  19  21
ENDBRANCH   3  19
TORSDOF 4
