REMARK  Name = ZINC09238493
REMARK  6 active torsions:
REMARK  status: ('A' for Active; 'I' for Inactive)
REMARK    1  A    between atoms: C_1  and  C_2
REMARK    2  A    between atoms: C_2  and  O_3
REMARK    3  A    between atoms: O_3  and  C_4
REMARK    4  A    between atoms: C_7  and  C_10
REMARK    5  A    between atoms: C_12  and  C_27
REMARK    6  A    between atoms: C_18  and  C_21
REMARK                            x       y       z     vdW  Elec       q    Type
REMARK                         _______ _______ _______ _____ _____    ______ ____
ROOT
ATOM      1  C   UNL     1       2.452   3.935  -0.001  0.00  0.00    +0.140 C 
ATOM      2  C   UNL     1       2.746   4.418  -1.428  0.00  0.00    +0.166 C 
ATOM      3  S   UNL     1       4.468   4.998  -1.476  0.00  0.00    -0.069 S 
ATOM      4  C   UNL     1       4.457   5.917   0.031  0.00  0.00    +0.210 A 
ATOM      5  N   UNL     1       5.347   6.772   0.459  0.00  0.00    -0.121 NA
ATOM      6  N   UNL     1       4.990   7.231   1.609  0.00  0.00    -0.127 NA
ATOM      7  C   UNL     1       3.849   6.691   1.975  0.00  0.00    +0.182 A 
ATOM      8  N   UNL     1       3.467   5.835   0.970  0.00  0.00    -0.221 N 
ATOM      9  N   UNL     1       2.344   5.074   0.912  0.00  0.00    -0.272 N 
ATOM     10  H   UNL     1       1.536   5.638   0.694  0.00  0.00    +0.167 HD
ENDROOT
BRANCH   2  11
ATOM     11  C   UNL     1       2.563   3.280  -2.399  0.00  0.00    +0.231 C 
ATOM     12  O   UNL     1       2.770   2.139  -2.042  0.00  0.00    -0.274 OA
ATOM     13  N   UNL     1       2.171   3.529  -3.663  0.00  0.00    -0.301 N 
ATOM     14  C   UNL     1       1.927   4.899  -4.056  0.00  0.00    +0.108 C 
ATOM     15  C   UNL     1       0.456   5.273  -3.774  0.00  0.00    +0.019 C 
ATOM     16  C   UNL     1      -0.435   4.586  -4.721  0.00  0.00    +0.002 C 
ATOM     17  C   UNL     1      -0.405   3.064  -4.622  0.00  0.00    +0.002 C 
ATOM     18  C   UNL     1       0.735   2.531  -5.454  0.00  0.00    +0.019 C 
ATOM     19  C   UNL     1       2.001   2.392  -4.590  0.00  0.00    +0.108 C 
ENDBRANCH   2  11
BRANCH   1  23
ATOM     20  C   UNL     1      -1.223   1.754   0.017  0.00  0.00    +0.121 A 
ATOM     21  C   UNL     1      -0.013   1.076   0.008  0.00  0.00    +0.046 A 
ATOM     22  C   UNL     1       1.174   1.783   0.000  0.00  0.00    +0.009 A 
ATOM     23  C   UNL     1       1.156   3.166   0.007  0.00  0.00    -0.024 A 
ATOM     24  C   UNL     1      -0.049   3.844   0.022  0.00  0.00    +0.009 A 
ATOM     25  C   UNL     1      -1.238   3.141   0.030  0.00  0.00    +0.046 A 
BRANCH  20  26
ATOM     26  O   UNL     1      -2.392   1.060   0.020  0.00  0.00    -0.492 OA
BRANCH  26  28
ATOM     27  C   UNL     1      -4.801   0.877   0.030  0.00  0.00    +0.048 C 
ATOM     28  C   UNL     1      -3.599   1.824   0.029  0.00  0.00    +0.225 C 
ENDBRANCH  26  28
ENDBRANCH  20  26
ENDBRANCH   1  23
BRANCH   7  29
ATOM     29  C   UNL     1       3.114   6.955   3.230  0.00  0.00    +0.021 A 
ATOM     30  C   UNL     1       1.778   6.569   3.355  0.00  0.00    +0.011 A 
ATOM     31  C   UNL     1       1.100   6.815   4.531  0.00  0.00    +0.001 A 
ATOM     32  C   UNL     1       1.737   7.451   5.581  0.00  0.00    +0.000 A 
ATOM     33  C   UNL     1       3.060   7.841   5.462  0.00  0.00    +0.001 A 
ATOM     34  C   UNL     1       3.751   7.597   4.293  0.00  0.00    +0.011 A 
ENDBRANCH   7  29
TORSDOF 5
