REMARK  Name = ZINC12780599
REMARK  9 active torsions:
REMARK  status: ('A' for Active; 'I' for Inactive)
REMARK    1  A    between atoms: C_1  and  C_2
REMARK    2  A    between atoms: C_7  and  C_9
REMARK    3  A    between atoms: C_7  and  C_26
REMARK    4  A    between atoms: C_7  and  N_60
REMARK    5  A    between atoms: C_9  and  N_10
REMARK    6  A    between atoms: C_11  and  C_13
REMARK    7  A    between atoms: C_13  and  C_14
REMARK    8  A    between atoms: C_14  and  C_15
REMARK    9  A    between atoms: C_15  and  C_16
REMARK                            x       y       z     vdW  Elec       q    Type
REMARK                         _______ _______ _______ _____ _____    ______ ____
ROOT
ATOM      1  N   UNL     1       2.906  -3.385  -1.565  0.00  0.00    -0.317 N 
ATOM      2  C   UNL     1       2.987  -3.993  -2.765  0.00  0.00    +0.213 C 
ATOM      3  O   UNL     1       2.679  -3.391  -3.772  0.00  0.00    -0.276 OA
ATOM      4  H   UNL     1       3.153  -3.867  -0.760  0.00  0.00    +0.149 HD
ENDROOT
BRANCH   1   5
ATOM      5  C   UNL     1       2.445  -1.998  -1.476  0.00  0.00    +0.094 C 
BRANCH   5   6
ATOM      6  C   UNL     1       2.321  -1.595  -0.005  0.00  0.00    -0.013 C 
BRANCH   6  13
ATOM      7  C   UNL     1      -1.768  -4.503   2.731  0.00  0.00    +0.007 C 
ATOM      8  C   UNL     1      -0.978  -3.393   2.035  0.00  0.00    -0.018 C 
ATOM      9  C   UNL     1      -0.659  -3.816   0.598  0.00  0.00    -0.015 C 
ATOM     10  C   UNL     1       0.183  -2.728  -0.073  0.00  0.00    -0.078 C 
ATOM     11  C   UNL     1       1.146  -2.080   2.054  0.00  0.00    -0.078 C 
ATOM     12  C   UNL     1       0.333  -3.148   2.789  0.00  0.00    -0.015 C 
ATOM     13  N   UNL     1       1.440  -2.558   0.687  0.00  0.00    +0.386 N 
ATOM     14  H   UNL     1       1.919  -3.464   0.746  0.00  0.00    -0.081 HD
ENDBRANCH   6  13
BRANCH   6  15
ATOM     15  C   UNL     1       1.758  -0.200   0.087  0.00  0.00    -0.022 A 
ATOM     16  C   UNL     1       2.407   0.971   0.296  0.00  0.00    +0.009 A 
ATOM     17  C   UNL     1       1.677   2.144   0.344  0.00  0.00    +0.008 A 
ATOM     18  C   UNL     1       0.333   2.088   0.180  0.00  0.00    +0.045 A 
ATOM     19  S   UNL     1       0.061   0.338  -0.050  0.00  0.00    -0.103 S 
ENDBRANCH   6  15
ENDBRANCH   5   6
ENDBRANCH   1   5
BRANCH   2  20
ATOM     20  C   UNL     1       3.461  -5.421  -2.857  0.00  0.00    +0.096 C 
BRANCH  20  21
ATOM     21  C   UNL     1       3.460  -5.866  -4.320  0.00  0.00    +0.014 C 
BRANCH  21  22
ATOM     22  C   UNL     1       3.942  -7.315  -4.413  0.00  0.00    +0.038 C 
BRANCH  22  23
ATOM     23  C   UNL     1       3.941  -7.754  -5.855  0.00  0.00    -0.022 A 
ATOM     24  C   UNL     1       2.961  -8.419  -6.486  0.00  0.00    +0.087 A 
ATOM     25  N   UNL     1       3.312  -8.642  -7.790  0.00  0.00    -0.360 N 
ATOM     26  H   UNL     1       2.764  -9.103  -8.444  0.00  0.00    +0.165 HD
ATOM     27  C   UNL     1       4.563  -8.119  -8.033  0.00  0.00    +0.047 A 
ATOM     28  C   UNL     1       5.011  -7.540  -6.832  0.00  0.00    +0.003 A 
ATOM     29  C   UNL     1       6.264  -6.926  -6.779  0.00  0.00    +0.010 A 
ATOM     30  C   UNL     1       7.049  -6.891  -7.897  0.00  0.00    +0.001 A 
ATOM     31  C   UNL     1       6.612  -7.461  -9.084  0.00  0.00    +0.002 A 
ATOM     32  C   UNL     1       5.379  -8.072  -9.158  0.00  0.00    +0.026 A 
ENDBRANCH  22  23
ENDBRANCH  21  22
ENDBRANCH  20  21
ENDBRANCH   2  20
TORSDOF 8
