REMARK  Name = ZINC39662466
REMARK  7 active torsions:
REMARK  status: ('A' for Active; 'I' for Inactive)
REMARK    1  A    between atoms: C_1  and  O_2
REMARK    2  A    between atoms: O_2  and  C_3
REMARK    3  A    between atoms: C_7  and  C_9
REMARK    4  A    between atoms: C_13  and  C_22
REMARK    5  A    between atoms: N_24  and  C_25
REMARK    6  A    between atoms: C_25  and  C_27
REMARK    7  A    between atoms: C_25  and  C_29
REMARK                            x       y       z     vdW  Elec       q    Type
REMARK                         _______ _______ _______ _____ _____    ______ ____
ROOT
ATOM      1  C   UNL     1      -2.490  -3.951   0.092  0.00  0.00    +0.248 C 
ATOM      2  O   UNL     1      -3.587  -4.474   0.122  0.00  0.00    -0.270 OA
ATOM      3  N   UNL     1      -1.387  -4.708  -0.070  0.00  0.00    -0.296 N 
ATOM      4  C   UNL     1       0.029  -4.271  -0.029  0.00  0.00    +0.121 C 
ATOM      5  C   UNL     1       0.767  -5.408   0.713  0.00  0.00    +0.100 C 
ATOM      6  C   UNL     1      -0.119  -6.649   0.509  0.00  0.00    -0.004 C 
ATOM      7  C   UNL     1      -1.315  -6.167  -0.325  0.00  0.00    +0.115 C 
ATOM      8  C   UNL     1      -0.602  -7.179   1.856  0.00  0.00    -0.010 C 
ATOM      9  C   UNL     1      -1.433  -8.446   1.631  0.00  0.00    -0.082 C 
ATOM     10  N   UNL     1      -0.615  -9.456   0.949  0.00  0.00    +0.379 N 
ATOM     11  C   UNL     1      -0.231  -8.974  -0.383  0.00  0.00    -0.082 C 
ATOM     12  C   UNL     1       0.650  -7.729  -0.244  0.00  0.00    -0.010 C 
ATOM     13  H   UNL     1       0.216  -9.636   1.492  0.00  0.00    -0.086 HD
ATOM     14  H   UNL     1      -1.144 -10.310   0.857  0.00  0.00    -0.086 HD
ENDROOT
BRANCH   1  19
ATOM     15  C   UNL     1      -1.288  -0.418  -0.355  0.00  0.00    +0.121 A 
ATOM     16  C   UNL     1      -2.139   0.266   0.504  0.00  0.00    +0.047 A 
ATOM     17  C   UNL     1      -3.099  -0.420   1.225  0.00  0.00    +0.019 A 
ATOM     18  C   UNL     1      -3.218  -1.790   1.095  0.00  0.00    +0.030 A 
ATOM     19  C   UNL     1      -2.367  -2.485   0.233  0.00  0.00    +0.054 A 
ATOM     20  C   UNL     1      -1.402  -1.790  -0.497  0.00  0.00    +0.059 A 
ATOM     21 BR   UNL     1      -4.532  -2.723   2.084  0.00  0.00    -0.050 Br
BRANCH  15  23
ATOM     22  C   UNL     1      -0.285   1.677  -0.866  0.00  0.00    +0.277 C 
ATOM     23  O   UNL     1      -0.346   0.262  -1.061  0.00  0.00    -0.495 OA
ENDBRANCH  15  23
ENDBRANCH   1  19
BRANCH   5  24
ATOM     24  C   UNL     1       2.130  -5.629   0.110  0.00  0.00    +0.219 C 
ATOM     25  O   UNL     1       2.313  -5.417  -1.070  0.00  0.00    -0.275 OA
ATOM     26  N   UNL     1       3.146  -6.062   0.883  0.00  0.00    -0.296 N 
ATOM     27  H   UNL     1       3.000  -6.231   1.827  0.00  0.00    +0.150 HD
BRANCH  26  28
ATOM     28  C   UNL     1       4.472  -6.277   0.297  0.00  0.00    +0.207 C 
BRANCH  28  29
ATOM     29  C   UNL     1       5.227  -7.288   1.121  0.00  0.00    -0.013 A 
ATOM     30  C   UNL     1       5.136  -7.262   2.500  0.00  0.00    +0.006 A 
ATOM     31  C   UNL     1       5.829  -8.190   3.255  0.00  0.00    +0.000 A 
ATOM     32  C   UNL     1       6.612  -9.142   2.632  0.00  0.00    +0.000 A 
ATOM     33  C   UNL     1       6.703  -9.168   1.253  0.00  0.00    +0.000 A 
ATOM     34  C   UNL     1       6.007  -8.244   0.497  0.00  0.00    +0.006 A 
ENDBRANCH  28  29
BRANCH  28  35
ATOM     35  C   UNL     1       5.213  -5.005   0.280  0.00  0.00    +0.090 C 
ATOM     36  N   UNL     1       5.785  -4.024   0.267  0.00  0.00    -0.194 NA
ENDBRANCH  28  35
ENDBRANCH  26  28
ENDBRANCH   5  24
TORSDOF 6
