REMARK  Name = ZINC41145494
REMARK  5 active torsions:
REMARK  status: ('A' for Active; 'I' for Inactive)
REMARK    1  A    between atoms: N_10  and  C_11
REMARK    2  A    between atoms: C_11  and  C_12
REMARK    3  A    between atoms: C_12  and  C_13
REMARK    4  A    between atoms: C_13  and  C_15
REMARK    5  A    between atoms: C_13  and  O_25
REMARK                            x       y       z     vdW  Elec       q    Type
REMARK                         _______ _______ _______ _____ _____    ______ ____
ROOT
ATOM      1  C   UNL     1       6.757   1.399   0.615  0.00  0.00    +0.146 C 
ENDROOT
BRANCH   1   2
ATOM      2  C   UNL     1       7.291   2.037   1.871  0.00  0.00    -0.019 A 
ATOM      3  C   UNL     1       8.100   1.313   2.728  0.00  0.00    +0.006 A 
ATOM      4  C   UNL     1       8.583   1.904   3.877  0.00  0.00    +0.004 A 
ATOM      5  C   UNL     1       8.265   3.221   4.181  0.00  0.00    -0.044 A 
ATOM      6  C   UNL     1       7.464   3.944   3.326  0.00  0.00    -0.044 A 
ATOM      7  C   UNL     1       6.980   3.348   2.168  0.00  0.00    +0.010 A 
ATOM      8  C   UNL     1       7.091   5.380   3.583  0.00  0.00    +0.035 C 
ATOM      9  C   UNL     1       7.329   5.743   5.048  0.00  0.00    +0.005 C 
ATOM     10  C   UNL     1       8.755   5.326   5.425  0.00  0.00    +0.005 C 
ATOM     11  C   UNL     1       8.819   3.801   5.456  0.00  0.00    +0.035 C 
ENDBRANCH   1   2
BRANCH   1  12
ATOM     12  O   UNL     1       7.729   0.492   0.091  0.00  0.00    -0.387 OA
ATOM     13  H   UNL     1       7.966  -0.224   0.697  0.00  0.00    +0.210 HD
ENDBRANCH   1  12
BRANCH   1  14
ATOM     14  C   UNL     1       5.470   0.636   0.939  0.00  0.00    +0.055 C 
BRANCH  14  15
ATOM     15  C   UNL     1       4.861   0.093  -0.355  0.00  0.00    +0.108 C 
BRANCH  15  25
ATOM     16  C   UNL     1      -0.017   1.377   0.010  0.00  0.00    +0.000 A 
ATOM     17  C   UNL     1       1.170   2.088   0.002  0.00  0.00    +0.002 A 
ATOM     18  C   UNL     1       2.375   1.416  -0.015  0.00  0.00    +0.023 A 
ATOM     19  C   UNL     1       2.396   0.025  -0.024  0.00  0.00    +0.033 A 
ATOM     20  C   UNL     1       1.207  -0.687  -0.013  0.00  0.00    -0.026 A 
ATOM     21  C   UNL     1       0.002  -0.004   0.002  0.00  0.00    +0.005 A 
ATOM     22  C   UNL     1       1.192  -2.192  -0.011  0.00  0.00    +0.038 C 
ATOM     23  C   UNL     1       2.521  -2.742  -0.528  0.00  0.00    +0.024 C 
ATOM     24  C   UNL     1       3.667  -2.076   0.246  0.00  0.00    +0.105 C 
ATOM     25  N   UNL     1       3.629  -0.637  -0.046  0.00  0.00    -0.330 N 
ENDBRANCH  15  25
ENDBRANCH  14  15
ENDBRANCH   1  14
TORSDOF 5
