REMARK  Name = ZINC12298888
REMARK  7 active torsions:
REMARK  status: ('A' for Active; 'I' for Inactive)
REMARK    1  A    between atoms: C_4  and  C_6
REMARK    2  A    between atoms: C_6  and  C_7
REMARK    3  A    between atoms: C_7  and  C_8
REMARK    4  A    between atoms: C_8  and  N_9
REMARK    5  A    between atoms: C_10  and  C_12
REMARK    6  A    between atoms: C_18  and  N_67
REMARK    7  A    between atoms: C_24  and  C_26
REMARK                            x       y       z     vdW  Elec       q    Type
REMARK                         _______ _______ _______ _____ _____    ______ ____
ROOT
ATOM      1  C   UNL     1      -0.823   3.123  -1.184  0.00  0.00    +0.058 C 
ATOM      2  C   UNL     1      -0.755   1.594  -1.231  0.00  0.00    +0.009 C 
ATOM      3  C   UNL     1      -0.013   1.086   0.008  0.00  0.00    -0.018 C 
ATOM      4  C   UNL     1      -0.731   1.580   1.266  0.00  0.00    -0.078 C 
ATOM      5  C   UNL     1      -1.519   3.558   0.108  0.00  0.00    -0.066 C 
ATOM      6  N   UNL     1      -0.742   3.058   1.262  0.00  0.00    +0.382 N 
ATOM      7  H   UNL     1       0.224   3.399   1.186  0.00  0.00    -0.081 HD
ENDROOT
BRANCH   6   8
ATOM      8  C   UNL     1      -1.329   3.562   2.521  0.00  0.00    -0.066 C 
ATOM      9  C   UNL     1      -1.258   5.090   2.524  0.00  0.00    +0.004 C 
ATOM     10  C   UNL     1      -1.874   5.624   3.821  0.00  0.00    +0.106 C 
ATOM     11  N   UNL     1      -1.201   4.986   4.961  0.00  0.00    -0.301 N 
ATOM     12  C   UNL     1      -1.132   3.519   5.011  0.00  0.00    +0.106 C 
ATOM     13  C   UNL     1      -0.525   3.010   3.700  0.00  0.00    +0.004 C 
ATOM     14  C   UNL     1      -0.657   5.732   5.943  0.00  0.00    +0.219 C 
ATOM     15  O   UNL     1      -0.104   5.194   6.879  0.00  0.00    -0.275 OA
BRANCH  14  16
ATOM     16  C   UNL     1      -0.736   7.236   5.878  0.00  0.00    +0.075 C 
ATOM     17  C   UNL     1       0.568   8.002   5.646  0.00  0.00    +0.013 C 
ATOM     18  C   UNL     1      -0.099   8.027   7.022  0.00  0.00    +0.013 C 
ENDBRANCH  14  16
ENDBRANCH   6   8
BRANCH   1  20
ATOM     19  N   UNL     1      -1.178   3.360  -3.621  0.00  0.00    -0.315 N 
ATOM     20  C   UNL     1      -1.604   3.628  -2.370  0.00  0.00    +0.214 C 
ATOM     21  O   UNL     1      -2.615   4.276  -2.200  0.00  0.00    -0.276 OA
ATOM     22  H   UNL     1      -0.370   2.841  -3.757  0.00  0.00    +0.149 HD
BRANCH  19  23
ATOM     23  C   UNL     1      -1.937   3.851  -4.774  0.00  0.00    +0.104 C 
BRANCH  23  24
ATOM     24  C   UNL     1      -1.244   3.411  -6.065  0.00  0.00    +0.019 C 
BRANCH  24  25
ATOM     25  C   UNL     1      -2.036   3.924  -7.269  0.00  0.00    +0.005 C 
BRANCH  25  29
ATOM     26  C   UNL     1       0.142   4.484 -10.217  0.00  0.00    +0.000 C 
ATOM     27  C   UNL     1      -1.308   4.854 -10.617  0.00  0.00    +0.000 C 
ATOM     28  C   UNL     1      -2.185   3.901  -9.779  0.00  0.00    +0.003 C 
ATOM     29  C   UNL     1      -1.343   3.484  -8.561  0.00  0.00    -0.011 C 
ATOM     30  C   UNL     1       0.018   4.198  -8.700  0.00  0.00    +0.003 C 
ENDBRANCH  25  29
ENDBRANCH  24  25
ENDBRANCH  23  24
ENDBRANCH  19  23
ENDBRANCH   1  20
TORSDOF 7
