REMARK  Name = ZINC13466818
REMARK  6 active torsions:
REMARK  status: ('A' for Active; 'I' for Inactive)
REMARK    1  A    between atoms: C_1  and  C_2
REMARK    2  A    between atoms: C_10  and  O_23
REMARK    3  A    between atoms: O_23  and  C_24
REMARK    4  A    between atoms: C_27  and  N_30
REMARK    5  A    between atoms: N_30  and  C_31
REMARK    6  A    between atoms: N_30  and  C_32
REMARK                            x       y       z     vdW  Elec       q    Type
REMARK                         _______ _______ _______ _____ _____    ______ ____
ROOT
ATOM      1  C   UNL     1       1.073   6.104  -2.120  0.00  0.00    +0.019 C 
ATOM      2  C   UNL     1       1.201   4.659  -2.605  0.00  0.00    +0.029 C 
ATOM      3  C   UNL     1      -0.042   3.880  -2.223  0.00  0.00    +0.015 C 
ATOM      4  C   UNL     1      -0.238   4.052  -0.708  0.00  0.00    +0.009 C 
ATOM      5  C   UNL     1       0.987   3.596   0.074  0.00  0.00    +0.023 C 
ATOM      6  C   UNL     1       1.105   2.097   0.033  0.00  0.00    -0.041 A 
ATOM      7  C   UNL     1      -0.067   1.353   0.097  0.00  0.00    +0.008 A 
ATOM      8  C   UNL     1      -0.027  -0.024   0.079  0.00  0.00    +0.046 A 
ATOM      9  C   UNL     1       1.196  -0.676  -0.004  0.00  0.00    +0.129 A 
ATOM     10  C   UNL     1       2.363   0.065  -0.072  0.00  0.00    +0.050 A 
ATOM     11  C   UNL     1       2.319   1.452  -0.056  0.00  0.00    -0.040 A 
ATOM     12  C   UNL     1       3.626   2.196  -0.141  0.00  0.00    +0.036 C 
ATOM     13  C   UNL     1       3.456   3.637   0.335  0.00  0.00    +0.009 C 
ATOM     14  C   UNL     1       2.275   4.261  -0.417  0.00  0.00    +0.001 C 
ATOM     15  C   UNL     1       2.407   3.977  -1.903  0.00  0.00    +0.006 C 
ATOM     16  C   UNL     1       3.585   4.663  -2.606  0.00  0.00    +0.012 C 
ATOM     17  C   UNL     1       3.110   4.721  -4.083  0.00  0.00    +0.075 C 
ATOM     18  C   UNL     1       1.592   4.646  -4.053  0.00  0.00    +0.139 C 
ATOM     19  O   UNL     1       0.851   4.590  -5.006  0.00  0.00    -0.297 OA
ENDROOT
BRANCH   9  20
ATOM     20  O   UNL     1       1.246  -2.034  -0.018  0.00  0.00    -0.456 OA
BRANCH  20  21
ATOM     21  C   UNL     1       0.740  -2.681  -1.102  0.00  0.00    +0.129 A 
ATOM     22  C   UNL     1       0.304  -1.955  -2.201  0.00  0.00    +0.048 A 
ATOM     23  C   UNL     1      -0.206  -2.612  -3.304  0.00  0.00    +0.027 A 
ATOM     24  C   UNL     1      -0.292  -3.998  -3.308  0.00  0.00    +0.029 A 
ATOM     25  C   UNL     1       0.139  -4.723  -2.205  0.00  0.00    +0.027 A 
ATOM     26  C   UNL     1       0.653  -4.066  -1.105  0.00  0.00    +0.048 A 
BRANCH  24  27
ATOM     27  N   UNL     1      -0.814  -4.663  -4.423  0.00  0.00    -0.336 N 
ATOM     28  C   UNL     1      -0.905  -6.125  -4.427  0.00  0.00    +0.129 C 
ATOM     29  C   UNL     1      -1.269  -3.897  -5.587  0.00  0.00    +0.129 C 
ENDBRANCH  24  27
ENDBRANCH  20  21
ENDBRANCH   9  20
TORSDOF 3
