REMARK  Name = ZINC13043682
REMARK  13 active torsions:
REMARK  status: ('A' for Active; 'I' for Inactive)
REMARK    1  A    between atoms: C_1  and  C_2
REMARK    2  A    between atoms: C_2  and  N_3
REMARK    3  A    between atoms: C_5  and  O_34
REMARK    4  A    between atoms: N_12  and  C_13
REMARK    5  A    between atoms: C_13  and  C_15
REMARK    6  A    between atoms: C_18  and  S_21
REMARK    7  A    between atoms: S_21  and  N_24
REMARK    8  A    between atoms: N_24  and  C_25
REMARK    9  A    between atoms: N_24  and  C_27
REMARK   10  A    between atoms: C_25  and  C_26
REMARK   11  A    between atoms: C_27  and  C_28
REMARK   12  A    between atoms: O_34  and  C_35
REMARK   13  A    between atoms: C_35  and  C_36
REMARK                            x       y       z     vdW  Elec       q    Type
REMARK                         _______ _______ _______ _____ _____    ______ ____
ROOT
ATOM      1  C   UNL     1      -0.552   0.494   0.353  0.00  0.00    +0.039 A 
ATOM      2  C   UNL     1      -1.646   1.356   0.432  0.00  0.00    +0.015 A 
ATOM      3  C   UNL     1      -1.444   2.720   0.470  0.00  0.00    +0.029 A 
ATOM      4  C   UNL     1      -0.160   3.234   0.418  0.00  0.00    +0.106 A 
ATOM      5  C   UNL     1       0.928   2.385   0.334  0.00  0.00    +0.029 A 
ATOM      6  C   UNL     1       0.740   1.018   0.301  0.00  0.00    +0.015 A 
ENDROOT
BRANCH   4   7
ATOM      7  S   UNL     1       0.089   4.978   0.459  0.00  0.00    +0.061 S 
ATOM      8  O   UNL     1      -0.996   5.526   1.196  0.00  0.00    -0.153 OA
ATOM      9  O   UNL     1       1.444   5.186   0.831  0.00  0.00    -0.153 OA
BRANCH   7  10
ATOM     10  N   UNL     1      -0.066   5.532  -1.094  0.00  0.00    -0.173 NA
BRANCH  10  11
ATOM     11  C   UNL     1       1.123   5.702  -1.933  0.00  0.00    +0.106 C 
ATOM     12  C   UNL     1       1.328   4.450  -2.787  0.00  0.00    +0.022 C 
ENDBRANCH  10  11
BRANCH  10  13
ATOM     13  C   UNL     1      -1.392   5.850  -1.629  0.00  0.00    +0.144 C 
BRANCH  13  14
ATOM     14  C   UNL     1      -1.624   7.337  -1.544  0.00  0.00    -0.032 A 
ATOM     15  C   UNL     1      -2.128   7.893  -0.382  0.00  0.00    +0.005 A 
ATOM     16  C   UNL     1      -2.336   9.257  -0.302  0.00  0.00    +0.000 A 
ATOM     17  C   UNL     1      -2.050  10.064  -1.387  0.00  0.00    +0.000 A 
ATOM     18  C   UNL     1      -1.552   9.508  -2.550  0.00  0.00    +0.000 A 
ATOM     19  C   UNL     1      -1.339   8.145  -2.628  0.00  0.00    +0.005 A 
ENDBRANCH  13  14
ENDBRANCH  10  13
ENDBRANCH   7  10
ENDBRANCH   4   7
BRANCH   1  20
ATOM     20  C   UNL     1      -0.761  -0.972   0.317  0.00  0.00    +0.269 C 
ATOM     21  O   UNL     1       0.196  -1.723   0.242  0.00  0.00    -0.268 OA
BRANCH  20  31
ATOM     22  N   UNL     1      -3.361  -3.472   0.381  0.00  0.00    -0.318 N 
ATOM     23  C   UNL     1      -3.358  -4.856   0.331  0.00  0.00    +0.100 A 
ATOM     24  C   UNL     1      -4.459  -5.733   0.361  0.00  0.00    +0.145 A 
ATOM     25  C   UNL     1      -4.271  -7.098   0.308  0.00  0.00    +0.048 A 
ATOM     26  C   UNL     1      -3.002  -7.644   0.224  0.00  0.00    +0.005 A 
ATOM     27  C   UNL     1      -1.904  -6.803   0.193  0.00  0.00    +0.017 A 
ATOM     28  C   UNL     1      -2.088  -5.440   0.245  0.00  0.00    +0.042 A 
ATOM     29  S   UNL     1      -0.995  -4.041   0.232  0.00  0.00    -0.052 S 
ATOM     30  C   UNL     1      -2.188  -2.787   0.335  0.00  0.00    +0.167 A 
ATOM     31  N   UNL     1      -2.000  -1.472   0.367  0.00  0.00    -0.152 NA
BRANCH  22  33
ATOM     32  C   UNL     1      -4.440  -1.504   1.351  0.00  0.00    +0.027 C 
ATOM     33  C   UNL     1      -4.630  -2.746   0.479  0.00  0.00    +0.121 C 
ENDBRANCH  22  33
BRANCH  24  34
ATOM     34  O   UNL     1      -5.719  -5.230   0.444  0.00  0.00    -0.490 OA
BRANCH  34  35
ATOM     35  C   UNL     1      -6.794  -6.172   0.470  0.00  0.00    +0.226 C 
ATOM     36  C   UNL     1      -8.125  -5.424   0.564  0.00  0.00    +0.048 C 
ENDBRANCH  34  35
ENDBRANCH  24  34
ENDBRANCH  20  31
ENDBRANCH   1  20
TORSDOF 10
