REMARK  Name = ZINC28494962
REMARK  5 active torsions:
REMARK  status: ('A' for Active; 'I' for Inactive)
REMARK    1  A    between atoms: C_3  and  C_8
REMARK    2  A    between atoms: C_9  and  C_10
REMARK    3  A    between atoms: N_12  and  C_13
REMARK    4  A    between atoms: C_17  and  S_19
REMARK    5  A    between atoms: S_19  and  N_22
REMARK                            x       y       z     vdW  Elec       q    Type
REMARK                         _______ _______ _______ _____ _____    ______ ____
ROOT
ATOM      1  C   UNL     1      -0.040  -0.004  -0.012  0.00  0.00    +0.036 A 
ATOM      2  C   UNL     1       1.145  -0.717  -0.145  0.00  0.00    +0.023 A 
ATOM      3  C   UNL     1       1.119  -2.098  -0.166  0.00  0.00    +0.004 A 
ATOM      4  C   UNL     1      -0.084  -2.770  -0.055  0.00  0.00    +0.029 A 
ATOM      5  C   UNL     1      -1.265  -2.063   0.078  0.00  0.00    +0.110 A 
ATOM      6  C   UNL     1      -1.246  -0.682   0.104  0.00  0.00    +0.052 A 
ENDROOT
BRANCH   1   9
ATOM      7  C   UNL     1      -1.024   2.093  -0.550  0.00  0.00    +0.241 C 
ATOM      8  O   UNL     1      -1.993   1.510  -1.000  0.00  0.00    -0.270 OA
ATOM      9  N   UNL     1      -0.017   1.394   0.010  0.00  0.00    -0.282 N 
ATOM     10  H   UNL     1       0.823   1.923   0.484  0.00  0.00    +0.155 HD
BRANCH   7  12
ATOM     11  C   UNL     1      -1.959   4.253  -1.178  0.00  0.00    +0.013 C 
ATOM     12  C   UNL     1      -0.952   3.554  -0.618  0.00  0.00    +0.068 C 
BRANCH  11  15
ATOM     13  C   UNL     1      -2.855   7.827  -1.886  0.00  0.00    +0.002 A 
ATOM     14  C   UNL     1      -2.929   6.451  -1.826  0.00  0.00    +0.008 A 
ATOM     15  C   UNL     1      -1.887   5.722  -1.246  0.00  0.00    -0.023 A 
ATOM     16  C   UNL     1      -0.777   6.396  -0.725  0.00  0.00    +0.028 A 
ATOM     17  C   UNL     1      -0.715   7.772  -0.797  0.00  0.00    +0.042 A 
ATOM     18  C   UNL     1      -1.752   8.487  -1.373  0.00  0.00    +0.020 A 
ATOM     19 CL   UNL     1       0.664   8.611  -0.157  0.00  0.00    -0.084 Cl
ENDBRANCH  11  15
ENDBRANCH   7  12
ENDBRANCH   1   9
BRANCH   5  20
ATOM     20  S   UNL     1      -2.796  -2.925   0.219  0.00  0.00    +0.073 S 
ATOM     21  O   UNL     1      -3.808  -2.028  -0.216  0.00  0.00    -0.150 OA
ATOM     22  O   UNL     1      -2.600  -4.200  -0.376  0.00  0.00    -0.150 OA
BRANCH  20  23
ATOM     23  N   UNL     1      -3.060  -3.191   1.832  0.00  0.00    -0.205 N 
ATOM     24  C   UNL     1      -3.260  -2.131   2.677  0.00  0.00    +0.088 C 
ATOM     25  N   UNL     1      -3.261  -0.897   2.312  0.00  0.00    -0.375 N 
ATOM     26  C   UNL     1      -3.503   0.017   3.434  0.00  0.00    +0.114 C 
ATOM     27  C   UNL     1      -3.255  -0.829   4.705  0.00  0.00    +0.028 C 
ATOM     28  C   UNL     1      -3.516  -2.256   4.163  0.00  0.00    +0.072 C 
ATOM     29  H   UNL     1      -3.076  -4.218   2.225  0.00  0.00    +0.175 HD
ATOM     30  H   UNL     1      -3.091  -0.636   1.257  0.00  0.00    +0.161 HD
ENDBRANCH  20  23
ENDBRANCH   5  20
TORSDOF 5
