REMARK  Name = ZINC03823290
REMARK  8 active torsions:
REMARK  status: ('A' for Active; 'I' for Inactive)
REMARK    1  A    between atoms: C_1  and  C_2
REMARK    2  A    between atoms: C_2  and  C_4
REMARK    3  A    between atoms: C_2  and  N_52
REMARK    4  A    between atoms: C_11  and  P_13
REMARK    5  A    between atoms: P_13  and  O_15
REMARK    6  A    between atoms: P_13  and  O_22
REMARK    7  A    between atoms: O_15  and  C_16
REMARK    8  A    between atoms: O_22  and  C_23
REMARK                            x       y       z     vdW  Elec       q    Type
REMARK                         _______ _______ _______ _____ _____    ______ ____
ROOT
ATOM      1  P   UNL     1      -0.847   1.715   1.631  0.00  0.00    +0.454 P 
ATOM      2  O   UNL     1      -2.105   0.993   1.337  0.00  0.00    -0.230 OA
ENDROOT
BRANCH   1  10
ATOM      3  C   UNL     1      -1.236   2.256  -1.120  0.00  0.00    +0.202 C 
ATOM      4  O   UNL     1      -1.964   2.445  -0.169  0.00  0.00    -0.277 OA
ATOM      5  N   UNL     1      -0.011   1.727  -0.936  0.00  0.00    -0.287 N 
ATOM      6  C   UNL     1       0.926   1.599  -2.061  0.00  0.00    +0.109 C 
ATOM      7  C   UNL     1       2.249   2.270  -1.680  0.00  0.00    +0.019 C 
ATOM      8  C   UNL     1       2.759   1.674  -0.366  0.00  0.00    +0.004 C 
ATOM      9  C   UNL     1       1.744   1.943   0.747  0.00  0.00    +0.037 C 
ATOM     10  C   UNL     1       0.415   1.267   0.393  0.00  0.00    +0.215 C 
BRANCH   3  12
ATOM     11  C   UNL     1      -1.102   3.959  -2.917  0.00  0.00    -0.005 C 
ATOM     12  C   UNL     1      -1.702   2.613  -2.508  0.00  0.00    +0.010 C 
BRANCH  12  15
ATOM     13  H   UNL     1      -3.493   3.414  -1.881  0.00  0.00    -0.089 HD
ATOM     14  H   UNL     1      -3.510   2.881  -3.457  0.00  0.00    -0.089 HD
ATOM     15  N   UNL     1      -3.174   2.683  -2.515  0.00  0.00    +0.385 N 
ATOM     16  H   UNL     1      -3.557   1.782  -2.206  0.00  0.00    -0.089 HD
ENDBRANCH  12  15
ENDBRANCH   3  12
ENDBRANCH   1  10
BRANCH   1  17
ATOM     17  O   UNL     1      -0.326   1.309   3.099  0.00  0.00    -0.414 OA
BRANCH  17  18
ATOM     18  C   UNL     1      -0.404  -0.021   3.365  0.00  0.00    +0.131 A 
ATOM     19  C   UNL     1      -1.581  -0.563   3.860  0.00  0.00    +0.046 A 
ATOM     20  C   UNL     1      -1.660  -1.917   4.123  0.00  0.00    +0.004 A 
ATOM     21  C   UNL     1      -0.562  -2.729   3.906  0.00  0.00    +0.000 A 
ATOM     22  C   UNL     1       0.614  -2.191   3.419  0.00  0.00    +0.004 A 
ATOM     23  C   UNL     1       0.696  -0.839   3.148  0.00  0.00    +0.046 A 
ENDBRANCH  17  18
ENDBRANCH   1  17
BRANCH   1  24
ATOM     24  O   UNL     1      -1.113   3.302   1.576  0.00  0.00    -0.414 OA
BRANCH  24  25
ATOM     25  C   UNL     1      -2.071   3.732   2.438  0.00  0.00    +0.131 A 
ATOM     26  C   UNL     1      -3.401   3.760   2.042  0.00  0.00    +0.046 A 
ATOM     27  C   UNL     1      -4.373   4.192   2.922  0.00  0.00    +0.004 A 
ATOM     28  C   UNL     1      -4.022   4.607   4.194  0.00  0.00    +0.000 A 
ATOM     29  C   UNL     1      -2.697   4.585   4.589  0.00  0.00    +0.004 A 
ATOM     30  C   UNL     1      -1.721   4.149   3.714  0.00  0.00    +0.046 A 
ENDBRANCH  24  25
ENDBRANCH   1  24
TORSDOF 7
