REMARK  Name = ZINC63302879
REMARK  12 active torsions:
REMARK  status: ('A' for Active; 'I' for Inactive)
REMARK    1  A    between atoms: C_1  and  O_2
REMARK    2  A    between atoms: O_2  and  C_3
REMARK    3  A    between atoms: C_6  and  C_9
REMARK    4  A    between atoms: C_13  and  C_35
REMARK    5  A    between atoms: N_15  and  C_22
REMARK    6  A    between atoms: C_22  and  C_23
REMARK    7  A    between atoms: C_23  and  C_24
REMARK    8  A    between atoms: C_27  and  O_33
REMARK    9  A    between atoms: O_33  and  C_34
REMARK   10  A    between atoms: C_38  and  O_43
REMARK   11  A    between atoms: C_39  and  O_41
REMARK   12  A    between atoms: O_41  and  C_42
REMARK                            x       y       z     vdW  Elec       q    Type
REMARK                         _______ _______ _______ _____ _____    ______ ____
ROOT
ATOM      1  C   UNL     1       2.587  -2.550   4.310  0.00  0.00    +0.136 C 
ATOM      2  C   UNL     1       3.918  -3.075   3.911  0.00  0.00    +0.077 C 
ATOM      3  C   UNL     1       5.310  -2.570   3.921  0.00  0.00    +0.114 C 
ATOM      4  N   UNL     1       6.083  -3.847   4.054  0.00  0.00    -0.292 N 
ATOM      5  C   UNL     1       5.291  -4.802   4.640  0.00  0.00    +0.243 C 
ATOM      6  O   UNL     1       5.535  -5.986   4.742  0.00  0.00    -0.273 OA
ATOM      7  C   UNL     1       4.072  -4.076   5.144  0.00  0.00    +0.218 C 
ATOM      8  N   UNL     1       2.754  -4.690   5.073  0.00  0.00    -0.203 NA
ATOM      9  N   UNL     1       1.913  -3.841   4.668  0.00  0.00    -0.305 N 
ATOM     10  H   UNL     1       0.959  -4.001   4.597  0.00  0.00    +0.183 HD
ENDROOT
BRANCH   1  14
ATOM     11  C   UNL     1       0.626  -0.618   1.042  0.00  0.00    +0.120 A 
ATOM     12  C   UNL     1       1.202   0.138   2.051  0.00  0.00    +0.046 A 
ATOM     13  C   UNL     1       1.835  -0.488   3.107  0.00  0.00    +0.009 A 
ATOM     14  C   UNL     1       1.895  -1.869   3.158  0.00  0.00    -0.023 A 
ATOM     15  C   UNL     1       1.322  -2.625   2.152  0.00  0.00    +0.009 A 
ATOM     16  C   UNL     1       0.682  -2.003   1.098  0.00  0.00    +0.046 A 
BRANCH  11  18
ATOM     17  C   UNL     1      -0.017   1.425   0.010  0.00  0.00    +0.277 C 
ATOM     18  O   UNL     1       0.002  -0.004   0.002  0.00  0.00    -0.495 OA
ENDBRANCH  11  18
ENDBRANCH   1  14
BRANCH   3  19
ATOM     19  C   UNL     1       5.641  -1.868   2.629  0.00  0.00    -0.023 A 
ATOM     20  C   UNL     1       5.968  -2.606   1.506  0.00  0.00    +0.009 A 
ATOM     21  C   UNL     1       6.272  -1.967   0.319  0.00  0.00    +0.049 A 
ATOM     22  C   UNL     1       6.249  -0.584   0.251  0.00  0.00    +0.158 A 
ATOM     23  C   UNL     1       5.919   0.160   1.381  0.00  0.00    +0.162 A 
ATOM     24  C   UNL     1       5.611  -0.487   2.567  0.00  0.00    +0.055 A 
BRANCH  23  25
ATOM     25  O   UNL     1       5.895   1.518   1.319  0.00  0.00    -0.491 OA
ATOM     26  C   UNL     1       5.548   2.216   2.517  0.00  0.00    +0.277 C 
ENDBRANCH  23  25
BRANCH  22  27
ATOM     27  O   UNL     1       6.548   0.047  -0.916  0.00  0.00    -0.503 OA
ATOM     28  H   UNL     1       5.782   0.204  -1.486  0.00  0.00    +0.292 HD
ENDBRANCH  22  27
ENDBRANCH   3  19
BRANCH   4  29
ATOM     29  C   UNL     1       7.469  -4.046   3.624  0.00  0.00    +0.113 C 
BRANCH  29  30
ATOM     30  C   UNL     1       8.415  -3.699   4.776  0.00  0.00    +0.052 C 
BRANCH  30  31
ATOM     31  C   UNL     1       9.841  -3.904   4.334  0.00  0.00    -0.040 C 
ATOM     32  C   UNL     1      10.683  -2.965   3.845  0.00  0.00    +0.002 A 
ATOM     33  C   UNL     1      10.531  -1.529   3.587  0.00  0.00    +0.055 A 
ATOM     34  C   UNL     1      11.574  -0.828   3.080  0.00  0.00    +0.121 A 
ATOM     35  C   UNL     1      12.810  -1.429   2.788  0.00  0.00    +0.047 A 
ATOM     36  C   UNL     1      13.046  -2.743   2.991  0.00  0.00    +0.029 A 
ATOM     37  C   UNL     1      11.987  -3.597   3.537  0.00  0.00    +0.043 A 
ATOM     38  N   UNL     1      11.952  -4.875   3.824  0.00  0.00    -0.380 N 
ATOM     39  C   UNL     1      10.622  -5.199   4.354  0.00  0.00    +0.144 C 
ATOM     40  H   UNL     1      12.683  -5.501   3.709  0.00  0.00    +0.160 HD
BRANCH  34  41
ATOM     41  O   UNL     1      11.418   0.501   2.846  0.00  0.00    -0.495 OA
ATOM     42  C   UNL     1      12.544   1.201   2.311  0.00  0.00    +0.277 C 
ENDBRANCH  34  41
ENDBRANCH  30  31
ENDBRANCH  29  30
ENDBRANCH   4  29
TORSDOF 9
