REMARK  Name = ZINC06300570
REMARK  12 active torsions:
REMARK  status: ('A' for Active; 'I' for Inactive)
REMARK    1  A    between atoms: C_1  and  C_2
REMARK    2  A    between atoms: C_4  and  C_37
REMARK    3  A    between atoms: C_9  and  C_14
REMARK    4  A    between atoms: C_14  and  N_68
REMARK    5  A    between atoms: C_15  and  C_16
REMARK    6  A    between atoms: C_15  and  N_68
REMARK    7  A    between atoms: N_20  and  C_21
REMARK    8  A    between atoms: C_21  and  C_22
REMARK    9  A    between atoms: C_25  and  O_28
REMARK   10  A    between atoms: O_28  and  C_29
REMARK   11  A    between atoms: C_30  and  C_31
REMARK   12  A    between atoms: C_30  and  N_68
REMARK                            x       y       z     vdW  Elec       q    Type
REMARK                         _______ _______ _______ _____ _____    ______ ____
ROOT
ATOM      1  N   UNL     1      -8.013  -0.976   1.274  0.00  0.00    +0.389 N 
ATOM      2  H   UNL     1      -8.695  -1.524   1.811  0.00  0.00    -0.081 HD
ENDROOT
BRANCH   1   3
ATOM      3  C   UNL     1      -8.566   0.373   1.028  0.00  0.00    -0.037 C 
BRANCH   3  12
ATOM      4  C   UNL     1      -8.063   4.473   7.238  0.00  0.00    +0.044 C 
ATOM      5  C   UNL     1      -8.834   3.545   6.334  0.00  0.00    -0.050 A 
ATOM      6  C   UNL     1     -10.120   3.155   6.684  0.00  0.00    +0.008 A 
ATOM      7  C   UNL     1     -10.843   2.309   5.872  0.00  0.00    -0.026 A 
ATOM      8  C   UNL     1     -10.281   1.839   4.690  0.00  0.00    +0.052 A 
ATOM      9  C   UNL     1      -8.977   2.236   4.338  0.00  0.00    -0.001 A 
ATOM     10  C   UNL     1      -8.261   3.096   5.178  0.00  0.00    +0.013 A 
ATOM     11  C   UNL     1      -8.395   1.736   3.092  0.00  0.00    +0.017 A 
ATOM     12  C   UNL     1      -9.136   0.905   2.318  0.00  0.00    +0.001 A 
ATOM     13  C   UNL     1     -10.441   0.541   2.713  0.00  0.00    +0.251 A 
ATOM     14  O   UNL     1     -11.091  -0.204   2.001  0.00  0.00    -0.268 OA
ATOM     15  N   UNL     1     -10.982   0.990   3.859  0.00  0.00    -0.322 N 
ATOM     16  H   UNL     1     -11.880   0.718   4.103  0.00  0.00    +0.169 HD
ATOM     17  C   UNL     1     -12.237   1.893   6.265  0.00  0.00    +0.046 C 
ENDBRANCH   3  12
ENDBRANCH   1   3
BRANCH   1  18
ATOM     18  C   UNL     1      -6.760  -0.874   2.052  0.00  0.00    +0.001 C 
BRANCH  18  19
ATOM     19  C   UNL     1      -6.337  -2.256   2.477  0.00  0.00    +0.135 A 
ATOM     20  N   UNL     1      -6.688  -2.880   3.575  0.00  0.00    -0.115 NA
ATOM     21  N   UNL     1      -6.121  -4.037   3.575  0.00  0.00    -0.023 NA
ATOM     22  N   UNL     1      -5.422  -4.170   2.502  0.00  0.00    -0.044 NA
ATOM     23  N   UNL     1      -5.525  -3.091   1.802  0.00  0.00    -0.227 N 
BRANCH  23  24
ATOM     24  C   UNL     1      -4.884  -2.827   0.511  0.00  0.00    +0.182 C 
BRANCH  24  25
ATOM     25  C   UNL     1      -3.540  -2.186   0.740  0.00  0.00    -0.026 A 
ATOM     26  C   UNL     1      -2.413  -2.975   0.877  0.00  0.00    +0.009 A 
ATOM     27  C   UNL     1      -1.179  -2.390   1.087  0.00  0.00    +0.046 A 
ATOM     28  C   UNL     1      -1.072  -1.008   1.161  0.00  0.00    +0.120 A 
ATOM     29  C   UNL     1      -2.205  -0.219   1.029  0.00  0.00    +0.046 A 
ATOM     30  C   UNL     1      -3.435  -0.809   0.812  0.00  0.00    +0.009 A 
BRANCH  28  31
ATOM     31  O   UNL     1       0.141  -0.430   1.367  0.00  0.00    -0.495 OA
ATOM     32  C   UNL     1       0.176   0.997   1.432  0.00  0.00    +0.277 C 
ENDBRANCH  28  31
ENDBRANCH  24  25
ENDBRANCH  23  24
ENDBRANCH  18  19
ENDBRANCH   1  18
BRANCH   1  33
ATOM     33  C   UNL     1      -7.755  -1.658  -0.011  0.00  0.00    -0.046 C 
BRANCH  33  34
ATOM     34  C   UNL     1      -9.092  -2.089  -0.616  0.00  0.00    +0.102 C 
ATOM     35  C   UNL     1      -8.860  -2.950  -1.877  0.00  0.00    +0.032 C 
ATOM     36  C   UNL     1      -9.993  -2.523  -2.837  0.00  0.00    +0.030 C 
ATOM     37  C   UNL     1     -10.776  -1.455  -2.042  0.00  0.00    +0.160 C 
ATOM     38  O   UNL     1      -9.826  -0.937  -1.085  0.00  0.00    -0.378 OA
ENDBRANCH  33  34
ENDBRANCH   1  33
TORSDOF 9
