REMARK  Name = ZINC09820006
REMARK  4 active torsions:
REMARK  status: ('A' for Active; 'I' for Inactive)
REMARK    1  A    between atoms: C_1  and  C_2
REMARK    2  A    between atoms: C_3  and  C_11
REMARK    3  A    between atoms: C_7  and  N_8
REMARK    4  A    between atoms: C_21  and  C_23
REMARK                            x       y       z     vdW  Elec       q    Type
REMARK                         _______ _______ _______ _____ _____    ______ ____
ROOT
ATOM      1  C   UNL     1       3.730   2.163   0.082  0.00  0.00    +0.252 C 
ATOM      2  O   UNL     1       2.680   1.555   0.012  0.00  0.00    -0.270 OA
ATOM      3  N   UNL     1       4.892   1.490   0.205  0.00  0.00    -0.255 N 
ATOM      4  C   UNL     1       5.020   0.099   0.161  0.00  0.00    +0.041 A 
ATOM      5  C   UNL     1       4.037  -0.875  -0.025  0.00  0.00    +0.024 A 
ATOM      6  C   UNL     1       4.377  -2.211  -0.044  0.00  0.00    +0.002 A 
ATOM      7  C   UNL     1       5.696  -2.596   0.114  0.00  0.00    +0.000 A 
ATOM      8  C   UNL     1       6.675  -1.637   0.292  0.00  0.00    +0.005 A 
ATOM      9  C   UNL     1       6.340  -0.297   0.312  0.00  0.00    -0.024 A 
ATOM     10  C   UNL     1       7.195   0.937   0.487  0.00  0.00    +0.069 C 
ATOM     11  C   UNL     1       6.204   2.110   0.411  0.00  0.00    +0.171 C 
ENDROOT
BRANCH   1  14
ATOM     12  C   UNL     1       1.872   3.655   1.723  0.00  0.00    +0.047 C 
ATOM     13  C   UNL     1       2.842   4.371   0.819  0.00  0.00    -0.008 A 
ATOM     14  C   UNL     1       3.734   3.640   0.031  0.00  0.00    +0.042 A 
ATOM     15  C   UNL     1       4.629   4.311  -0.804  0.00  0.00    +0.013 A 
ATOM     16  C   UNL     1       4.627   5.690  -0.846  0.00  0.00    +0.003 A 
ATOM     17  C   UNL     1       3.741   6.408  -0.063  0.00  0.00    +0.033 A 
ATOM     18  C   UNL     1       2.851   5.749   0.767  0.00  0.00    +0.130 A 
BRANCH  18  19
ATOM     19  N   UNL     1       1.910   6.525   1.606  0.00  0.00    +0.057 N 
ATOM     20  O   UNL     1       1.997   7.739   1.654  0.00  0.00    -0.126 OA
ATOM     21  O   UNL     1       1.050   5.950   2.248  0.00  0.00    -0.126 OA
ENDBRANCH  18  19
ENDBRANCH   1  14
BRANCH  11  22
ATOM     22  C   UNL     1       6.216   2.892   1.698  0.00  0.00    +0.232 C 
ATOM     23  O   UNL     1       5.222   2.935   2.391  0.00  0.00    -0.274 OA
ATOM     24  N   UNL     1       7.332   3.544   2.080  0.00  0.00    -0.328 N 
ATOM     25  H   UNL     1       8.127   3.510   1.526  0.00  0.00    +0.145 HD
ATOM     26  H   UNL     1       7.340   4.048   2.909  0.00  0.00    +0.145 HD
ENDBRANCH  11  22
TORSDOF 3
