REMARK  Name = ZINC23656236
REMARK  0 active torsions:
REMARK  status: ('A' for Active; 'I' for Inactive)
REMARK                            x       y       z     vdW  Elec       q    Type
REMARK                         _______ _______ _______ _____ _____    ______ ____
ROOT
ATOM      1  C   UNL     1      -0.017   1.412   0.010  0.00  0.00    +0.002 C 
ATOM      2  C   UNL     1       1.048   2.256   0.004  0.00  0.00    +0.013 C 
ATOM      3  C   UNL     1       2.466   1.854  -0.012  0.00  0.00    +0.033 C 
ATOM      4  C   UNL     1       3.340   2.919  -0.014  0.00  0.00    +0.123 C 
ATOM      5  N   UNL     1       4.664   2.681  -0.028  0.00  0.00    -0.247 NA
ATOM      6  C   UNL     1       5.163   1.483  -0.039  0.00  0.00    +0.187 C 
ATOM      7  N   UNL     1       4.378   0.353  -0.038  0.00  0.00    -0.290 N 
ATOM      8  C   UNL     1       3.014   0.494  -0.024  0.00  0.00    +0.132 C 
ATOM      9  N   UNL     1       2.363  -0.657  -0.025  0.00  0.00    -0.240 NA
ATOM     10  C   UNL     1       1.038  -0.872  -0.013  0.00  0.00    +0.113 C 
ATOM     11  C   UNL     1       0.002  -0.004   0.002  0.00  0.00    +0.020 C 
ATOM     12  H   UNL     1       4.783  -0.528  -0.046  0.00  0.00    +0.154 HD
ENDROOT
TORSDOF 0
