REMARK  Name = ZINC06445432
REMARK  2 active torsions:
REMARK  status: ('A' for Active; 'I' for Inactive)
REMARK    1  A    between atoms: C_6  and  N_7
REMARK    2  A    between atoms: C_8  and  C_14
REMARK                            x       y       z     vdW  Elec       q    Type
REMARK                         _______ _______ _______ _____ _____    ______ ____
ROOT
ATOM      1  N   UNL     1      -1.124   2.520  -0.077  0.00  0.00    -0.275 N 
ATOM      2  C   UNL     1      -0.605   3.703  -0.547  0.00  0.00    +0.143 A 
ATOM      3  N   UNL     1       0.659   3.744  -0.271  0.00  0.00    -0.158 NA
ATOM      4  N   UNL     1       0.996   2.563   0.405  0.00  0.00    -0.254 N 
ATOM      5  H   UNL     1       1.875   2.320   0.735  0.00  0.00    +0.191 HD
ATOM      6  C   UNL     1      -0.130   1.826   0.513  0.00  0.00    +0.180 A 
ATOM      7  S   UNL     1      -0.269   0.290   1.256  0.00  0.00    -0.011 S 
ENDROOT
BRANCH   2   8
ATOM      8  C   UNL     1      -1.379   4.775  -1.271  0.00  0.00    +0.032 C 
ATOM      9  C   UNL     1      -2.517   5.274  -0.377  0.00  0.00    +0.018 C 
ATOM     10  C   UNL     1      -3.303   6.362  -1.112  0.00  0.00    -0.010 C 
ATOM     11  C   UNL     1      -2.369   7.526  -1.448  0.00  0.00    +0.007 C 
ATOM     12  C   UNL     1      -1.232   7.027  -2.341  0.00  0.00    -0.010 C 
ATOM     13  C   UNL     1      -0.446   5.940  -1.607  0.00  0.00    +0.018 C 
ATOM     14  C   UNL     1      -1.814   6.452  -3.634  0.00  0.00    +0.007 C 
ATOM     15  C   UNL     1      -2.747   5.287  -3.298  0.00  0.00    -0.010 C 
ATOM     16  C   UNL     1      -3.885   5.785  -2.404  0.00  0.00    +0.007 C 
ATOM     17  C   UNL     1      -1.961   4.199  -2.563  0.00  0.00    +0.018 C 
ENDBRANCH   2   8
BRANCH   1  23
ATOM     18  C   UNL     1      -3.370   2.421   0.808  0.00  0.00    +0.030 A 
ATOM     19  C   UNL     1      -4.687   2.015   0.698  0.00  0.00    +0.051 A 
ATOM     20  C   UNL     1      -5.101   1.292  -0.409  0.00  0.00    +0.166 A 
ATOM     21  C   UNL     1      -4.188   0.975  -1.413  0.00  0.00    +0.168 A 
ATOM     22  C   UNL     1      -2.871   1.388  -1.305  0.00  0.00    +0.075 A 
ATOM     23  C   UNL     1      -2.459   2.107  -0.191  0.00  0.00    +0.054 A 
ATOM     24  O   UNL     1      -4.837   0.267  -2.384  0.00  0.00    -0.453 OA
ATOM     25  C   UNL     1      -6.054  -0.198  -1.772  0.00  0.00    +0.466 C 
ATOM     26  O   UNL     1      -6.321   0.782  -0.752  0.00  0.00    -0.453 OA
ENDBRANCH   1  23
TORSDOF 2
