REMARK  Name = ZINC13978859
REMARK  13 active torsions:
REMARK  status: ('A' for Active; 'I' for Inactive)
REMARK    1  A    between atoms: C_1  and  C_2
REMARK    2  A    between atoms: C_2  and  C_3
REMARK    3  A    between atoms: C_6  and  O_10
REMARK    4  A    between atoms: O_10  and  C_11
REMARK    5  A    between atoms: C_11  and  C_12
REMARK    6  A    between atoms: N_14  and  N_15
REMARK    7  A    between atoms: N_15  and  C_16
REMARK    8  A    between atoms: C_16  and  N_18
REMARK    9  A    between atoms: C_19  and  C_21
REMARK   10  A    between atoms: C_21  and  O_22
REMARK   11  A    between atoms: O_22  and  C_23
REMARK   12  A    between atoms: C_26  and  O_29
REMARK   13  A    between atoms: O_29  and  C_30
REMARK                            x       y       z     vdW  Elec       q    Type
REMARK                         _______ _______ _______ _____ _____    ______ ____
ROOT
ATOM      1  N   UNL     1       5.213  -2.708  -0.065  0.00  0.00    -0.245 N 
ATOM      2  H   UNL     1       5.973  -2.106  -0.069  0.00  0.00    +0.172 HD
ENDROOT
BRANCH   1   5
ATOM      3  C   UNL     1       3.714  -0.859  -0.040  0.00  0.00    +0.267 C 
ATOM      4  O   UNL     1       4.664  -0.105  -0.044  0.00  0.00    -0.271 OA
ATOM      5  N   UNL     1       3.910  -2.192  -0.049  0.00  0.00    -0.232 N 
ATOM      6  H   UNL     1       3.150  -2.794  -0.045  0.00  0.00    +0.173 HD
BRANCH   3   7
ATOM      7  C   UNL     1       2.313  -0.304  -0.023  0.00  0.00    +0.326 C 
BRANCH   7   8
ATOM      8  O   UNL     1       2.366   1.124  -0.015  0.00  0.00    -0.482 OA
BRANCH   8  12
ATOM      9  C   UNL     1      -1.238   3.133   0.030  0.00  0.00    -0.046 A 
ATOM     10  C   UNL     1      -1.218   1.751   0.017  0.00  0.00    +0.007 A 
ATOM     11  C   UNL     1      -0.013   1.076   0.008  0.00  0.00    +0.047 A 
ATOM     12  C   UNL     1       1.179   1.786   0.000  0.00  0.00    +0.135 A 
ATOM     13  C   UNL     1       1.157   3.174   0.008  0.00  0.00    +0.060 A 
ATOM     14  C   UNL     1      -0.052   3.844   0.023  0.00  0.00    +0.022 A 
ATOM     15 BR   UNL     1       2.778   4.147  -0.003  0.00  0.00    -0.047 Br
BRANCH   9  17
ATOM     16  C   UNL     1      -3.013   4.122  -1.391  0.00  0.00    +0.009 C 
ATOM     17  C   UNL     1      -2.554   3.866   0.046  0.00  0.00    +0.032 C 
ENDBRANCH   9  17
ENDBRANCH   8  12
ENDBRANCH   7   8
ENDBRANCH   3   7
ENDBRANCH   1   5
BRANCH   1  18
ATOM     18  C   UNL     1       5.409  -4.041  -0.074  0.00  0.00    +0.153 C 
ATOM     19  S   UNL     1       7.001  -4.672  -0.093  0.00  0.00    -0.017 S 
BRANCH  18  20
ATOM     20  N   UNL     1       4.353  -4.878  -0.069  0.00  0.00    -0.264 N 
ATOM     21  C   UNL     1       4.549  -6.212  -0.078  0.00  0.00    +0.256 C 
ATOM     22  O   UNL     1       5.676  -6.658  -0.092  0.00  0.00    -0.272 OA
ATOM     23  H   UNL     1       3.451  -4.521  -0.058  0.00  0.00    +0.157 HD
BRANCH  21  24
ATOM     24  C   UNL     1       3.368  -7.147  -0.072  0.00  0.00    +0.324 C 
BRANCH  24  25
ATOM     25  O   UNL     1       3.831  -8.499  -0.085  0.00  0.00    -0.483 OA
BRANCH  25  26
ATOM     26  C   UNL     1       2.885  -9.476  -0.081  0.00  0.00    +0.121 A 
ATOM     27  C   UNL     1       1.540  -9.139  -0.060  0.00  0.00    +0.049 A 
ATOM     28  C   UNL     1       0.579 -10.131  -0.061  0.00  0.00    +0.049 A 
ATOM     29  C   UNL     1       0.960 -11.464  -0.073  0.00  0.00    +0.120 A 
ATOM     30  C   UNL     1       2.305 -11.802  -0.088  0.00  0.00    +0.049 A 
ATOM     31  C   UNL     1       3.266 -10.810  -0.092  0.00  0.00    +0.049 A 
BRANCH  29  32
ATOM     32  O   UNL     1       0.014 -12.441  -0.069  0.00  0.00    -0.495 OA
ATOM     33  C   UNL     1      -1.352 -12.022  -0.052  0.00  0.00    +0.277 C 
ENDBRANCH  29  32
ENDBRANCH  25  26
ENDBRANCH  24  25
ENDBRANCH  21  24
ENDBRANCH  18  20
ENDBRANCH   1  18
TORSDOF 11
