REMARK  Name = ZINC14463350
REMARK  9 active torsions:
REMARK  status: ('A' for Active; 'I' for Inactive)
REMARK    1  A    between atoms: C_1  and  C_2
REMARK    2  A    between atoms: C_2  and  C_3
REMARK    3  A    between atoms: C_3  and  C_4
REMARK    4  A    between atoms: C_4  and  N_5
REMARK    5  A    between atoms: C_6  and  C_8
REMARK    6  A    between atoms: C_15  and  C_24
REMARK    7  A    between atoms: C_27  and  C_30
REMARK    8  A    between atoms: C_30  and  C_31
REMARK    9  A    between atoms: C_30  and  C_32
REMARK                            x       y       z     vdW  Elec       q    Type
REMARK                         _______ _______ _______ _____ _____    ______ ____
ROOT
ATOM      1  C   UNL     1       3.758   6.636   2.046  0.00  0.00    +0.058 A 
ATOM      2  C   UNL     1       4.880   7.466   2.078  0.00  0.00    +0.015 A 
ATOM      3  C   UNL     1       5.732   7.501   0.996  0.00  0.00    +0.001 A 
ATOM      4  C   UNL     1       5.479   6.718  -0.116  0.00  0.00    +0.006 A 
ATOM      5  C   UNL     1       4.370   5.886  -0.167  0.00  0.00    -0.019 A 
ATOM      6  C   UNL     1       3.502   5.842   0.911  0.00  0.00    +0.044 A 
ATOM      7  N   UNL     1       2.375   5.036   0.922  0.00  0.00    -0.336 N 
ATOM      8  C   UNL     1       2.516   3.870   0.050  0.00  0.00    +0.105 C 
ATOM      9  C   UNL     1       2.804   4.335  -1.379  0.00  0.00    +0.029 C 
ATOM     10  C   UNL     1       4.166   5.061  -1.403  0.00  0.00    +0.049 C 
ATOM     11  C   UNL     1       5.179   3.941  -1.469  0.00  0.00    -0.023 C 
ATOM     12  C   UNL     1       4.623   2.845  -1.919  0.00  0.00    -0.030 C 
ATOM     13  C   UNL     1       3.157   3.080  -2.226  0.00  0.00    +0.033 C 
ATOM     14  H   UNL     1       2.138   4.758   1.863  0.00  0.00    +0.147 HD
ENDROOT
BRANCH   8  15
ATOM     15  C   UNL     1       1.240   3.069   0.071  0.00  0.00    -0.027 A 
ATOM     16  C   UNL     1       1.290   1.688   0.088  0.00  0.00    +0.006 A 
ATOM     17  C   UNL     1       0.119   0.953   0.108  0.00  0.00    +0.004 A 
ATOM     18  C   UNL     1      -1.102   1.600   0.104  0.00  0.00    -0.045 A 
ATOM     19  C   UNL     1      -1.153   2.982   0.091  0.00  0.00    +0.004 A 
ATOM     20  C   UNL     1       0.018   3.716   0.072  0.00  0.00    +0.006 A 
BRANCH  18  21
ATOM     21  C   UNL     1      -2.379   0.799   0.120  0.00  0.00    +0.013 C 
ATOM     22  C   UNL     1      -3.189   1.156   1.367  0.00  0.00    +0.012 C 
ATOM     23  C   UNL     1      -3.199   1.123  -1.131  0.00  0.00    +0.012 C 
ENDBRANCH  18  21
ENDBRANCH   8  15
BRANCH   1  25
ATOM     24  N   UNL     1       3.153   7.247   4.334  0.00  0.00    -0.311 N 
ATOM     25  C   UNL     1       2.840   6.592   3.199  0.00  0.00    +0.246 C 
ATOM     26  O   UNL     1       1.801   5.965   3.125  0.00  0.00    -0.270 OA
ATOM     27  H   UNL     1       3.982   7.747   4.393  0.00  0.00    +0.149 HD
BRANCH  24  28
ATOM     28  C   UNL     1       2.241   7.203   5.480  0.00  0.00    +0.104 C 
BRANCH  28  29
ATOM     29  C   UNL     1       2.829   8.022   6.631  0.00  0.00    +0.018 C 
BRANCH  29  31
ATOM     30  C   UNL     1       2.464   8.795   8.979  0.00  0.00    +0.004 C 
ATOM     31  C   UNL     1       1.877   7.976   7.828  0.00  0.00    -0.002 C 
ENDBRANCH  29  31
ENDBRANCH  28  29
ENDBRANCH  24  28
ENDBRANCH   1  25
TORSDOF 6
