REMARK  Name = ZINC22140505
REMARK  5 active torsions:
REMARK  status: ('A' for Active; 'I' for Inactive)
REMARK    1  A    between atoms: C_1  and  N_2
REMARK    2  A    between atoms: C_3  and  S_7
REMARK    3  A    between atoms: S_7  and  C_8
REMARK    4  A    between atoms: C_8  and  C_9
REMARK    5  A    between atoms: C_15  and  C_20
REMARK                            x       y       z     vdW  Elec       q    Type
REMARK                         _______ _______ _______ _____ _____    ______ ____
ROOT
ATOM      1  C   UNL     1       0.000  -1.596  -5.167  0.00  0.00    +0.121 A 
ATOM      2  N   UNL     1       0.005  -2.630  -6.048  0.00  0.00    -0.310 N 
ATOM      3  H   UNL     1       0.015  -3.540  -5.713  0.00  0.00    +0.170 HD
ATOM      4  C   UNL     1      -0.004  -2.416  -7.377  0.00  0.00    +0.260 A 
ATOM      5  O   UNL     1      -0.000  -3.355  -8.154  0.00  0.00    -0.267 OA
ATOM      6  C   UNL     1      -0.019  -1.070  -7.863  0.00  0.00    +0.080 A 
ATOM      7  C   UNL     1      -0.032  -0.585  -9.238  0.00  0.00    +0.004 A 
ATOM      8  C   UNL     1      -0.046   0.752  -9.458  0.00  0.00    +0.056 A 
ATOM      9  S   UNL     1      -0.043   1.440  -7.814  0.00  0.00    -0.076 S 
ATOM     10  C   UNL     1      -0.023  -0.068  -6.879  0.00  0.00    +0.116 A 
ATOM     11  N   UNL     1      -0.019  -0.357  -5.580  0.00  0.00    -0.226 NA
ENDROOT
BRANCH   7  12
ATOM     12  C   UNL     1      -0.029  -1.537 -10.374  0.00  0.00    -0.017 A 
ATOM     13  C   UNL     1       0.901  -2.575 -10.415  0.00  0.00    +0.009 A 
ATOM     14  C   UNL     1       0.899  -3.459 -11.474  0.00  0.00    +0.016 A 
ATOM     15  C   UNL     1      -0.024  -3.317 -12.496  0.00  0.00    +0.018 A 
ATOM     16  C   UNL     1      -0.949  -2.288 -12.461  0.00  0.00    +0.016 A 
ATOM     17  C   UNL     1      -0.960  -1.402 -11.403  0.00  0.00    +0.009 A 
ATOM     18 BR   UNL     1      -0.021  -4.532 -13.945  0.00  0.00    -0.050 Br
ENDBRANCH   7  12
BRANCH   1  19
ATOM     19  C   UNL     1       0.011  -1.884  -3.688  0.00  0.00    +0.151 C 
BRANCH  19  20
ATOM     20  S   UNL     1      -0.006  -0.321  -2.768  0.00  0.00    -0.077 S 
BRANCH  20  23
ATOM     21  C   UNL     1      -0.018   1.461   0.010  0.00  0.00    +0.177 C 
ATOM     22  N   UNL     1       0.002  -0.004   0.002  0.00  0.00    -0.223 N 
ATOM     23  C   UNL     1       0.008  -0.820  -1.078  0.00  0.00    +0.209 A 
ATOM     24  N   UNL     1       0.027  -2.056  -0.629  0.00  0.00    -0.102 NA
ATOM     25  N   UNL     1       0.033  -2.068   0.655  0.00  0.00    -0.022 NA
ATOM     26  N   UNL     1       0.025  -0.864   1.114  0.00  0.00    -0.043 NA
ENDBRANCH  20  23
ENDBRANCH  19  20
ENDBRANCH   1  19
TORSDOF 4
