REMARK  Name = ZINC38649815
REMARK  13 active torsions:
REMARK  status: ('A' for Active; 'I' for Inactive)
REMARK    1  A    between atoms: C_1  and  C_2
REMARK    2  A    between atoms: C_4  and  O_9
REMARK    3  A    between atoms: O_9  and  C_10
REMARK    4  A    between atoms: C_10  and  C_11
REMARK    5  A    between atoms: C_11  and  O_13
REMARK    6  A    between atoms: O_13  and  C_14
REMARK    7  A    between atoms: C_21  and  N_37
REMARK    8  A    between atoms: C_22  and  C_35
REMARK    9  A    between atoms: C_23  and  C_25
REMARK   10  A    between atoms: C_28  and  C_31
REMARK   11  A    between atoms: C_31  and  C_32
REMARK   12  A    between atoms: C_31  and  C_33
REMARK   13  A    between atoms: C_31  and  C_34
REMARK                            x       y       z     vdW  Elec       q    Type
REMARK                         _______ _______ _______ _____ _____    ______ ____
ROOT
ATOM      1  C   UNL     1       0.033  -6.638  -5.131  0.00  0.00    +0.135 A 
ATOM      2  C   UNL     1       0.059  -5.833  -6.261  0.00  0.00    +0.047 A 
ATOM      3  C   UNL     1       0.026  -6.405  -7.518  0.00  0.00    +0.012 A 
ATOM      4  C   UNL     1      -0.034  -7.781  -7.656  0.00  0.00    +0.008 A 
ATOM      5  C   UNL     1      -0.060  -8.590  -6.531  0.00  0.00    +0.138 A 
ATOM      6  C   UNL     1      -0.021  -8.016  -5.266  0.00  0.00    +0.093 A 
ATOM      7  O   UNL     1      -0.118  -9.939  -6.646  0.00  0.00    -0.441 OA
ATOM      8  C   UNL     1      -0.533 -10.497  -7.796  0.00  0.00    +0.199 C 
ATOM      9  C   UNL     1      -0.534  -9.812  -8.964  0.00  0.00    +0.098 C 
ATOM     10  C   UNL     1      -0.069  -8.385  -9.034  0.00  0.00    +0.098 C 
ENDROOT
BRANCH  10  11
ATOM     11  C   UNL     1       1.313  -8.340  -9.635  0.00  0.00    -0.035 A 
ATOM     12  C   UNL     1       2.359  -8.995  -9.012  0.00  0.00    +0.005 A 
ATOM     13  C   UNL     1       3.626  -8.954  -9.563  0.00  0.00    +0.004 A 
ATOM     14  C   UNL     1       3.847  -8.257 -10.736  0.00  0.00    -0.042 A 
ATOM     15  C   UNL     1       2.801  -7.602 -11.359  0.00  0.00    +0.004 A 
ATOM     16  C   UNL     1       1.533  -7.647 -10.811  0.00  0.00    +0.005 A 
BRANCH  14  17
ATOM     17  C   UNL     1       5.229  -8.211 -11.336  0.00  0.00    -0.013 C 
ATOM     18  C   UNL     1       5.693  -9.633 -11.658  0.00  0.00    +0.015 C 
ATOM     19  C   UNL     1       5.199  -7.381 -12.622  0.00  0.00    +0.015 C 
ATOM     20  C   UNL     1       6.197  -7.571 -10.339  0.00  0.00    +0.015 C 
ENDBRANCH  14  17
ENDBRANCH  10  11
BRANCH   8  21
ATOM     21  N   UNL     1      -0.967 -11.799  -7.786  0.00  0.00    -0.328 N 
ATOM     22  H   UNL     1      -0.972 -12.302  -6.957  0.00  0.00    +0.145 HD
ATOM     23  H   UNL     1      -1.270 -12.215  -8.609  0.00  0.00    +0.145 HD
ENDBRANCH   8  21
BRANCH   9  24
ATOM     24  C   UNL     1      -0.989 -10.461 -10.157  0.00  0.00    +0.101 C 
ATOM     25  N   UNL     1      -1.349 -10.976 -11.103  0.00  0.00    -0.191 NA
ENDBRANCH   9  24
BRANCH   1  26
ATOM     26  O   UNL     1       0.065  -6.077  -3.894  0.00  0.00    -0.423 OA
BRANCH  26  27
ATOM     27  C   UNL     1      -1.065  -5.528  -3.421  0.00  0.00    +0.350 C 
ATOM     28  O   UNL     1      -2.046  -5.464  -4.124  0.00  0.00    -0.247 OA
BRANCH  27  29
ATOM     29  C   UNL     1      -1.111  -4.993  -2.013  0.00  0.00    +0.349 C 
BRANCH  29  30
ATOM     30  O   UNL     1      -2.412  -4.464  -1.747  0.00  0.00    -0.481 OA
BRANCH  30  34
ATOM     31  C   UNL     1      -5.422  -2.298   1.427  0.00  0.00    +0.045 C 
ATOM     32  C   UNL     1      -4.075  -2.874   1.071  0.00  0.00    -0.029 A 
ATOM     33  C   UNL     1      -3.863  -3.408  -0.185  0.00  0.00    +0.050 A 
ATOM     34  C   UNL     1      -2.623  -3.938  -0.511  0.00  0.00    +0.122 A 
ATOM     35  C   UNL     1      -1.599  -3.931   0.425  0.00  0.00    +0.047 A 
ATOM     36  C   UNL     1      -1.816  -3.396   1.680  0.00  0.00    +0.024 A 
ATOM     37  C   UNL     1      -3.051  -2.862   2.002  0.00  0.00    +0.044 A 
ATOM     38 CL   UNL     1      -3.319  -2.184   3.577  0.00  0.00    -0.083 Cl
ENDBRANCH  30  34
ENDBRANCH  29  30
ENDBRANCH  27  29
ENDBRANCH  26  27
ENDBRANCH   1  26
TORSDOF 9
