REMARK  Name = ZINC09666395
REMARK  8 active torsions:
REMARK  status: ('A' for Active; 'I' for Inactive)
REMARK    1  A    between atoms: C_1  and  C_2
REMARK    2  A    between atoms: C_2  and  C_3
REMARK    3  A    between atoms: C_3  and  C_4
REMARK    4  A    between atoms: C_4  and  C_5
REMARK    5  A    between atoms: C_5  and  N_6
REMARK    6  A    between atoms: C_16  and  S_17
REMARK    7  A    between atoms: S_17  and  C_18
REMARK    8  A    between atoms: C_18  and  C_19
REMARK                            x       y       z     vdW  Elec       q    Type
REMARK                         _______ _______ _______ _____ _____    ______ ____
ROOT
ATOM      1  N   UNL     1      -2.828  -4.058   0.007  0.00  0.00    -0.287 N 
ATOM      2  C   UNL     1      -2.825  -4.722  -1.171  0.00  0.00    +0.262 A 
ATOM      3  O   UNL     1      -2.838  -4.125  -2.232  0.00  0.00    -0.267 OA
ATOM      4  C   UNL     1      -2.804  -6.190  -1.124  0.00  0.00    +0.065 A 
ATOM      5  C   UNL     1      -2.798  -6.963  -2.285  0.00  0.00    +0.017 A 
ATOM      6  C   UNL     1      -2.779  -8.327  -2.190  0.00  0.00    +0.021 A 
ATOM      7  C   UNL     1      -2.764  -8.952  -0.948  0.00  0.00    +0.043 A 
ATOM      8  C   UNL     1      -2.769  -8.213   0.214  0.00  0.00    +0.048 A 
ATOM      9  C   UNL     1      -2.789  -6.817   0.143  0.00  0.00    +0.080 A 
ATOM     10  N   UNL     1      -2.794  -6.050   1.258  0.00  0.00    -0.223 NA
ATOM     11  C   UNL     1      -2.808  -4.741   1.189  0.00  0.00    +0.173 A 
ATOM     12 CL   UNL     1      -2.740 -10.686  -0.861  0.00  0.00    -0.083 Cl
ENDROOT
BRANCH   1  13
ATOM     13  C   UNL     1      -2.848  -2.593   0.015  0.00  0.00    +0.127 C 
BRANCH  13  14
ATOM     14  C   UNL     1      -1.413  -2.063   0.004  0.00  0.00    +0.022 C 
BRANCH  14  15
ATOM     15  C   UNL     1      -1.433  -0.534   0.013  0.00  0.00    +0.001 C 
BRANCH  15  17
ATOM     16  C   UNL     1      -0.019   1.526   0.010  0.00  0.00    +0.004 C 
ATOM     17  C   UNL     1       0.002  -0.004   0.002  0.00  0.00    -0.003 C 
ENDBRANCH  15  17
ENDBRANCH  14  15
ENDBRANCH  13  14
ENDBRANCH   1  13
BRANCH  11  18
ATOM     18  S   UNL     1      -2.806  -3.821   2.692  0.00  0.00    -0.080 S 
BRANCH  18  19
ATOM     19  C   UNL     1      -2.776  -5.093   3.985  0.00  0.00    +0.151 C 
BRANCH  19  20
ATOM     20  C   UNL     1      -2.772  -4.432   5.340  0.00  0.00    +0.121 A 
ATOM     21  N   UNL     1      -2.746  -5.223   6.444  0.00  0.00    -0.309 N 
ATOM     22  H   UNL     1      -2.729  -6.188   6.355  0.00  0.00    +0.170 HD
ATOM     23  C   UNL     1      -2.742  -4.649   7.672  0.00  0.00    +0.266 A 
ATOM     24  O   UNL     1      -2.718  -5.331   8.683  0.00  0.00    -0.267 OA
ATOM     25  C   UNL     1      -2.765  -3.256   7.747  0.00  0.00    +0.102 A 
ATOM     26  C   UNL     1      -2.793  -2.461   6.588  0.00  0.00    +0.085 A 
ATOM     27  N   UNL     1      -2.789  -3.138   5.393  0.00  0.00    -0.232 NA
ATOM     28  C   UNL     1      -2.815  -1.076   6.806  0.00  0.00    +0.036 A 
ATOM     29  C   UNL     1      -2.809  -0.587   8.065  0.00  0.00    +0.048 A 
ATOM     30  S   UNL     1      -2.772  -2.067   9.062  0.00  0.00    -0.090 S 
ENDBRANCH  19  20
ENDBRANCH  18  19
ENDBRANCH  11  18
TORSDOF 7
