REMARK  Name = ZINC39880024
REMARK  11 active torsions:
REMARK  status: ('A' for Active; 'I' for Inactive)
REMARK    1  A    between atoms: C_1  and  C_2
REMARK    2  A    between atoms: C_2  and  O_3
REMARK    3  A    between atoms: O_3  and  C_4
REMARK    4  A    between atoms: C_7  and  C_13
REMARK    5  A    between atoms: C_9  and  O_10
REMARK    6  A    between atoms: O_10  and  C_11
REMARK    7  A    between atoms: C_11  and  C_12
REMARK    8  A    between atoms: C_20  and  C_38
REMARK    9  A    between atoms: N_28  and  C_29
REMARK   10  A    between atoms: C_32  and  O_36
REMARK   11  A    between atoms: O_36  and  C_37
REMARK                            x       y       z     vdW  Elec       q    Type
REMARK                         _______ _______ _______ _____ _____    ______ ____
ROOT
ATOM      1  C   UNL     1      -1.996  -6.097  -0.011  0.00  0.00    +0.150 C 
ATOM      2  C   UNL     1      -1.762  -6.637  -1.383  0.00  0.00    +0.072 A 
ATOM      3  C   UNL     1      -2.455  -6.388  -2.651  0.00  0.00    +0.199 A 
ATOM      4  O   UNL     1      -3.286  -5.508  -2.796  0.00  0.00    -0.287 OA
ATOM      5  C   UNL     1      -2.047  -7.309  -3.743  0.00  0.00    +0.065 A 
ATOM      6  C   UNL     1      -2.751  -7.333  -4.946  0.00  0.00    +0.018 A 
ATOM      7  C   UNL     1      -2.366  -8.190  -5.939  0.00  0.00    -0.050 A 
ATOM      8  C   UNL     1      -1.281  -9.034  -5.752  0.00  0.00    +0.007 A 
ATOM      9  C   UNL     1      -0.573  -9.022  -4.571  0.00  0.00    +0.047 A 
ATOM     10  C   UNL     1      -0.944  -8.155  -3.543  0.00  0.00    +0.139 A 
ATOM     11  O   UNL     1      -0.229  -8.153  -2.395  0.00  0.00    -0.450 OA
ATOM     12  C   UNL     1      -0.703  -7.498  -1.317  0.00  0.00    +0.199 A 
ATOM     13  C   UNL     1      -0.233  -7.545   0.078  0.00  0.00    +0.287 C 
ATOM     14  O   UNL     1       0.695  -8.220   0.478  0.00  0.00    -0.266 OA
ATOM     15  N   UNL     1      -0.983  -6.729   0.849  0.00  0.00    -0.253 N 
ATOM     16  C   UNL     1      -3.124  -8.219  -7.242  0.00  0.00    +0.044 C 
ENDROOT
BRANCH  15  17
ATOM     17  C   UNL     1      -0.826  -6.520   2.224  0.00  0.00    +0.039 A 
ATOM     18  C   UNL     1      -1.676  -5.652   2.897  0.00  0.00    +0.027 A 
ATOM     19  C   UNL     1      -1.520  -5.446   4.253  0.00  0.00    +0.049 A 
ATOM     20  C   UNL     1      -0.515  -6.106   4.945  0.00  0.00    +0.138 A 
ATOM     21  C   UNL     1       0.336  -6.973   4.274  0.00  0.00    +0.084 A 
ATOM     22  C   UNL     1       0.177  -7.185   2.917  0.00  0.00    +0.047 A 
ATOM     23 CL   UNL     1       1.593  -7.799   5.140  0.00  0.00    -0.080 Cl
BRANCH  20  24
ATOM     24  O   UNL     1      -0.362  -5.902   6.281  0.00  0.00    -0.494 OA
ATOM     25  C   UNL     1      -1.273  -4.995   6.907  0.00  0.00    +0.277 C 
ENDBRANCH  20  24
ENDBRANCH  15  17
BRANCH   1  29
ATOM     26  C   UNL     1      -1.498  -1.849   0.006  0.00  0.00    +0.162 A 
ATOM     27  C   UNL     1      -0.389  -2.680  -0.003  0.00  0.00    +0.050 A 
ATOM     28  C   UNL     1      -0.553  -4.052  -0.008  0.00  0.00    +0.009 A 
ATOM     29  C   UNL     1      -1.823  -4.600  -0.005  0.00  0.00    -0.018 A 
ATOM     30  C   UNL     1      -2.934  -3.777   0.004  0.00  0.00    +0.055 A 
ATOM     31  C   UNL     1      -2.776  -2.400   0.016  0.00  0.00    +0.162 A 
BRANCH  26  32
ATOM     32  O   UNL     1      -1.339  -0.499   0.012  0.00  0.00    -0.489 OA
BRANCH  32  34
ATOM     33  C   UNL     1      -0.019   1.526   0.010  0.00  0.00    +0.048 C 
ATOM     34  C   UNL     1       0.002  -0.004   0.002  0.00  0.00    +0.226 C 
ENDBRANCH  32  34
ENDBRANCH  26  32
BRANCH  31  35
ATOM     35  O   UNL     1      -3.868  -1.589   0.030  0.00  0.00    -0.489 OA
BRANCH  35  36
ATOM     36  C   UNL     1      -5.148  -2.225   0.039  0.00  0.00    +0.226 C 
ATOM     37  C   UNL     1      -6.246  -1.159   0.055  0.00  0.00    +0.048 C 
ENDBRANCH  35  36
ENDBRANCH  31  35
ENDBRANCH   1  29
TORSDOF 7
