REMARK  Name = ZINC39631456
REMARK  12 active torsions:
REMARK  status: ('A' for Active; 'I' for Inactive)
REMARK    1  A    between atoms: C_1  and  C_2
REMARK    2  A    between atoms: C_2  and  C_4
REMARK    3  A    between atoms: C_2  and  N_11
REMARK    4  A    between atoms: C_4  and  C_5
REMARK    5  A    between atoms: C_5  and  C_6
REMARK    6  A    between atoms: C_6  and  C_7
REMARK    7  A    between atoms: C_7  and  C_8
REMARK    8  A    between atoms: C_7  and  C_9
REMARK    9  A    between atoms: C_7  and  O_10
REMARK   10  A    between atoms: C_12  and  C_14
REMARK   11  A    between atoms: C_25  and  C_27
REMARK   12  A    between atoms: C_29  and  C_34
REMARK                            x       y       z     vdW  Elec       q    Type
REMARK                         _______ _______ _______ _____ _____    ______ ____
ROOT
ATOM      1  C   UNL     1       0.559  -0.476  -3.540  0.00  0.00    +0.100 C 
ATOM      2  C   UNL     1       1.777   0.301  -4.088  0.00  0.00    +0.121 C 
ATOM      3  N   UNL     1       1.669   0.175  -5.561  0.00  0.00    -0.296 N 
ATOM      4  C   UNL     1       0.218   0.301  -5.837  0.00  0.00    +0.115 C 
ATOM      5  C   UNL     1      -0.462  -0.473  -4.690  0.00  0.00    -0.004 C 
ATOM      6  C   UNL     1      -1.741   0.238  -4.260  0.00  0.00    -0.010 C 
ATOM      7  C   UNL     1      -2.762   0.177  -5.399  0.00  0.00    -0.082 C 
ATOM      8  N   UNL     1      -3.046  -1.225  -5.730  0.00  0.00    +0.379 N 
ATOM      9  C   UNL     1      -1.830  -1.877  -6.232  0.00  0.00    -0.082 C 
ATOM     10  C   UNL     1      -0.769  -1.902  -5.128  0.00  0.00    -0.010 C 
ATOM     11  C   UNL     1       2.666  -0.012  -6.449  0.00  0.00    +0.247 C 
ATOM     12  O   UNL     1       3.800  -0.207  -6.057  0.00  0.00    -0.270 OA
ATOM     13  H   UNL     1      -3.367  -1.706  -4.903  0.00  0.00    -0.086 HD
ATOM     14  H   UNL     1      -3.763  -1.264  -6.439  0.00  0.00    -0.086 HD
ENDROOT
BRANCH  11  15
ATOM     15  C   UNL     1       2.380   0.020  -7.899  0.00  0.00    +0.040 A 
ATOM     16  C   UNL     1       3.248  -0.601  -8.799  0.00  0.00    +0.025 A 
ATOM     17  C   UNL     1       2.976  -0.568 -10.150  0.00  0.00    +0.058 A 
ATOM     18  C   UNL     1       1.845   0.077 -10.617  0.00  0.00    +0.050 A 
ATOM     19  C   UNL     1       0.978   0.696  -9.731  0.00  0.00    +0.125 A 
ATOM     20  C   UNL     1       1.237   0.665  -8.373  0.00  0.00    +0.051 A 
ATOM     21  F   UNL     1      -0.124   1.325 -10.193  0.00  0.00    -0.205 F 
BRANCH  17  22
ATOM     22  C   UNL     1       3.914  -1.238 -11.122  0.00  0.00    +0.418 C 
ATOM     23  F   UNL     1       3.519  -2.566 -11.312  0.00  0.00    -0.166 F 
ATOM     24  F   UNL     1       3.878  -0.561 -12.346  0.00  0.00    -0.166 F 
ATOM     25  F   UNL     1       5.216  -1.206 -10.610  0.00  0.00    -0.166 F 
ENDBRANCH  17  22
ENDBRANCH  11  15
BRANCH   1  27
ATOM     26  N   UNL     1      -0.634  -0.489  -1.373  0.00  0.00    -0.312 N 
ATOM     27  C   UNL     1      -0.009   0.223  -2.332  0.00  0.00    +0.218 C 
ATOM     28  O   UNL     1       0.095   1.426  -2.223  0.00  0.00    -0.275 OA
ATOM     29  H   UNL     1      -0.718  -1.452  -1.461  0.00  0.00    +0.149 HD
BRANCH  26  31
ATOM     30  C   UNL     1      -0.089   0.366   0.852  0.00  0.00    +0.028 C 
ATOM     31  C   UNL     1      -1.187   0.190  -0.199  0.00  0.00    +0.070 C 
BRANCH  31  32
ATOM     32  C   UNL     1      -2.325  -0.648   0.387  0.00  0.00    +0.022 C 
BRANCH  32  33
ATOM     33  C   UNL     1      -3.476  -0.719  -0.619  0.00  0.00    +0.005 C 
BRANCH  33  34
ATOM     34  C   UNL     1      -4.614  -1.558  -0.033  0.00  0.00    +0.034 C 
BRANCH  34  35
ATOM     35  C   UNL     1      -5.765  -1.629  -1.038  0.00  0.00    +0.061 C 
ATOM     36  C   UNL     1      -6.950  -2.360  -0.405  0.00  0.00    +0.041 C 
ATOM     37  C   UNL     1      -6.189  -0.212  -1.428  0.00  0.00    +0.041 C 
BRANCH  35  38
ATOM     38  O   UNL     1      -5.336  -2.336  -2.204  0.00  0.00    -0.389 OA
ATOM     39  H   UNL     1      -6.016  -2.419  -2.885  0.00  0.00    +0.210 HD
ENDBRANCH  35  38
ENDBRANCH  34  35
ENDBRANCH  33  34
ENDBRANCH  32  33
ENDBRANCH  31  32
ENDBRANCH  26  31
ENDBRANCH   1  27
TORSDOF 9
