REMARK  Name = ZINC20884079
REMARK  8 active torsions:
REMARK  status: ('A' for Active; 'I' for Inactive)
REMARK    1  A    between atoms: C_1  and  C_2
REMARK    2  A    between atoms: C_2  and  C_3
REMARK    3  A    between atoms: C_2  and  C_4
REMARK    4  A    between atoms: C_4  and  O_5
REMARK    5  A    between atoms: O_5  and  C_6
REMARK    6  A    between atoms: C_9  and  C_12
REMARK    7  A    between atoms: C_17  and  C_27
REMARK    8  A    between atoms: C_30  and  N_33
REMARK                            x       y       z     vdW  Elec       q    Type
REMARK                         _______ _______ _______ _____ _____    ______ ____
ROOT
ATOM      1  C   UNL     1      -6.619   5.080  -3.809  0.00  0.00    +0.032 C 
ATOM      2  C   UNL     1      -5.599   6.071  -3.252  0.00  0.00    +0.059 C 
ATOM      3  C   UNL     1      -5.311   5.753  -1.794  0.00  0.00    +0.017 C 
ATOM      4  C   UNL     1      -5.335   4.483  -1.359  0.00  0.00    +0.036 C 
ATOM      5  C   UNL     1      -5.034   4.022   0.048  0.00  0.00    +0.136 C 
ATOM      6  N   UNL     1      -4.957   5.088   1.024  0.00  0.00    -0.331 N 
ATOM      7  C   UNL     1      -3.962   6.061   0.950  0.00  0.00    +0.049 A 
ATOM      8  C   UNL     1      -2.990   6.179   1.930  0.00  0.00    +0.025 A 
ATOM      9  C   UNL     1      -1.995   7.131   1.791  0.00  0.00    +0.002 A 
ATOM     10  C   UNL     1      -1.968   7.958   0.683  0.00  0.00    +0.002 A 
ATOM     11  C   UNL     1      -2.948   7.855  -0.290  0.00  0.00    +0.025 A 
ATOM     12  C   UNL     1      -3.955   6.917  -0.141  0.00  0.00    +0.052 A 
ATOM     13  N   UNL     1      -5.026   6.833  -1.023  0.00  0.00    -0.316 N 
ATOM     14  C   UNL     1      -5.669   3.432  -2.245  0.00  0.00    +0.163 C 
ATOM     15  O   UNL     1      -5.671   2.291  -1.826  0.00  0.00    -0.292 OA
ATOM     16  C   UNL     1      -6.021   3.674  -3.682  0.00  0.00    +0.088 C 
ATOM     17  H   UNL     1      -5.691   5.139   1.842  0.00  0.00    +0.147 HD
ATOM     18  H   UNL     1      -5.666   7.727  -1.072  0.00  0.00    +0.152 HD
ENDROOT
BRANCH   1  22
ATOM     19  C   UNL     1      -7.401   5.959  -7.917  0.00  0.00    +0.121 A 
ATOM     20  C   UNL     1      -8.433   5.994  -6.991  0.00  0.00    +0.046 A 
ATOM     21  C   UNL     1      -8.177   5.709  -5.663  0.00  0.00    +0.007 A 
ATOM     22  C   UNL     1      -6.895   5.390  -5.258  0.00  0.00    -0.043 A 
ATOM     23  C   UNL     1      -5.863   5.361  -6.178  0.00  0.00    +0.007 A 
ATOM     24  C   UNL     1      -6.114   5.639  -7.508  0.00  0.00    +0.046 A 
BRANCH  19  25
ATOM     25  O   UNL     1      -7.649   6.239  -9.224  0.00  0.00    -0.492 OA
BRANCH  25  26
ATOM     26  C   UNL     1      -6.539   6.184 -10.121  0.00  0.00    +0.232 C 
BRANCH  26  28
ATOM     27  C   UNL     1      -5.803   6.589 -12.474  0.00  0.00    +0.010 C 
ATOM     28  C   UNL     1      -7.010   6.525 -11.537  0.00  0.00    +0.020 C 
ATOM     29  C   UNL     1      -7.979   5.447 -12.025  0.00  0.00    +0.010 C 
ENDBRANCH  26  28
ENDBRANCH  25  26
ENDBRANCH  19  25
ENDBRANCH   1  22
BRANCH   5  30
ATOM     30  C   UNL     1      -3.719   3.286   0.038  0.00  0.00    -0.023 A 
ATOM     31  C   UNL     1      -3.681   1.934   0.323  0.00  0.00    +0.008 A 
ATOM     32  C   UNL     1      -2.475   1.259   0.313  0.00  0.00    +0.033 A 
ATOM     33  C   UNL     1      -1.306   1.936   0.019  0.00  0.00    +0.126 A 
ATOM     34  C   UNL     1      -1.343   3.289  -0.260  0.00  0.00    +0.033 A 
ATOM     35  C   UNL     1      -2.550   3.963  -0.256  0.00  0.00    +0.008 A 
BRANCH  33  36
ATOM     36  N   UNL     1      -0.015   1.213   0.009  0.00  0.00    +0.056 N 
ATOM     37  O   UNL     1       0.018   0.022   0.260  0.00  0.00    -0.126 OA
ATOM     38  O   UNL     1       1.014   1.809  -0.255  0.00  0.00    -0.126 OA
ENDBRANCH  33  36
ENDBRANCH   5  30
TORSDOF 6
