REMARK  Name = ZINC00641567
REMARK  10 active torsions:
REMARK  status: ('A' for Active; 'I' for Inactive)
REMARK    1  A    between atoms: C_1  and  C_2
REMARK    2  A    between atoms: C_5  and  O_30
REMARK    3  A    between atoms: C_6  and  N_8
REMARK    4  A    between atoms: C_9  and  C_11
REMARK    5  A    between atoms: C_11  and  S_12
REMARK    6  A    between atoms: S_12  and  C_13
REMARK    7  A    between atoms: N_25  and  C_26
REMARK    8  A    between atoms: C_26  and  C_27
REMARK    9  A    between atoms: C_27  and  C_29
REMARK   10  A    between atoms: O_30  and  C_31
REMARK                            x       y       z     vdW  Elec       q    Type
REMARK                         _______ _______ _______ _____ _____    ______ ____
ROOT
ATOM      1  C   UNL     1       3.803   3.055   0.016  0.00  0.00    +0.173 A 
ATOM      2  N   UNL     1       2.488   3.155   0.034  0.00  0.00    -0.216 NA
ATOM      3  C   UNL     1       1.726   2.067   0.046  0.00  0.00    +0.117 A 
ATOM      4  C   UNL     1       2.270   0.775   0.040  0.00  0.00    +0.076 A 
ATOM      5  C   UNL     1       1.302  -0.334   0.054  0.00  0.00    -0.023 A 
ATOM      6  C   UNL     1       0.001  -0.003   0.073  0.00  0.00    -0.004 A 
ATOM      7  S   UNL     1      -0.023   1.775   0.071  0.00  0.00    -0.073 S 
ATOM      8  C   UNL     1      -0.893  -1.214   0.090  0.00  0.00    +0.043 C 
ATOM      9  C   UNL     1       0.034  -2.374   0.517  0.00  0.00    +0.010 C 
ATOM     10  C   UNL     1       1.411  -1.861   0.052  0.00  0.00    +0.037 C 
ATOM     11  C   UNL     1       3.698   0.695   0.021  0.00  0.00    +0.264 A 
ATOM     12  O   UNL     1       4.258  -0.388   0.015  0.00  0.00    -0.267 OA
ATOM     13  N   UNL     1       4.414   1.835   0.010  0.00  0.00    -0.283 N 
ENDROOT
BRANCH   1  14
ATOM     14  S   UNL     1       4.784   4.519   0.002  0.00  0.00    -0.078 S 
BRANCH  14  15
ATOM     15  C   UNL     1       3.478   5.773   0.017  0.00  0.00    +0.173 C 
BRANCH  15  17
ATOM     16  N   UNL     1       3.316   8.241   0.016  0.00  0.00    -0.282 N 
ATOM     17  C   UNL     1       4.101   7.145   0.007  0.00  0.00    +0.228 C 
ATOM     18  O   UNL     1       5.308   7.264  -0.009  0.00  0.00    -0.275 OA
ATOM     19  H   UNL     1       2.352   8.148  -0.052  0.00  0.00    +0.155 HD
BRANCH  16  25
ATOM     20  C   UNL     1       7.055  11.087   1.462  0.00  0.00    +0.044 C 
ATOM     21  C   UNL     1       5.702  10.923   0.820  0.00  0.00    -0.048 A 
ATOM     22  C   UNL     1       5.029  12.030   0.337  0.00  0.00    +0.007 A 
ATOM     23  C   UNL     1       3.787  11.886  -0.253  0.00  0.00    +0.048 A 
ATOM     24  C   UNL     1       3.213  10.630  -0.362  0.00  0.00    +0.141 A 
ATOM     25  C   UNL     1       3.891   9.514   0.123  0.00  0.00    +0.076 A 
ATOM     26  C   UNL     1       5.134   9.667   0.719  0.00  0.00    +0.030 A 
BRANCH  24  27
ATOM     27  O   UNL     1       1.991  10.486  -0.942  0.00  0.00    -0.493 OA
ATOM     28  C   UNL     1       1.355  11.675  -1.416  0.00  0.00    +0.277 C 
ENDBRANCH  24  27
ENDBRANCH  16  25
ENDBRANCH  15  17
ENDBRANCH  14  15
ENDBRANCH   1  14
BRANCH  13  29
ATOM     29  C   UNL     1       5.878   1.765  -0.009  0.00  0.00    +0.157 C 
BRANCH  29  30
ATOM     30  C   UNL     1       6.360   1.739  -1.437  0.00  0.00    -0.060 C 
ATOM     31  C   UNL     1       6.718   2.852  -2.028  0.00  0.00    +0.009 C 
ATOM     32  C   UNL     1       6.431   0.433  -2.185  0.00  0.00    +0.040 C 
ENDBRANCH  29  30
ENDBRANCH  13  29
TORSDOF 7
