REMARK  Name = ZINC65150396
REMARK  7 active torsions:
REMARK  status: ('A' for Active; 'I' for Inactive)
REMARK    1  A    between atoms: C_1  and  C_2
REMARK    2  A    between atoms: C_13  and  C_18
REMARK    3  A    between atoms: C_15  and  O_17
REMARK    4  A    between atoms: N_20  and  C_21
REMARK    5  A    between atoms: C_21  and  C_22
REMARK    6  A    between atoms: C_22  and  C_23
REMARK    7  A    between atoms: C_23  and  C_24
REMARK                            x       y       z     vdW  Elec       q    Type
REMARK                         _______ _______ _______ _____ _____    ______ ____
ROOT
ATOM      1  C   UNL     1      -0.015   1.525   0.006  0.00  0.00    +0.008 C 
ATOM      2  C   UNL     1       0.005  -0.005  -0.001  0.00  0.00    -0.009 C 
ATOM      3  C   UNL     1      -1.431  -0.538   0.019  0.00  0.00    +0.008 C 
ATOM      4  C   UNL     1      -1.425  -2.045  -0.235  0.00  0.00    +0.037 C 
ATOM      5  C   UNL     1      -0.462  -2.711   0.747  0.00  0.00    -0.025 A 
ATOM      6  C   UNL     1       0.480  -1.990   1.381  0.00  0.00    -0.004 A 
ATOM      7  S   UNL     1       1.367  -3.130   2.413  0.00  0.00    -0.076 S 
ATOM      8  C   UNL     1       0.487  -4.607   2.015  0.00  0.00    +0.105 A 
ATOM      9  N   UNL     1       0.611  -5.855   2.420  0.00  0.00    -0.172 NA
ATOM     10  C   UNL     1      -0.217  -6.768   1.931  0.00  0.00    +0.257 C 
ATOM     11  O   UNL     1      -0.081  -7.912   2.322  0.00  0.00    -0.272 OA
ATOM     12  C   UNL     1      -1.301  -6.505   0.940  0.00  0.00    +0.228 C 
ATOM     13  C   UNL     1      -1.405  -5.070   0.507  0.00  0.00    +0.125 C 
ATOM     14  C   UNL     1      -0.518  -4.143   1.042  0.00  0.00    +0.047 A 
ATOM     15  C   UNL     1       0.739  -0.517   1.245  0.00  0.00    +0.046 C 
ENDROOT
BRANCH  12  16
ATOM     16  C   UNL     1      -2.617  -6.915   1.550  0.00  0.00    +0.233 C 
ATOM     17  O   UNL     1      -3.500  -6.096   1.693  0.00  0.00    -0.275 OA
ATOM     18  N   UNL     1      -2.812  -8.191   1.936  0.00  0.00    -0.314 N 
ATOM     19  H   UNL     1      -2.106  -8.846   1.822  0.00  0.00    +0.149 HD
BRANCH  18  20
ATOM     20  C   UNL     1      -4.091  -8.590   2.529  0.00  0.00    +0.104 C 
BRANCH  20  21
ATOM     21  C   UNL     1      -4.051 -10.079   2.876  0.00  0.00    +0.023 C 
BRANCH  21  22
ATOM     22  C   UNL     1      -5.387 -10.495   3.495  0.00  0.00    +0.036 C 
BRANCH  22  23
ATOM     23  C   UNL     1      -5.347 -11.963   3.837  0.00  0.00    -0.047 A 
ATOM     24  C   UNL     1      -5.745 -12.901   2.903  0.00  0.00    +0.003 A 
ATOM     25  C   UNL     1      -5.708 -14.247   3.217  0.00  0.00    +0.000 A 
ATOM     26  C   UNL     1      -5.273 -14.654   4.464  0.00  0.00    +0.000 A 
ATOM     27  C   UNL     1      -4.874 -13.716   5.397  0.00  0.00    +0.000 A 
ATOM     28  C   UNL     1      -4.906 -12.370   5.082  0.00  0.00    +0.003 A 
ENDBRANCH  22  23
ENDBRANCH  21  22
ENDBRANCH  20  21
ENDBRANCH  18  20
ENDBRANCH  12  16
BRANCH  13  29
ATOM     29  O   UNL     1      -2.337  -4.690  -0.382  0.00  0.00    -0.509 OA
ATOM     30  H   UNL     1      -2.221  -5.074  -1.262  0.00  0.00    +0.292 HD
ENDBRANCH  13  29
TORSDOF 6
