REMARK  Name = ZINC08791101
REMARK  6 active torsions:
REMARK  status: ('A' for Active; 'I' for Inactive)
REMARK    1  A    between atoms: C_1  and  C_2
REMARK    2  A    between atoms: C_13  and  C_15
REMARK    3  A    between atoms: C_15  and  C_16
REMARK    4  A    between atoms: N_21  and  C_24
REMARK    5  A    between atoms: C_24  and  C_25
REMARK    6  A    between atoms: C_25  and  C_26
REMARK                            x       y       z     vdW  Elec       q    Type
REMARK                         _______ _______ _______ _____ _____    ______ ____
ROOT
ATOM      1  C   UNL     1      -2.478   2.114   4.506  0.00  0.00    +0.044 C 
ATOM      2  C   UNL     1      -1.707   3.256   3.896  0.00  0.00    -0.050 A 
ATOM      3  C   UNL     1      -1.964   4.556   4.293  0.00  0.00    +0.005 A 
ATOM      4  C   UNL     1      -1.261   5.605   3.738  0.00  0.00    +0.024 A 
ATOM      5  C   UNL     1      -0.287   5.363   2.772  0.00  0.00    +0.036 A 
ATOM      6  C   UNL     1      -0.036   4.051   2.382  0.00  0.00    -0.027 A 
ATOM      7  C   UNL     1      -0.741   3.007   2.938  0.00  0.00    +0.008 A 
ATOM      8  C   UNL     1       1.052   4.131   1.348  0.00  0.00    +0.050 C 
ATOM      9  C   UNL     1       0.606   3.532   0.010  0.00  0.00    +0.088 C 
ATOM     10  C   UNL     1       1.208   2.098   0.002  0.00  0.00    +0.073 C 
ATOM     11  C   UNL     1       1.937   1.969   1.356  0.00  0.00    -0.049 C 
ATOM     12  C   UNL     1      -0.014   1.208   0.009  0.00  0.00    +0.224 C 
ATOM     13  O   UNL     1       0.002  -0.004   0.002  0.00  0.00    -0.275 OA
ATOM     14  N   UNL     1      -1.117   1.966   0.018  0.00  0.00    -0.241 N 
ATOM     15  C   UNL     1      -0.885   3.284   0.028  0.00  0.00    +0.225 C 
ATOM     16  O   UNL     1      -1.738   4.145   0.045  0.00  0.00    -0.275 OA
ATOM     17  C   UNL     1       1.360   5.598   1.218  0.00  0.00    +0.211 C 
ATOM     18  O   UNL     1       2.183   6.103   0.484  0.00  0.00    -0.277 OA
ATOM     19  N   UNL     1       0.543   6.242   2.074  0.00  0.00    -0.286 N 
ATOM     20  H   UNL     1       0.534   7.205   2.192  0.00  0.00    +0.155 HD
ATOM     21  N   UNL     1       2.214   3.354   1.742  0.00  0.00    +0.394 N 
ATOM     22  H   UNL     1       2.357   3.418   2.757  0.00  0.00    -0.083 HD
ATOM     23  H   UNL     1       3.051   3.697   1.257  0.00  0.00    -0.083 HD
ENDROOT
BRANCH  11  24
ATOM     24  C   UNL     1       3.228   1.166   1.191  0.00  0.00    +0.080 C 
BRANCH  24  25
ATOM     25  C   UNL     1       3.860   0.946   2.542  0.00  0.00    +0.209 C 
ATOM     26  O   UNL     1       3.329   1.389   3.538  0.00  0.00    -0.276 OA
ATOM     27  N   UNL     1       5.015   0.258   2.642  0.00  0.00    -0.329 N 
ATOM     28  H   UNL     1       5.439  -0.095   1.845  0.00  0.00    +0.145 HD
ATOM     29  H   UNL     1       5.421   0.117   3.512  0.00  0.00    +0.145 HD
ENDBRANCH  24  25
ENDBRANCH  11  24
BRANCH  14  30
ATOM     30  C   UNL     1      -2.468   1.400   0.020  0.00  0.00    +0.121 C 
BRANCH  30  31
ATOM     31  C   UNL     1      -2.933   1.195   1.463  0.00  0.00    +0.054 C 
BRANCH  31  32
ATOM     32  C   UNL     1      -4.322   0.612   1.465  0.00  0.00    -0.046 A 
ATOM     33  C   UNL     1      -5.423   1.449   1.480  0.00  0.00    +0.004 A 
ATOM     34  C   UNL     1      -6.697   0.914   1.477  0.00  0.00    +0.000 A 
ATOM     35  C   UNL     1      -6.872  -0.457   1.470  0.00  0.00    +0.000 A 
ATOM     36  C   UNL     1      -5.772  -1.294   1.461  0.00  0.00    +0.000 A 
ATOM     37  C   UNL     1      -4.497  -0.759   1.459  0.00  0.00    +0.004 A 
ENDBRANCH  31  32
ENDBRANCH  30  31
ENDBRANCH  14  30
TORSDOF 5
