REMARK  Name = ZINC09846054
REMARK  6 active torsions:
REMARK  status: ('A' for Active; 'I' for Inactive)
REMARK    1  A    between atoms: C_4  and  C_7
REMARK    2  A    between atoms: C_10  and  O_13
REMARK    3  A    between atoms: O_13  and  C_14
REMARK    4  A    between atoms: C_14  and  C_15
REMARK    5  A    between atoms: N_17  and  N_18
REMARK    6  A    between atoms: C_19  and  C_20
REMARK                            x       y       z     vdW  Elec       q    Type
REMARK                         _______ _______ _______ _____ _____    ______ ____
ROOT
ATOM      1  C   UNL     1      -5.848   2.651   0.041  0.00  0.00    +0.270 C 
ATOM      2  O   UNL     1      -5.615   3.842   0.046  0.00  0.00    -0.270 OA
ATOM      3  N   UNL     1      -4.832   1.766   0.033  0.00  0.00    -0.204 N 
ATOM      4  H   UNL     1      -5.019   0.814   0.029  0.00  0.00    +0.177 HD
ENDROOT
BRANCH   3   5
ATOM      5  N   UNL     1      -3.507   2.220   0.029  0.00  0.00    -0.188 NA
ATOM      6  C   UNL     1      -2.528   1.367   0.021  0.00  0.00    +0.140 C 
BRANCH   6   7
ATOM      7  C   UNL     1      -1.135   1.844   0.017  0.00  0.00    +0.020 A 
ATOM      8  C   UNL     1      -0.013   1.076   0.008  0.00  0.00    +0.093 A 
ATOM      9  N   UNL     1       1.091   1.875   0.002  0.00  0.00    -0.360 N 
ATOM     10  H   UNL     1       2.007   1.556  -0.009  0.00  0.00    +0.165 HD
ATOM     11  C   UNL     1       0.719   3.203   0.012  0.00  0.00    +0.047 A 
ATOM     12  C   UNL     1      -0.685   3.247   0.025  0.00  0.00    +0.009 A 
ATOM     13  C   UNL     1      -1.345   4.474   0.036  0.00  0.00    +0.026 A 
ATOM     14  C   UNL     1      -0.614   5.642   0.035  0.00  0.00    +0.019 A 
ATOM     15  C   UNL     1       0.773   5.600   0.022  0.00  0.00    +0.017 A 
ATOM     16  C   UNL     1       1.439   4.394   0.010  0.00  0.00    +0.027 A 
ATOM     17 BR   UNL     1      -1.505   7.310   0.051  0.00  0.00    -0.050 Br
ENDBRANCH   6   7
ENDBRANCH   3   5
BRANCH   1  18
ATOM     18  C   UNL     1      -7.274   2.163   0.045  0.00  0.00    +0.326 C 
BRANCH  18  19
ATOM     19  O   UNL     1      -8.161   3.283   0.054  0.00  0.00    -0.483 OA
BRANCH  19  23
ATOM     20  C   UNL     1     -12.209   2.467   0.068  0.00  0.00    -0.018 A 
ATOM     21  C   UNL     1     -11.762   3.787   0.072  0.00  0.00    +0.012 A 
ATOM     22  C   UNL     1     -10.410   4.057   0.068  0.00  0.00    +0.046 A 
ATOM     23  C   UNL     1      -9.493   3.014   0.059  0.00  0.00    +0.121 A 
ATOM     24  C   UNL     1      -9.935   1.698   0.049  0.00  0.00    +0.046 A 
ATOM     25  C   UNL     1     -11.286   1.422   0.059  0.00  0.00    +0.012 A 
BRANCH  20  29
ATOM     26  C   UNL     1     -16.377   1.627   0.079  0.00  0.00    +0.000 A 
ATOM     27  C   UNL     1     -15.464   0.587   0.071  0.00  0.00    +0.001 A 
ATOM     28  C   UNL     1     -14.110   0.854   0.067  0.00  0.00    +0.008 A 
ATOM     29  C   UNL     1     -13.663   2.174   0.072  0.00  0.00    -0.018 A 
ATOM     30  C   UNL     1     -14.587   3.217   0.086  0.00  0.00    +0.008 A 
ATOM     31  C   UNL     1     -15.938   2.939   0.084  0.00  0.00    +0.001 A 
ENDBRANCH  20  29
ENDBRANCH  19  23
ENDBRANCH  18  19
ENDBRANCH   1  18
TORSDOF 6
