REMARK  Name = ZINC21155321
REMARK  9 active torsions:
REMARK  status: ('A' for Active; 'I' for Inactive)
REMARK    1  A    between atoms: C_1  and  N_2
REMARK    2  A    between atoms: C_6  and  C_7
REMARK    3  A    between atoms: C_7  and  C_9
REMARK    4  A    between atoms: C_7  and  N_26
REMARK    5  A    between atoms: C_9  and  N_10
REMARK    6  A    between atoms: N_10  and  S_11
REMARK    7  A    between atoms: S_11  and  C_14
REMARK    8  A    between atoms: C_17  and  C_20
REMARK    9  A    between atoms: N_29  and  C_32
REMARK                            x       y       z     vdW  Elec       q    Type
REMARK                         _______ _______ _______ _____ _____    ______ ____
ROOT
ATOM      1  N   UNL     1       0.177   6.370  -1.785  0.00  0.00    -0.188 NA
ATOM      2  H   UNL     1       1.001   6.870  -2.315  0.00  0.00    +0.148 HD
ENDROOT
BRANCH   1   3
ATOM      3  S   UNL     1       0.467   5.679  -0.308  0.00  0.00    +0.058 S 
ATOM      4  O   UNL     1      -0.675   5.943   0.495  0.00  0.00    -0.153 OA
ATOM      5  O   UNL     1       1.776   6.077   0.076  0.00  0.00    -0.153 OA
BRANCH   3   6
ATOM      6  C   UNL     1       0.521   3.935  -0.550  0.00  0.00    +0.105 A 
ATOM      7  C   UNL     1       1.723   3.317  -0.846  0.00  0.00    +0.029 A 
ATOM      8  C   UNL     1       1.771   1.951  -1.036  0.00  0.00    +0.010 A 
ATOM      9  C   UNL     1       0.606   1.194  -0.930  0.00  0.00    -0.018 A 
ATOM     10  C   UNL     1      -0.603   1.822  -0.637  0.00  0.00    +0.010 A 
ATOM     11  C   UNL     1      -0.638   3.188  -0.443  0.00  0.00    +0.029 A 
BRANCH   9  12
ATOM     12  C   UNL     1       0.651  -0.275  -1.133  0.00  0.00    -0.018 A 
ATOM     13  C   UNL     1       1.857  -0.902  -1.437  0.00  0.00    +0.008 A 
ATOM     14  C   UNL     1       1.895  -2.269  -1.622  0.00  0.00    +0.001 A 
ATOM     15  C   UNL     1       0.735  -3.016  -1.514  0.00  0.00    +0.000 A 
ATOM     16  C   UNL     1      -0.466  -2.398  -1.217  0.00  0.00    +0.001 A 
ATOM     17  C   UNL     1      -0.514  -1.032  -1.026  0.00  0.00    +0.008 A 
ENDBRANCH   9  12
ENDBRANCH   3   6
ENDBRANCH   1   3
BRANCH   1  18
ATOM     18  C   UNL     1      -1.095   6.127  -2.470  0.00  0.00    +0.131 C 
BRANCH  18  19
ATOM     19  C   UNL     1      -1.274   7.153  -3.591  0.00  0.00    +0.119 C 
BRANCH  19  20
ATOM     20  N   UNL     1      -1.161   8.508  -3.037  0.00  0.00    -0.296 NA
ATOM     21  C   UNL     1      -2.207   8.756  -2.034  0.00  0.00    +0.066 C 
ATOM     22  C   UNL     1      -2.007  10.146  -1.425  0.00  0.00    -0.064 C 
ATOM     23  N   UNL     1      -2.054  11.156  -2.492  0.00  0.00    +0.379 N 
ATOM     24  C   UNL     1      -1.008  10.909  -3.494  0.00  0.00    -0.064 C 
ATOM     25  C   UNL     1      -1.208   9.519  -4.103  0.00  0.00    +0.066 C 
ATOM     26  C   UNL     1      -1.941  12.512  -1.938  0.00  0.00    -0.096 C 
ATOM     27  H   UNL     1      -3.030  11.077  -2.992  0.00  0.00    -0.082 HD
ENDBRANCH  19  20
BRANCH  19  33
ATOM     28  C   UNL     1      -2.405   4.550  -4.840  0.00  0.00    +0.148 C 
ATOM     29  N   UNL     1      -3.119   5.827  -4.765  0.00  0.00    -0.352 N 
ATOM     30  C   UNL     1      -4.380   6.061  -5.227  0.00  0.00    +0.085 A 
ATOM     31  C   UNL     1      -4.686   7.351  -4.983  0.00  0.00    +0.019 A 
ATOM     32  C   UNL     1      -3.575   7.934  -4.343  0.00  0.00    +0.024 A 
ATOM     33  C   UNL     1      -2.633   6.978  -4.219  0.00  0.00    +0.037 A 
ENDBRANCH  19  33
ENDBRANCH  18  19
ENDBRANCH   1  18
TORSDOF 7
