REMARK  Name = ZINC38706058
REMARK  18 active torsions:
REMARK  status: ('A' for Active; 'I' for Inactive)
REMARK    1  A    between atoms: C_1  and  C_2
REMARK    2  A    between atoms: C_2  and  C_3
REMARK    3  A    between atoms: C_3  and  C_4
REMARK    4  A    between atoms: C_4  and  C_5
REMARK    5  A    between atoms: C_5  and  C_6
REMARK    6  A    between atoms: C_6  and  O_7
REMARK    7  A    between atoms: O_7  and  C_8
REMARK    8  A    between atoms: C_11  and  C_16
REMARK    9  A    between atoms: C_13  and  O_14
REMARK   10  A    between atoms: O_14  and  C_15
REMARK   11  A    between atoms: C_19  and  C_31
REMARK   12  A    between atoms: N_26  and  C_27
REMARK   13  A    between atoms: C_27  and  C_28
REMARK   14  A    between atoms: C_28  and  C_29
REMARK   15  A    between atoms: C_29  and  O_30
REMARK   16  A    between atoms: C_32  and  C_39
REMARK   17  A    between atoms: C_34  and  C_38
REMARK   18  A    between atoms: C_36  and  O_37
REMARK                            x       y       z     vdW  Elec       q    Type
REMARK                         _______ _______ _______ _____ _____    ______ ____
ROOT
ATOM      1  C   UNL     1      -4.611  -9.881  -0.093  0.00  0.00    +0.141 C 
ATOM      2  C   UNL     1      -4.606 -10.568  -1.431  0.00  0.00    +0.035 A 
ATOM      3  C   UNL     1      -5.196 -10.697  -2.693  0.00  0.00    +0.102 A 
ATOM      4  N   UNL     1      -4.523 -11.619  -3.351  0.00  0.00    -0.173 NA
ATOM      5  N   UNL     1      -3.565 -12.085  -2.631  0.00  0.00    -0.272 N 
ATOM      6  H   UNL     1      -2.940 -12.772  -2.911  0.00  0.00    +0.189 HD
ATOM      7  C   UNL     1      -3.559 -11.469  -1.412  0.00  0.00    +0.126 A 
ATOM      8  C   UNL     1      -2.893 -11.383  -0.107  0.00  0.00    +0.265 C 
ATOM      9  O   UNL     1      -1.932 -12.049   0.228  0.00  0.00    -0.268 OA
ATOM     10  N   UNL     1      -3.497 -10.462   0.668  0.00  0.00    -0.285 N 
ENDROOT
BRANCH   3  11
ATOM     11  C   UNL     1      -6.367  -9.936  -3.197  0.00  0.00    +0.047 A 
ATOM     12  C   UNL     1      -6.325  -9.343  -4.456  0.00  0.00    -0.037 A 
ATOM     13  C   UNL     1      -7.416  -8.636  -4.921  0.00  0.00    +0.007 A 
ATOM     14  C   UNL     1      -8.552  -8.515  -4.140  0.00  0.00    -0.047 A 
ATOM     15  C   UNL     1      -8.603  -9.099  -2.888  0.00  0.00    +0.049 A 
ATOM     16  C   UNL     1      -7.517  -9.816  -2.412  0.00  0.00    +0.127 A 
ATOM     17  C   UNL     1      -9.738  -7.741  -4.655  0.00  0.00    +0.044 C 
ATOM     18  C   UNL     1      -5.091  -9.472  -5.311  0.00  0.00    +0.044 C 
BRANCH  16  19
ATOM     19  O   UNL     1      -7.568 -10.397  -1.185  0.00  0.00    -0.506 OA
ATOM     20  H   UNL     1      -7.314  -9.809  -0.461  0.00  0.00    +0.292 HD
ENDBRANCH  16  19
ENDBRANCH   3  11
BRANCH   1  24
ATOM     21  C   UNL     1      -4.006  -5.677  -0.597  0.00  0.00    +0.162 A 
ATOM     22  C   UNL     1      -2.963  -6.562  -0.820  0.00  0.00    +0.050 A 
ATOM     23  C   UNL     1      -3.162  -7.920  -0.656  0.00  0.00    +0.009 A 
ATOM     24  C   UNL     1      -4.400  -8.399  -0.270  0.00  0.00    -0.019 A 
ATOM     25  C   UNL     1      -5.444  -7.522  -0.046  0.00  0.00    +0.055 A 
ATOM     26  C   UNL     1      -5.251  -6.159  -0.202  0.00  0.00    +0.162 A 
BRANCH  26  27
ATOM     27  O   UNL     1      -6.276  -5.295   0.023  0.00  0.00    -0.491 OA
ATOM     28  C   UNL     1      -7.525  -5.860   0.426  0.00  0.00    +0.277 C 
ENDBRANCH  26  27
BRANCH  21  29
ATOM     29  O   UNL     1      -3.813  -4.341  -0.757  0.00  0.00    -0.488 OA
BRANCH  29  30
ATOM     30  C   UNL     1      -2.510  -3.918  -1.164  0.00  0.00    +0.229 C 
BRANCH  30  31
ATOM     31  C   UNL     1      -2.484  -2.393  -1.291  0.00  0.00    +0.041 C 
BRANCH  31  32
ATOM     32  C   UNL     1      -1.089  -1.941  -1.726  0.00  0.00    +0.003 C 
BRANCH  32  33
ATOM     33  C   UNL     1      -1.064  -0.417  -1.853  0.00  0.00    -0.000 C 
BRANCH  33  35
ATOM     34  C   UNL     1       0.357   1.560  -2.415  0.00  0.00    +0.004 C 
ATOM     35  C   UNL     1       0.332   0.036  -2.288  0.00  0.00    -0.003 C 
ENDBRANCH  33  35
ENDBRANCH  32  33
ENDBRANCH  31  32
ENDBRANCH  30  31
ENDBRANCH  29  30
ENDBRANCH  21  29
ENDBRANCH   1  24
BRANCH  10  36
ATOM     36  C   UNL     1      -3.111 -10.102   2.035  0.00  0.00    +0.111 C 
BRANCH  36  37
ATOM     37  C   UNL     1      -3.862 -10.992   3.028  0.00  0.00    +0.047 C 
BRANCH  37  38
ATOM     38  C   UNL     1      -3.458 -10.615   4.455  0.00  0.00    +0.157 C 
BRANCH  38  39
ATOM     39  O   UNL     1      -4.159 -11.446   5.383  0.00  0.00    -0.395 OA
ATOM     40  H   UNL     1      -3.952 -11.263   6.310  0.00  0.00    +0.209 HD
ENDBRANCH  38  39
ENDBRANCH  37  38
ENDBRANCH  36  37
ENDBRANCH  10  36
TORSDOF 14
