REMARK  Name = ZINC12762001
REMARK  3 active torsions:
REMARK  status: ('A' for Active; 'I' for Inactive)
REMARK    1  A    between atoms: C_8  and  C_10
REMARK    2  A    between atoms: C_11  and  C_16
REMARK    3  A    between atoms: N_18  and  C_19
REMARK                            x       y       z     vdW  Elec       q    Type
REMARK                         _______ _______ _______ _____ _____    ______ ____
ROOT
ATOM      1  C   UNL     1       0.046   4.503  -0.077  0.00  0.00    +0.298 C 
ATOM      2  O   UNL     1       0.106   5.625  -0.542  0.00  0.00    -0.263 OA
ATOM      3  N   UNL     1      -1.028   4.130   0.646  0.00  0.00    -0.206 NA
ENDROOT
BRANCH   3   4
ATOM      4  C   UNL     1      -2.119   4.998   0.780  0.00  0.00    +0.084 A 
ATOM      5  C   UNL     1      -1.919   6.376   0.850  0.00  0.00    +0.032 A 
ATOM      6  C   UNL     1      -3.025   7.196   0.981  0.00  0.00    +0.044 A 
ATOM      7  C   UNL     1      -4.291   6.622   1.038  0.00  0.00    +0.099 A 
ATOM      8  N   UNL     1      -4.443   5.309   0.968  0.00  0.00    -0.348 N 
ATOM      9  C   UNL     1      -3.411   4.498   0.837  0.00  0.00    +0.112 A 
ATOM     10  N   UNL     1      -5.411   7.438   1.170  0.00  0.00    -0.317 N 
ATOM     11  C   UNL     1      -5.298   8.300   2.354  0.00  0.00    +0.106 C 
ATOM     12  C   UNL     1      -6.472   9.281   2.386  0.00  0.00    +0.019 C 
ATOM     13  C   UNL     1      -7.786   8.496   2.428  0.00  0.00    +0.003 C 
ATOM     14  C   UNL     1      -7.857   7.571   1.209  0.00  0.00    +0.019 C 
ATOM     15  C   UNL     1      -6.643   6.639   1.211  0.00  0.00    +0.106 C 
ATOM     16  H   UNL     1      -5.450   4.868   1.018  0.00  0.00    +0.167 HD
ENDBRANCH   3   4
BRANCH   1  18
ATOM     17  C   UNL     1       2.236   3.905  -1.129  0.00  0.00    +0.127 A 
ATOM     18  C   UNL     1       1.153   3.548  -0.305  0.00  0.00    +0.158 A 
ATOM     19  N   UNL     1       1.132   2.351   0.272  0.00  0.00    -0.246 NA
ATOM     20  C   UNL     1       2.122   1.504   0.071  0.00  0.00    +0.131 A 
ATOM     21  C   UNL     1       3.192   1.856  -0.742  0.00  0.00    +0.131 A 
ATOM     22  N   UNL     1       3.228   3.040  -1.322  0.00  0.00    -0.249 NA
BRANCH  17  30
ATOM     23  C   UNL     1       0.965   8.976  -4.371  0.00  0.00    +0.002 A 
ATOM     24  C   UNL     1       2.159   9.595  -4.026  0.00  0.00    +0.001 A 
ATOM     25  C   UNL     1       3.052   8.935  -3.204  0.00  0.00    +0.017 A 
ATOM     26  C   UNL     1       2.743   7.678  -2.743  0.00  0.00    +0.040 A 
ATOM     27  C   UNL     1       1.534   7.020  -3.077  0.00  0.00    +0.079 A 
ATOM     28  C   UNL     1       0.649   7.734  -3.921  0.00  0.00    +0.029 A 
ATOM     29  N   UNL     1       1.375   5.795  -2.557  0.00  0.00    -0.237 NA
ATOM     30  C   UNL     1       2.272   5.233  -1.776  0.00  0.00    +0.130 A 
ATOM     31  S   UNL     1       3.547   6.484  -1.703  0.00  0.00    -0.066 S 
ENDBRANCH  17  30
ENDBRANCH   1  18
TORSDOF 3
