REMARK  Name = ZINC63608942
REMARK  6 active torsions:
REMARK  status: ('A' for Active; 'I' for Inactive)
REMARK    1  A    between atoms: C_8  and  C_30
REMARK    2  A    between atoms: N_10  and  C_16
REMARK    3  A    between atoms: C_16  and  N_18
REMARK    4  A    between atoms: N_18  and  C_19
REMARK    5  A    between atoms: C_24  and  O_25
REMARK    6  A    between atoms: O_25  and  C_26
REMARK                            x       y       z     vdW  Elec       q    Type
REMARK                         _______ _______ _______ _____ _____    ______ ____
ROOT
ATOM      1  C   UNL     1       0.601   1.251   0.688  0.00  0.00    +0.001 A 
ATOM      2  C   UNL     1       1.766   1.973   0.395  0.00  0.00    +0.002 A 
ATOM      3  C   UNL     1       2.914   1.377   0.010  0.00  0.00    +0.026 A 
ATOM      4  C   UNL     1       2.985  -0.036  -0.116  0.00  0.00    +0.043 A 
ATOM      5  N   UNL     1       3.963  -0.832  -0.487  0.00  0.00    -0.375 N 
ATOM      6  C   UNL     1       3.509  -2.215  -0.362  0.00  0.00    +0.135 C 
ATOM      7  C   UNL     1       3.620  -2.974  -1.689  0.00  0.00    +0.206 C 
ATOM      8  N   UNL     1       2.789  -4.185  -1.587  0.00  0.00    -0.299 N 
ATOM      9  C   UNL     1       1.349  -4.082  -1.331  0.00  0.00    +0.112 C 
ATOM     10  C   UNL     1       1.119  -3.327  -0.010  0.00  0.00    +0.052 C 
ATOM     11  C   UNL     1       2.035  -2.124  -0.006  0.00  0.00    -0.035 C 
ATOM     12  C   UNL     1       1.764  -0.825   0.181  0.00  0.00    -0.001 A 
ATOM     13  C   UNL     1       0.558  -0.097   0.598  0.00  0.00    +0.010 A 
ATOM     14  H   UNL     1       4.839  -0.548  -0.793  0.00  0.00    +0.160 HD
ENDROOT
BRANCH   7  15
ATOM     15  C   UNL     1       5.077  -3.365  -1.942  0.00  0.00    +0.410 C 
ATOM     16  F   UNL     1       5.658  -3.800  -0.746  0.00  0.00    -0.169 F 
ATOM     17  F   UNL     1       5.127  -4.396  -2.887  0.00  0.00    -0.169 F 
ATOM     18  F   UNL     1       5.780  -2.256  -2.425  0.00  0.00    -0.169 F 
ENDBRANCH   7  15
BRANCH   8  19
ATOM     19  C   UNL     1       3.358  -5.398  -1.730  0.00  0.00    +0.138 C 
ATOM     20  S   UNL     1       5.005  -5.626  -1.323  0.00  0.00    -0.018 S 
BRANCH  19  21
ATOM     21  N   UNL     1       2.629  -6.433  -2.194  0.00  0.00    -0.294 N 
ATOM     22  H   UNL     1       2.278  -7.094  -1.577  0.00  0.00    +0.154 HD
BRANCH  21  23
ATOM     23  C   UNL     1       2.380  -6.554  -3.567  0.00  0.00    +0.075 A 
ATOM     24  C   UNL     1       2.796  -5.560  -4.440  0.00  0.00    +0.027 A 
ATOM     25  C   UNL     1       2.549  -5.681  -5.795  0.00  0.00    +0.002 A 
ATOM     26  C   UNL     1       1.888  -6.793  -6.283  0.00  0.00    +0.004 A 
ATOM     27  C   UNL     1       1.470  -7.789  -5.419  0.00  0.00    +0.048 A 
ATOM     28  C   UNL     1       1.718  -7.676  -4.061  0.00  0.00    +0.151 A 
BRANCH  28  29
ATOM     29  O   UNL     1       1.313  -8.657  -3.211  0.00  0.00    -0.404 OA
BRANCH  29  30
ATOM     30  C   UNL     1       0.640  -9.779  -3.787  0.00  0.00    +0.575 C 
ATOM     31  F   UNL     1       1.486 -10.406  -4.709  0.00  0.00    -0.133 F 
ATOM     32  F   UNL     1       0.296 -10.685  -2.779  0.00  0.00    -0.133 F 
ATOM     33  F   UNL     1      -0.518  -9.343  -4.439  0.00  0.00    -0.133 F 
ENDBRANCH  29  30
ENDBRANCH  28  29
ENDBRANCH  21  23
ENDBRANCH  19  21
ENDBRANCH   8  19
TORSDOF 6
