REMARK  Name = ZINC39328016
REMARK  14 active torsions:
REMARK  status: ('A' for Active; 'I' for Inactive)
REMARK    1  A    between atoms: C_1  and  C_2
REMARK    2  A    between atoms: C_2  and  O_3
REMARK    3  A    between atoms: O_3  and  C_4
REMARK    4  A    between atoms: C_4  and  C_6
REMARK    5  A    between atoms: C_7  and  C_25
REMARK    6  A    between atoms: C_9  and  N_24
REMARK    7  A    between atoms: C_10  and  C_22
REMARK    8  A    between atoms: C_11  and  C_13
REMARK    9  A    between atoms: C_16  and  C_19
REMARK   10  A    between atoms: C_19  and  C_20
REMARK   11  A    between atoms: C_19  and  C_21
REMARK   12  A    between atoms: C_25  and  S_26
REMARK   13  A    between atoms: S_26  and  C_27
REMARK   14  A    between atoms: C_28  and  C_38
REMARK                            x       y       z     vdW  Elec       q    Type
REMARK                         _______ _______ _______ _____ _____    ______ ____
ROOT
ATOM      1  C   UNL     1       1.569  -2.364   2.372  0.00  0.00    +0.088 C 
ATOM      2  C   UNL     1       1.492  -3.680   2.611  0.00  0.00    +0.128 C 
ATOM      3  O   UNL     1       2.019  -4.233   3.715  0.00  0.00    -0.444 OA
ATOM      4  C   UNL     1       2.950  -3.565   4.421  0.00  0.00    +0.198 C 
ATOM      5  C   UNL     1       3.114  -2.227   4.287  0.00  0.00    +0.098 C 
ATOM      6  C   UNL     1       2.260  -1.437   3.334  0.00  0.00    +0.105 C 
ENDROOT
BRANCH   6   7
ATOM      7  C   UNL     1       1.227  -0.667   4.116  0.00  0.00    -0.034 A 
ATOM      8  C   UNL     1       0.314  -1.341   4.905  0.00  0.00    +0.005 A 
ATOM      9  C   UNL     1      -0.633  -0.635   5.622  0.00  0.00    +0.004 A 
ATOM     10  C   UNL     1      -0.667   0.745   5.552  0.00  0.00    -0.045 A 
ATOM     11  C   UNL     1       0.247   1.419   4.764  0.00  0.00    +0.004 A 
ATOM     12  C   UNL     1       1.197   0.713   4.050  0.00  0.00    +0.005 A 
BRANCH  10  13
ATOM     13  C   UNL     1      -1.700   1.515   6.333  0.00  0.00    +0.013 C 
ATOM     14  C   UNL     1      -1.000   2.463   7.309  0.00  0.00    +0.012 C 
ATOM     15  C   UNL     1      -2.569   2.325   5.369  0.00  0.00    +0.012 C 
ENDBRANCH  10  13
ENDBRANCH   6   7
BRANCH   4  16
ATOM     16  N   UNL     1       3.751  -4.255   5.297  0.00  0.00    -0.328 N 
ATOM     17  H   UNL     1       3.642  -5.213   5.401  0.00  0.00    +0.145 HD
ATOM     18  H   UNL     1       4.425  -3.784   5.811  0.00  0.00    +0.145 HD
ENDBRANCH   4  16
BRANCH   1  19
ATOM     19  C   UNL     1       0.995  -1.837   1.189  0.00  0.00    +0.339 C 
ATOM     20  O   UNL     1       1.701  -1.584   0.231  0.00  0.00    -0.245 OA
BRANCH  19  21
ATOM     21  O   UNL     1      -0.334  -1.617   1.125  0.00  0.00    -0.462 OA
BRANCH  21  23
ATOM     22  C   UNL     1      -2.360  -0.903   0.017  0.00  0.00    +0.048 C 
ATOM     23  C   UNL     1      -0.845  -1.084  -0.099  0.00  0.00    +0.229 C 
ENDBRANCH  21  23
ENDBRANCH  19  21
ENDBRANCH   1  19
BRANCH   5  24
ATOM     24  C   UNL     1       4.117  -1.556   5.058  0.00  0.00    +0.101 C 
ATOM     25  N   UNL     1       4.913  -1.024   5.670  0.00  0.00    -0.191 NA
ENDBRANCH   5  24
BRANCH   2  26
ATOM     26  C   UNL     1       0.793  -4.565   1.612  0.00  0.00    +0.150 C 
BRANCH  26  27
ATOM     27  S   UNL     1       2.026  -5.492   0.658  0.00  0.00    -0.097 S 
BRANCH  27  28
ATOM     28  C   UNL     1       1.064  -6.466  -0.451  0.00  0.00    +0.115 A 
ATOM     29  C   UNL     1       1.704  -7.330  -1.357  0.00  0.00    +0.084 A 
ATOM     30  C   UNL     1       0.917  -8.096  -2.225  0.00  0.00    +0.027 A 
ATOM     31  C   UNL     1      -0.458  -7.960  -2.147  0.00  0.00    -0.025 A 
ATOM     32  C   UNL     1      -1.015  -7.093  -1.240  0.00  0.00    +0.046 A 
ATOM     33  N   UNL     1      -0.258  -6.382  -0.421  0.00  0.00    -0.244 NA
ATOM     34  C   UNL     1      -2.522  -6.944  -1.166  0.00  0.00    +0.056 C 
ATOM     35  C   UNL     1      -3.000  -6.219  -2.426  0.00  0.00    +0.006 C 
ATOM     36  C   UNL     1      -3.228  -7.196  -3.562  0.00  0.00    +0.001 C 
ATOM     37  C   UNL     1      -1.963  -7.834  -4.103  0.00  0.00    +0.005 C 
ATOM     38  C   UNL     1      -1.342  -8.775  -3.067  0.00  0.00    +0.037 C 
BRANCH  29  39
ATOM     39  C   UNL     1       3.133  -7.425  -1.390  0.00  0.00    +0.102 C 
ATOM     40  N   UNL     1       4.266  -7.501  -1.416  0.00  0.00    -0.191 NA
ENDBRANCH  29  39
ENDBRANCH  27  28
ENDBRANCH  26  27
ENDBRANCH   2  26
TORSDOF 11
