REMARK  Name = ZINC13033569
REMARK  11 active torsions:
REMARK  status: ('A' for Active; 'I' for Inactive)
REMARK    1  A    between atoms: C_1  and  O_2
REMARK    2  A    between atoms: O_2  and  C_3
REMARK    3  A    between atoms: C_7  and  C_17
REMARK    4  A    between atoms: C_14  and  O_15
REMARK    5  A    between atoms: O_15  and  C_16
REMARK    6  A    between atoms: C_17  and  N_68
REMARK    7  A    between atoms: C_18  and  C_19
REMARK    8  A    between atoms: C_18  and  N_68
REMARK    9  A    between atoms: N_23  and  C_24
REMARK   10  A    between atoms: C_24  and  C_25
REMARK   11  A    between atoms: C_31  and  N_68
REMARK                            x       y       z     vdW  Elec       q    Type
REMARK                         _______ _______ _______ _____ _____    ______ ____
ROOT
ATOM      1  N   UNL     1      -5.372   4.109  -1.331  0.00  0.00    +0.389 N 
ATOM      2  H   UNL     1      -4.496   4.553  -1.633  0.00  0.00    -0.080 HD
ENDROOT
BRANCH   1   3
ATOM      3  C   UNL     1      -5.520   2.815  -2.030  0.00  0.00    -0.068 C 
ATOM      4  C   UNL     1      -4.981   2.964  -3.454  0.00  0.00    -0.015 C 
ATOM      5  C   UNL     1      -5.110   1.629  -4.190  0.00  0.00    -0.002 C 
ATOM      6  C   UNL     1      -6.582   1.216  -4.243  0.00  0.00    -0.000 C 
ATOM      7  C   UNL     1      -7.121   1.067  -2.819  0.00  0.00    -0.002 C 
ATOM      8  C   UNL     1      -6.992   2.402  -2.082  0.00  0.00    -0.015 C 
ENDBRANCH   1   3
BRANCH   1   9
ATOM      9  C   UNL     1      -5.321   3.892   0.130  0.00  0.00    -0.037 C 
BRANCH   9  14
ATOM     10  C   UNL     1       0.638   3.510   1.792  0.00  0.00    +0.162 A 
ATOM     11  C   UNL     1      -0.545   4.148   1.488  0.00  0.00    +0.059 A 
ATOM     12  C   UNL     1      -1.673   3.391   1.148  0.00  0.00    +0.002 A 
ATOM     13  C   UNL     1      -2.943   4.037   0.820  0.00  0.00    +0.017 A 
ATOM     14  C   UNL     1      -4.000   3.256   0.479  0.00  0.00    +0.001 A 
ATOM     15  C   UNL     1      -3.870   1.853   0.464  0.00  0.00    +0.251 A 
ATOM     16  O   UNL     1      -4.835   1.170   0.166  0.00  0.00    -0.268 OA
ATOM     17  N   UNL     1      -2.709   1.248   0.770  0.00  0.00    -0.322 N 
ATOM     18  H   UNL     1      -2.654   0.280   0.749  0.00  0.00    +0.169 HD
ATOM     19  C   UNL     1      -1.593   1.985   1.112  0.00  0.00    +0.053 A 
ATOM     20  C   UNL     1      -0.395   1.357   1.427  0.00  0.00    +0.075 A 
ATOM     21  C   UNL     1       0.713   2.114   1.762  0.00  0.00    +0.163 A 
BRANCH  10  23
ATOM     22  C   UNL     1       1.591   5.662   2.135  0.00  0.00    +0.277 C 
ATOM     23  O   UNL     1       1.736   4.240   2.123  0.00  0.00    -0.491 OA
ENDBRANCH  10  23
BRANCH  21  24
ATOM     24  O   UNL     1       1.885   1.496   2.064  0.00  0.00    -0.491 OA
ATOM     25  C   UNL     1       1.896   0.068   2.015  0.00  0.00    +0.277 C 
ENDBRANCH  21  24
ENDBRANCH   9  14
ENDBRANCH   1   9
BRANCH   1  26
ATOM     26  C   UNL     1      -6.503   4.999  -1.670  0.00  0.00    +0.001 C 
BRANCH  26  27
ATOM     27  C   UNL     1      -6.429   5.342  -3.136  0.00  0.00    +0.135 A 
ATOM     28  N   UNL     1      -7.104   4.777  -4.107  0.00  0.00    -0.115 NA
ATOM     29  N   UNL     1      -6.765   5.347  -5.212  0.00  0.00    -0.023 NA
ATOM     30  N   UNL     1      -5.892   6.262  -4.970  0.00  0.00    -0.044 NA
ATOM     31  N   UNL     1      -5.662   6.294  -3.701  0.00  0.00    -0.227 N 
BRANCH  31  32
ATOM     32  C   UNL     1      -4.739   7.193  -3.006  0.00  0.00    +0.182 C 
BRANCH  32  33
ATOM     33  C   UNL     1      -3.374   6.557  -2.937  0.00  0.00    -0.026 A 
ATOM     34  C   UNL     1      -3.037   5.761  -1.858  0.00  0.00    +0.005 A 
ATOM     35  C   UNL     1      -1.787   5.173  -1.797  0.00  0.00    +0.000 A 
ATOM     36  C   UNL     1      -0.871   5.390  -2.810  0.00  0.00    +0.000 A 
ATOM     37  C   UNL     1      -1.207   6.191  -3.886  0.00  0.00    +0.000 A 
ATOM     38  C   UNL     1      -2.458   6.774  -3.949  0.00  0.00    +0.005 A 
ENDBRANCH  32  33
ENDBRANCH  31  32
ENDBRANCH  26  27
ENDBRANCH   1  26
TORSDOF 9
