REMARK  Name = ZINC19892214
REMARK  14 active torsions:
REMARK  status: ('A' for Active; 'I' for Inactive)
REMARK    1  A    between atoms: C_1  and  C_2
REMARK    2  A    between atoms: C_2  and  C_3
REMARK    3  A    between atoms: C_3  and  C_4
REMARK    4  A    between atoms: C_4  and  C_6
REMARK    5  A    between atoms: C_4  and  N_26
REMARK    6  A    between atoms: N_8  and  C_9
REMARK    7  A    between atoms: C_9  and  C_11
REMARK    8  A    between atoms: C_9  and  C_22
REMARK    9  A    between atoms: C_11  and  C_12
REMARK   10  A    between atoms: C_22  and  O_24
REMARK   11  A    between atoms: O_24  and  C_25
REMARK   12  A    between atoms: C_27  and  O_29
REMARK   13  A    between atoms: O_29  and  C_30
REMARK   14  A    between atoms: C_30  and  C_31
REMARK                            x       y       z     vdW  Elec       q    Type
REMARK                         _______ _______ _______ _____ _____    ______ ____
ROOT
ATOM      1  C   UNL     1      -0.718   1.572   1.248  0.00  0.00    +0.234 C 
ATOM      2  O   UNL     1      -1.714   2.256   1.150  0.00  0.00    -0.274 OA
ATOM      3  N   UNL     1      -0.242   1.246   2.466  0.00  0.00    -0.301 N 
ATOM      4  H   UNL     1       0.662   0.625   2.555  0.00  0.00    +0.150 HD
ENDROOT
BRANCH   1   5
ATOM      5  C   UNL     1      -0.013   1.086   0.008  0.00  0.00    +0.162 C 
BRANCH   5   6
ATOM      6  N   UNL     1      -0.721   1.571  -1.179  0.00  0.00    -0.270 N 
ATOM      7  C   UNL     1      -0.620   0.902  -2.344  0.00  0.00    +0.401 C 
ATOM      8  O   UNL     1       0.058  -0.104  -2.411  0.00  0.00    -0.226 OA
ATOM      9  H   UNL     1      -1.336   2.482  -1.119  0.00  0.00    +0.153 HD
BRANCH   7  10
ATOM     10  O   UNL     1      -1.272   1.348  -3.435  0.00  0.00    -0.446 OA
BRANCH  10  11
ATOM     11  C   UNL     1      -1.117   0.577  -4.656  0.00  0.00    +0.269 C 
BRANCH  11  12
ATOM     12  C   UNL     1      -1.912   1.223  -5.762  0.00  0.00    -0.010 A 
ATOM     13  C   UNL     1      -3.227   0.853  -5.975  0.00  0.00    +0.007 A 
ATOM     14  C   UNL     1      -3.958   1.449  -6.986  0.00  0.00    +0.000 A 
ATOM     15  C   UNL     1      -3.370   2.408  -7.790  0.00  0.00    +0.000 A 
ATOM     16  C   UNL     1      -2.054   2.774  -7.581  0.00  0.00    +0.000 A 
ATOM     17  C   UNL     1      -1.325   2.181  -6.566  0.00  0.00    +0.007 A 
ENDBRANCH  11  12
ENDBRANCH  10  11
ENDBRANCH   7  10
ENDBRANCH   5   6
BRANCH   5  18
ATOM     18  C   UNL     1       1.423   1.615  -0.003  0.00  0.00    +0.031 C 
BRANCH  18  20
ATOM     19  C   UNL     1       3.612   1.552  -1.206  0.00  0.00    +0.004 C 
ATOM     20  C   UNL     1       2.176   1.022  -1.195  0.00  0.00    -0.001 C 
ENDBRANCH  18  20
ENDBRANCH   5  18
ENDBRANCH   1   5
BRANCH   3  21
ATOM     21  C   UNL     1      -0.927   1.718   3.671  0.00  0.00    +0.186 C 
BRANCH  21  22
ATOM     22  C   UNL     1      -2.048   0.771   4.015  0.00  0.00    +0.328 C 
ATOM     23  O   UNL     1      -2.253  -0.199   3.325  0.00  0.00    -0.249 OA
BRANCH  22  24
ATOM     24  O   UNL     1      -2.818   1.006   5.089  0.00  0.00    -0.467 OA
ATOM     25  C   UNL     1      -3.879   0.051   5.360  0.00  0.00    +0.280 C 
ENDBRANCH  22  24
ENDBRANCH  21  22
BRANCH  21  26
ATOM     26  C   UNL     1       0.066   1.777   4.833  0.00  0.00    +0.071 C 
BRANCH  26  27
ATOM     27  C   UNL     1       1.120   2.814   4.542  0.00  0.00    -0.020 A 
ATOM     28  C   UNL     1       2.326   2.595   3.995  0.00  0.00    +0.087 A 
ATOM     29  N   UNL     1       3.008   3.776   3.881  0.00  0.00    -0.360 N 
ATOM     30  H   UNL     1       4.018   3.788   3.446  0.00  0.00    +0.165 HD
ATOM     31  C   UNL     1       2.241   4.809   4.371  0.00  0.00    +0.047 A 
ATOM     32  C   UNL     1       1.024   4.252   4.806  0.00  0.00    +0.003 A 
ATOM     33  C   UNL     1       0.039   5.074   5.356  0.00  0.00    +0.010 A 
ATOM     34  C   UNL     1       0.261   6.417   5.468  0.00  0.00    +0.001 A 
ATOM     35  C   UNL     1       1.460   6.972   5.041  0.00  0.00    +0.002 A 
ATOM     36  C   UNL     1       2.446   6.179   4.495  0.00  0.00    +0.026 A 
ENDBRANCH  26  27
ENDBRANCH  21  26
ENDBRANCH   3  21
TORSDOF 12
