REMARK  Name = ZINC58954644
REMARK  8 active torsions:
REMARK  status: ('A' for Active; 'I' for Inactive)
REMARK    1  A    between atoms: C_1  and  C_2
REMARK    2  A    between atoms: N_5  and  C_8
REMARK    3  A    between atoms: C_8  and  C_10
REMARK    4  A    between atoms: C_8  and  C_27
REMARK    5  A    between atoms: C_10  and  N_11
REMARK    6  A    between atoms: C_12  and  C_14
REMARK    7  A    between atoms: C_27  and  C_28
REMARK    8  A    between atoms: C_27  and  C_29
REMARK                            x       y       z     vdW  Elec       q    Type
REMARK                         _______ _______ _______ _____ _____    ______ ____
ROOT
ATOM      1  N   UNL     1       2.022  -4.292  -3.090  0.00  0.00    -0.317 N 
ATOM      2  C   UNL     1       2.368  -4.395  -4.388  0.00  0.00    +0.216 C 
ATOM      3  O   UNL     1       3.309  -5.087  -4.712  0.00  0.00    -0.276 OA
ATOM      4  H   UNL     1       1.269  -3.738  -2.830  0.00  0.00    +0.149 HD
ENDROOT
BRANCH   2   5
ATOM      5  C   UNL     1       1.585  -3.648  -5.438  0.00  0.00    +0.078 C 
ATOM      6  C   UNL     1       1.653  -2.146  -5.153  0.00  0.00    +0.032 C 
ATOM      7  C   UNL     1       0.828  -1.393  -6.201  0.00  0.00    +0.110 C 
ATOM      8  N   UNL     1       1.301  -1.776  -7.539  0.00  0.00    -0.285 N 
ATOM      9  C   UNL     1       1.362  -3.202  -7.885  0.00  0.00    +0.110 C 
ATOM     10  C   UNL     1       2.181  -3.935  -6.818  0.00  0.00    +0.032 C 
ATOM     11  C   UNL     1       1.672  -0.836  -8.431  0.00  0.00    +0.305 C 
ATOM     12  O   UNL     1       2.185  -1.165  -9.483  0.00  0.00    -0.252 OA
ATOM     13  N   UNL     1       1.474   0.469  -8.156  0.00  0.00    -0.285 N 
ATOM     14  C   UNL     1       1.016   1.014  -6.870  0.00  0.00    +0.109 C 
ATOM     15  C   UNL     1       0.911   2.545  -7.033  0.00  0.00    +0.020 C 
ATOM     16  C   UNL     1       0.772   2.723  -8.568  0.00  0.00    +0.020 C 
ATOM     17  C   UNL     1       1.686   1.586  -9.095  0.00  0.00    +0.109 C 
ENDBRANCH   2   5
BRANCH   1  18
ATOM     18  C   UNL     1       2.782  -5.018  -2.069  0.00  0.00    +0.089 C 
BRANCH  18  19
ATOM     19  C   UNL     1       2.305  -4.593  -0.679  0.00  0.00    -0.049 C 
BRANCH  19  24
ATOM     20  C   UNL     1       4.942   0.460  -0.479  0.00  0.00    +0.007 C 
ATOM     21  C   UNL     1       4.426  -0.906  -0.937  0.00  0.00    -0.018 C 
ATOM     22  C   UNL     1       4.912  -1.988   0.031  0.00  0.00    -0.016 C 
ATOM     23  C   UNL     1       4.327  -3.339  -0.387  0.00  0.00    -0.078 C 
ATOM     24  N   UNL     1       2.861  -3.273  -0.353  0.00  0.00    +0.383 N 
ATOM     25  C   UNL     1       2.384  -2.288  -1.331  0.00  0.00    -0.078 C 
ATOM     26  C   UNL     1       2.894  -0.896  -0.949  0.00  0.00    -0.016 C 
ATOM     27  H   UNL     1       2.559  -3.002   0.571  0.00  0.00    -0.081 HD
ENDBRANCH  19  24
BRANCH  19  28
ATOM     28  C   UNL     1       2.778  -5.615   0.357  0.00  0.00    -0.029 C 
ATOM     29  C   UNL     1       2.280  -5.204   1.744  0.00  0.00    +0.005 C 
ATOM     30  C   UNL     1       2.219  -6.995   0.003  0.00  0.00    +0.005 C 
ENDBRANCH  19  28
ENDBRANCH  18  19
ENDBRANCH   1  18
TORSDOF 5
