REMARK  Name = ZINC58919735
REMARK  2 active torsions:
REMARK  status: ('A' for Active; 'I' for Inactive)
REMARK    1  A    between atoms: N_4  and  C_6
REMARK    2  A    between atoms: C_12  and  C_14
REMARK                            x       y       z     vdW  Elec       q    Type
REMARK                         _______ _______ _______ _____ _____    ______ ____
ROOT
ATOM      1  C   UNL     1       1.571  -1.613   1.942  0.00  0.00    -0.051 C 
ATOM      2  C   UNL     1       3.058  -1.969   2.004  0.00  0.00    -0.012 C 
ATOM      3  C   UNL     1       3.217  -3.429   2.432  0.00  0.00    +0.017 C 
ATOM      4  C   UNL     1       2.546  -4.337   1.397  0.00  0.00    +0.107 C 
ATOM      5  N   UNL     1       1.151  -3.907   1.225  0.00  0.00    -0.303 N 
ATOM      6  C   UNL     1       0.881  -2.500   0.901  0.00  0.00    +0.092 C 
ATOM      7  C   UNL     1       0.140  -4.787   1.361  0.00  0.00    +0.219 C 
ATOM      8  O   UNL     1       0.379  -5.964   1.534  0.00  0.00    -0.275 OA
ENDROOT
BRANCH   1  12
ATOM      9  C   UNL     1      -0.081   1.637   2.070  0.00  0.00    -0.020 C 
ATOM     10  C   UNL     1       1.384   2.039   2.358  0.00  0.00    -0.020 C 
ATOM     11  C   UNL     1       2.084   0.672   2.562  0.00  0.00    -0.078 C 
ATOM     12  N   UNL     1       1.420  -0.202   1.561  0.00  0.00    +0.383 N 
ATOM     13  C   UNL     1      -0.009   0.180   1.577  0.00  0.00    -0.078 C 
ATOM     14  H   UNL     1       1.812  -0.043   0.645  0.00  0.00    -0.081 HD
ENDBRANCH   1  12
BRANCH   7  15
ATOM     15  C   UNL     1      -1.288  -4.310   1.298  0.00  0.00    +0.079 C 
ATOM     16  C   UNL     1      -2.196  -5.301   2.036  0.00  0.00    +0.017 C 
ATOM     17  C   UNL     1      -3.604  -4.705   2.111  0.00  0.00    +0.027 C 
ATOM     18  C   UNL     1      -4.035  -4.228   0.755  0.00  0.00    -0.031 C 
ATOM     19  C   UNL     1      -3.224  -4.018  -0.232  0.00  0.00    -0.030 C 
ATOM     20  C   UNL     1      -1.741  -4.233  -0.162  0.00  0.00    +0.039 C 
ENDBRANCH   7  15
TORSDOF 2
