REMARK  Name = ZINC63138902
REMARK  8 active torsions:
REMARK  status: ('A' for Active; 'I' for Inactive)
REMARK    1  A    between atoms: C_1  and  O_2
REMARK    2  A    between atoms: O_2  and  C_3
REMARK    3  A    between atoms: C_8  and  C_9
REMARK    4  A    between atoms: C_9  and  N_10
REMARK    5  A    between atoms: C_30  and  C_32
REMARK    6  A    between atoms: C_35  and  C_38
REMARK    7  A    between atoms: C_38  and  O_40
REMARK    8  A    between atoms: O_40  and  C_41
REMARK                            x       y       z     vdW  Elec       q    Type
REMARK                         _______ _______ _______ _____ _____    ______ ____
ROOT
ATOM      1  N   UNL     1      -1.400  -2.927  -0.212  0.00  0.00    -0.287 N 
ATOM      2  C   UNL     1      -2.238  -1.911   0.404  0.00  0.00    +0.204 C 
ATOM      3  C   UNL     1      -3.687  -2.127   0.119  0.00  0.00    +0.234 C 
ATOM      4  O   UNL     1      -4.477  -1.336   0.588  0.00  0.00    -0.274 OA
ATOM      5  N   UNL     1      -4.177  -3.132  -0.618  0.00  0.00    -0.279 N 
ATOM      6  C   UNL     1      -3.325  -4.135  -1.248  0.00  0.00    +0.167 C 
ATOM      7  C   UNL     1      -1.876  -3.923  -0.957  0.00  0.00    +0.237 C 
ATOM      8  O   UNL     1      -1.082  -4.710  -1.427  0.00  0.00    -0.274 OA
ATOM      9  C   UNL     1      -3.549  -4.132  -2.771  0.00  0.00    +0.065 C 
ATOM     10  C   UNL     1      -5.043  -4.108  -2.986  0.00  0.00    -0.034 C 
ATOM     11  C   UNL     1      -5.838  -4.871  -3.725  0.00  0.00    -0.001 A 
ATOM     12  C   UNL     1      -5.548  -5.944  -4.689  0.00  0.00    +0.010 A 
ATOM     13  C   UNL     1      -6.625  -6.542  -5.263  0.00  0.00    +0.001 A 
ATOM     14  C   UNL     1      -7.947  -6.184  -4.977  0.00  0.00    +0.002 A 
ATOM     15  C   UNL     1      -8.305  -5.203  -4.111  0.00  0.00    +0.026 A 
ATOM     16  C   UNL     1      -7.259  -4.495  -3.451  0.00  0.00    +0.043 A 
ATOM     17  N   UNL     1      -7.314  -3.510  -2.604  0.00  0.00    -0.375 N 
ATOM     18  C   UNL     1      -5.946  -3.100  -2.284  0.00  0.00    +0.131 C 
ATOM     19  C   UNL     1      -5.645  -3.212  -0.787  0.00  0.00    +0.133 C 
ATOM     20  H   UNL     1      -8.123  -3.114  -2.246  0.00  0.00    +0.160 HD
ENDROOT
BRANCH  19  21
ATOM     21  C   UNL     1      -6.308  -2.080  -0.046  0.00  0.00    -0.025 A 
ATOM     22  C   UNL     1      -6.454  -0.848  -0.659  0.00  0.00    +0.006 A 
ATOM     23  C   UNL     1      -7.059   0.193   0.013  0.00  0.00    +0.015 A 
ATOM     24  C   UNL     1      -7.526   0.002   1.315  0.00  0.00    +0.059 A 
ATOM     25  C   UNL     1      -7.376  -1.244   1.927  0.00  0.00    +0.015 A 
ATOM     26  C   UNL     1      -6.774  -2.278   1.242  0.00  0.00    +0.006 A 
BRANCH  24  27
ATOM     27  C   UNL     1      -8.176   1.112   2.042  0.00  0.00    +0.339 C 
ATOM     28  O   UNL     1      -8.304   2.195   1.506  0.00  0.00    -0.245 OA
BRANCH  27  29
ATOM     29  O   UNL     1      -8.625   0.924   3.297  0.00  0.00    -0.464 OA
ATOM     30  C   UNL     1      -9.242   2.041   3.940  0.00  0.00    +0.280 C 
ENDBRANCH  27  29
ENDBRANCH  24  27
ENDBRANCH  19  21
BRANCH   1  31
ATOM     31  C   UNL     1       0.048  -2.848  -0.005  0.00  0.00    +0.147 C 
BRANCH  31  37
ATOM     32  C   UNL     1       0.615  -0.626  -1.019  0.00  0.00    +0.125 A 
ATOM     33  C   UNL     1       1.190   0.143  -2.021  0.00  0.00    +0.046 A 
ATOM     34  C   UNL     1       1.806  -0.471  -3.093  0.00  0.00    +0.004 A 
ATOM     35  C   UNL     1       1.851  -1.851  -3.169  0.00  0.00    +0.001 A 
ATOM     36  C   UNL     1       1.279  -2.620  -2.172  0.00  0.00    +0.009 A 
ATOM     37  C   UNL     1       0.666  -2.010  -1.094  0.00  0.00    +0.011 A 
BRANCH  32  39
ATOM     38  C   UNL     1      -0.007   1.405   0.050  0.00  0.00    +0.277 C 
ATOM     39  O   UNL     1       0.008  -0.024   0.038  0.00  0.00    -0.495 OA
ENDBRANCH  32  39
ENDBRANCH  31  37
ENDBRANCH   1  31
TORSDOF 6
