REMARK  Name = ZINC27664560
REMARK  8 active torsions:
REMARK  status: ('A' for Active; 'I' for Inactive)
REMARK    1  A    between atoms: C_4  and  O_36
REMARK    2  A    between atoms: C_5  and  C_7
REMARK    3  A    between atoms: N_15  and  C_29
REMARK    4  A    between atoms: C_16  and  C_18
REMARK    5  A    between atoms: C_21  and  O_24
REMARK    6  A    between atoms: O_24  and  C_25
REMARK    7  A    between atoms: C_25  and  C_26
REMARK    8  A    between atoms: C_29  and  C_30
REMARK                            x       y       z     vdW  Elec       q    Type
REMARK                         _______ _______ _______ _____ _____    ______ ____
ROOT
ATOM      1  C   UNL     1       1.337  -2.430   0.141  0.00  0.00    +0.102 A 
ATOM      2  C   UNL     1       0.145  -3.163   0.153  0.00  0.00    +0.035 A 
ATOM      3  C   UNL     1       0.519  -4.491   0.075  0.00  0.00    +0.126 A 
ATOM      4  N   UNL     1       1.884  -4.499   0.021  0.00  0.00    -0.272 N 
ATOM      5  H   UNL     1       2.435  -5.295  -0.040  0.00  0.00    +0.189 HD
ATOM      6  N   UNL     1       2.330  -3.294   0.056  0.00  0.00    -0.173 NA
ATOM      7  C   UNL     1      -0.693  -5.318   0.083  0.00  0.00    +0.266 C 
ATOM      8  O   UNL     1      -0.704  -6.533   0.025  0.00  0.00    -0.268 OA
ATOM      9  N   UNL     1      -1.789  -4.543   0.163  0.00  0.00    -0.281 N 
ATOM     10  C   UNL     1      -1.357  -3.139   0.213  0.00  0.00    +0.142 C 
ENDROOT
BRANCH   1  15
ATOM     11  C   UNL     1       0.773   1.226  -0.530  0.00  0.00    +0.001 A 
ATOM     12  C   UNL     1       1.691   1.807   0.327  0.00  0.00    +0.004 A 
ATOM     13  C   UNL     1       2.496   1.017   1.126  0.00  0.00    +0.046 A 
ATOM     14  C   UNL     1       2.387  -0.363   1.071  0.00  0.00    +0.126 A 
ATOM     15  C   UNL     1       1.460  -0.953   0.207  0.00  0.00    +0.044 A 
ATOM     16  C   UNL     1       0.654  -0.148  -0.594  0.00  0.00    +0.014 A 
BRANCH  14  17
ATOM     17  O   UNL     1       3.178  -1.141   1.856  0.00  0.00    -0.506 OA
ATOM     18  H   UNL     1       2.796  -1.343   2.721  0.00  0.00    +0.292 HD
ENDBRANCH  14  17
ENDBRANCH   1  15
BRANCH  10  19
ATOM     19  C   UNL     1      -1.815  -2.502   1.500  0.00  0.00    -0.022 A 
ATOM     20  C   UNL     1      -1.591  -3.142   2.705  0.00  0.00    +0.009 A 
ATOM     21  C   UNL     1      -2.010  -2.560   3.886  0.00  0.00    +0.046 A 
ATOM     22  C   UNL     1      -2.655  -1.333   3.862  0.00  0.00    +0.121 A 
ATOM     23  C   UNL     1      -2.878  -0.692   2.652  0.00  0.00    +0.046 A 
ATOM     24  C   UNL     1      -2.453  -1.276   1.474  0.00  0.00    +0.009 A 
BRANCH  22  25
ATOM     25  O   UNL     1      -3.069  -0.758   5.022  0.00  0.00    -0.483 OA
BRANCH  25  26
ATOM     26  C   UNL     1      -3.726   0.507   4.922  0.00  0.00    +0.324 C 
BRANCH  26  27
ATOM     27  C   UNL     1      -4.109   0.984   6.299  0.00  0.00    +0.248 C 
ATOM     28  O   UNL     1      -3.845   0.308   7.270  0.00  0.00    -0.272 OA
ATOM     29  N   UNL     1      -4.746   2.163   6.450  0.00  0.00    -0.327 N 
ATOM     30  H   UNL     1      -4.957   2.703   5.673  0.00  0.00    +0.145 HD
ATOM     31  H   UNL     1      -4.992   2.470   7.337  0.00  0.00    +0.145 HD
ENDBRANCH  26  27
ENDBRANCH  25  26
ENDBRANCH  22  25
ENDBRANCH  10  19
BRANCH   9  32
ATOM     32  C   UNL     1      -3.175  -5.016   0.196  0.00  0.00    +0.145 C 
BRANCH  32  33
ATOM     33  C   UNL     1      -3.594  -5.245   1.625  0.00  0.00    -0.012 A 
ATOM     34  C   UNL     1      -3.399  -6.481   2.224  0.00  0.00    +0.008 A 
ATOM     35  C   UNL     1      -3.801  -6.646   3.541  0.00  0.00    +0.020 A 
ATOM     36  C   UNL     1      -4.377  -5.582   4.208  0.00  0.00    +0.111 A 
ATOM     37  N   UNL     1      -4.547  -4.421   3.606  0.00  0.00    -0.263 NA
ATOM     38  C   UNL     1      -4.171  -4.226   2.357  0.00  0.00    +0.115 A 
ENDBRANCH  32  33
ENDBRANCH   9  32
TORSDOF 8
