REMARK  Name = ZINC35743802
REMARK  15 active torsions:
REMARK  status: ('A' for Active; 'I' for Inactive)
REMARK    1  A    between atoms: C_1  and  C_2
REMARK    2  A    between atoms: C_2  and  C_4
REMARK    3  A    between atoms: C_2  and  N_19
REMARK    4  A    between atoms: N_14  and  C_15
REMARK    5  A    between atoms: C_15  and  C_16
REMARK    6  A    between atoms: C_16  and  O_17
REMARK    7  A    between atoms: O_17  and  C_18
REMARK    8  A    between atoms: N_19  and  C_20
REMARK    9  A    between atoms: C_20  and  C_21
REMARK   10  A    between atoms: C_21  and  C_22
REMARK   11  A    between atoms: C_22  and  C_23
REMARK   12  A    between atoms: C_23  and  C_24
REMARK   13  A    between atoms: C_24  and  C_25
REMARK   14  A    between atoms: C_25  and  N_26
REMARK   15  A    between atoms: C_27  and  C_29
REMARK                            x       y       z     vdW  Elec       q    Type
REMARK                         _______ _______ _______ _____ _____    ______ ____
ROOT
ATOM      1  N   UNL     1      -1.113  -0.457   0.054  0.00  0.00    -0.288 N 
ATOM      2  C   UNL     1      -1.878   0.007   1.062  0.00  0.00    +0.248 C 
ATOM      3  O   UNL     1      -1.448   0.869   1.805  0.00  0.00    -0.270 OA
ENDROOT
BRANCH   2   4
ATOM      4  C   UNL     1      -3.237  -0.529   1.264  0.00  0.00    +0.045 A 
ATOM      5  C   UNL     1      -4.179  -0.453   0.248  0.00  0.00    +0.014 A 
ATOM      6  C   UNL     1      -5.460  -0.957   0.432  0.00  0.00    +0.001 A 
ATOM      7  C   UNL     1      -5.829  -1.537   1.609  0.00  0.00    +0.008 A 
ATOM      8  C   UNL     1      -4.907  -1.635   2.665  0.00  0.00    -0.017 A 
ATOM      9  C   UNL     1      -3.594  -1.133   2.495  0.00  0.00    -0.006 A 
ATOM     10  C   UNL     1      -2.675  -1.236   3.548  0.00  0.00    +0.009 A 
ATOM     11  C   UNL     1      -3.052  -1.822   4.718  0.00  0.00    +0.001 A 
ATOM     12  C   UNL     1      -4.341  -2.322   4.886  0.00  0.00    +0.001 A 
ATOM     13  C   UNL     1      -5.263  -2.228   3.889  0.00  0.00    +0.008 A 
ENDBRANCH   2   4
BRANCH   1  15
ATOM     14  C   UNL     1       0.299   1.528  -0.159  0.00  0.00    +0.036 C 
ATOM     15  C   UNL     1       0.272   0.001  -0.085  0.00  0.00    +0.139 C 
BRANCH  15  16
ATOM     16  C   UNL     1       1.074  -0.459   1.105  0.00  0.00    +0.133 A 
ATOM     17  N   UNL     1       0.784   0.032   2.271  0.00  0.00    -0.232 NA
ATOM     18  C   UNL     1       1.462  -0.335   3.387  0.00  0.00    +0.078 A 
ATOM     19  C   UNL     1       1.150   0.193   4.641  0.00  0.00    +0.028 A 
ATOM     20  C   UNL     1       1.865  -0.208   5.747  0.00  0.00    +0.002 A 
ATOM     21  C   UNL     1       2.895  -1.133   5.631  0.00  0.00    +0.001 A 
ATOM     22  C   UNL     1       3.222  -1.668   4.405  0.00  0.00    +0.015 A 
ATOM     23  C   UNL     1       2.510  -1.275   3.273  0.00  0.00    +0.065 A 
ATOM     24  C   UNL     1       2.814  -1.812   1.938  0.00  0.00    +0.262 A 
ATOM     25  O   UNL     1       3.704  -2.625   1.771  0.00  0.00    -0.267 OA
ATOM     26  N   UNL     1       2.061  -1.371   0.903  0.00  0.00    -0.292 N 
BRANCH  26  27
ATOM     27  C   UNL     1       2.316  -1.878  -0.447  0.00  0.00    +0.154 C 
BRANCH  27  28
ATOM     28  C   UNL     1       3.236  -0.908  -1.191  0.00  0.00    +0.181 C 
BRANCH  28  29
ATOM     29  O   UNL     1       4.519  -0.892  -0.562  0.00  0.00    -0.381 OA
ATOM     30  C   UNL     1       5.460  -0.013  -1.182  0.00  0.00    +0.194 C 
ENDBRANCH  28  29
ENDBRANCH  27  28
ENDBRANCH  26  27
ENDBRANCH  15  16
ENDBRANCH   1  15
BRANCH   1  31
ATOM     31  C   UNL     1      -1.667  -1.418  -0.902  0.00  0.00    +0.109 C 
BRANCH  31  32
ATOM     32  C   UNL     1      -1.416  -2.841  -0.398  0.00  0.00    +0.019 C 
BRANCH  32  33
ATOM     33  C   UNL     1      -1.994  -3.845  -1.397  0.00  0.00    +0.001 C 
BRANCH  33  34
ATOM     34  C   UNL     1      -1.743  -5.268  -0.893  0.00  0.00    -0.002 C 
BRANCH  34  35
ATOM     35  C   UNL     1      -2.321  -6.272  -1.892  0.00  0.00    -0.020 C 
BRANCH  35  36
ATOM     36  C   UNL     1      -2.071  -7.695  -1.387  0.00  0.00    -0.086 C 
BRANCH  36  37
ATOM     37  N   UNL     1      -2.625  -8.660  -2.347  0.00  0.00    +0.378 N 
ATOM     38  H   UNL     1      -2.460  -9.598  -2.014  0.00  0.00    -0.090 HD
ATOM     39  H   UNL     1      -3.618  -8.506  -2.442  0.00  0.00    -0.090 HD
ATOM     40  H   UNL     1      -2.179  -8.537  -3.243  0.00  0.00    -0.090 HD
ENDBRANCH  36  37
ENDBRANCH  35  36
ENDBRANCH  34  35
ENDBRANCH  33  34
ENDBRANCH  32  33
ENDBRANCH  31  32
ENDBRANCH   1  31
TORSDOF 13
