REMARK  Name = ZINC12054472
REMARK  8 active torsions:
REMARK  status: ('A' for Active; 'I' for Inactive)
REMARK    1  A    between atoms: C_10  and  C_11
REMARK    2  A    between atoms: C_11  and  C_12
REMARK    3  A    between atoms: C_12  and  N_71
REMARK    4  A    between atoms: C_13  and  N_71
REMARK    5  A    between atoms: N_16  and  C_19
REMARK    6  A    between atoms: C_22  and  C_25
REMARK    7  A    between atoms: C_25  and  C_26
REMARK    8  A    between atoms: C_31  and  O_34
REMARK                            x       y       z     vdW  Elec       q    Type
REMARK                         _______ _______ _______ _____ _____    ______ ____
ROOT
ATOM      1  C   UNL     1       1.808  -4.713  -1.054  0.00  0.00    -0.069 C 
ATOM      2  C   UNL     1       2.606  -4.105   0.103  0.00  0.00    +0.003 C 
ATOM      3  C   UNL     1       2.617  -2.581  -0.036  0.00  0.00    +0.103 C 
ATOM      4  N   UNL     1       1.238  -2.077  -0.021  0.00  0.00    -0.330 N 
ATOM      5  C   UNL     1       0.465  -2.610  -1.149  0.00  0.00    +0.103 C 
ATOM      6  C   UNL     1       0.390  -4.135  -1.044  0.00  0.00    +0.003 C 
ENDROOT
BRANCH   4   7
ATOM      7  C   UNL     1       1.215  -0.681  -0.013  0.00  0.00    +0.030 A 
ATOM      8  C   UNL     1       0.002  -0.004   0.002  0.00  0.00    +0.023 A 
ATOM      9  C   UNL     1      -0.017   1.377   0.010  0.00  0.00    +0.006 A 
ATOM     10  C   UNL     1       1.171   2.086   0.002  0.00  0.00    -0.039 A 
ATOM     11  C   UNL     1       2.380   1.416  -0.013  0.00  0.00    +0.006 A 
ATOM     12  C   UNL     1       2.406   0.035  -0.021  0.00  0.00    +0.023 A 
BRANCH  10  13
ATOM     13  C   UNL     1       1.146   3.593   0.010  0.00  0.00    +0.131 C 
BRANCH  13  14
ATOM     14  C   UNL     1       1.151   4.088   1.433  0.00  0.00    +0.220 C 
ATOM     15  O   UNL     1       1.173   3.295   2.351  0.00  0.00    -0.275 OA
ATOM     16  N   UNL     1       1.132   5.412   1.687  0.00  0.00    -0.301 N 
ATOM     17  C   UNL     1       1.112   6.384   0.585  0.00  0.00    +0.110 C 
ATOM     18  C   UNL     1      -0.074   7.337   0.796  0.00  0.00    +0.050 C 
ATOM     19  C   UNL     1       0.025   7.965   2.188  0.00  0.00    +0.118 C 
ATOM     20  C   UNL     1      -0.044   6.867   3.252  0.00  0.00    +0.050 C 
ATOM     21  C   UNL     1       1.137   5.909   3.069  0.00  0.00    +0.110 C 
BRANCH  19  22
ATOM     22  O   UNL     1      -1.057   8.879   2.376  0.00  0.00    -0.392 OA
ATOM     23  H   UNL     1      -1.077   9.604   1.735  0.00  0.00    +0.210 HD
ENDBRANCH  19  22
ENDBRANCH  13  14
ENDBRANCH  10  13
ENDBRANCH   4   7
BRANCH   1  24
ATOM     24  N   UNL     1       1.745  -6.177  -0.884  0.00  0.00    +0.381 N 
ATOM     25  H   UNL     1       2.626  -6.508  -0.472  0.00  0.00    -0.086 HD
ATOM     26  H   UNL     1       0.965  -6.412  -0.260  0.00  0.00    -0.086 HD
BRANCH  24  27
ATOM     27  C   UNL     1       1.541  -6.835  -2.188  0.00  0.00    -0.078 C 
BRANCH  27  28
ATOM     28  C   UNL     1       1.480  -8.350  -1.981  0.00  0.00    +0.017 C 
BRANCH  28  38
ATOM     29  C   UNL     1       4.510  -9.926  -5.795  0.00  0.00    +0.001 A 
ATOM     30  C   UNL     1       4.722  -9.296  -4.570  0.00  0.00    +0.001 A 
ATOM     31  C   UNL     1       3.682  -8.996  -3.746  0.00  0.00    +0.009 A 
ATOM     32  C   UNL     1       2.371  -9.324  -4.133  0.00  0.00    -0.015 A 
ATOM     33  C   UNL     1       2.155  -9.964  -5.379  0.00  0.00    -0.018 A 
ATOM     34  C   UNL     1       3.255 -10.259  -6.203  0.00  0.00    +0.008 A 
ATOM     35  C   UNL     1       0.845 -10.293  -5.766  0.00  0.00    +0.008 A 
ATOM     36  C   UNL     1      -0.197  -9.993  -4.942  0.00  0.00    +0.001 A 
ATOM     37  C   UNL     1       0.017  -9.369  -3.715  0.00  0.00    +0.004 A 
ATOM     38  C   UNL     1       1.271  -9.030  -3.309  0.00  0.00    -0.041 A 
ENDBRANCH  28  38
ENDBRANCH  27  28
ENDBRANCH  24  27
ENDBRANCH   1  24
TORSDOF 8
