REMARK  Name = ZINC20478543
REMARK  5 active torsions:
REMARK  status: ('A' for Active; 'I' for Inactive)
REMARK    1  A    between atoms: C_6  and  N_7
REMARK    2  A    between atoms: N_7  and  C_8
REMARK    3  A    between atoms: C_8  and  C_10
REMARK    4  A    between atoms: N_12  and  C_13
REMARK    5  A    between atoms: C_14  and  C_23
REMARK                            x       y       z     vdW  Elec       q    Type
REMARK                         _______ _______ _______ _____ _____    ______ ____
ROOT
ATOM      1  C   UNL     1       6.566  -2.695   1.303  0.00  0.00    +0.270 C 
ATOM      2  O   UNL     1       6.855  -1.676   0.708  0.00  0.00    -0.268 OA
ATOM      3  N   UNL     1       5.274  -3.060   1.427  0.00  0.00    -0.274 N 
ATOM      4  H   UNL     1       5.012  -3.982   1.965  0.00  0.00    +0.156 HD
ENDROOT
BRANCH   3   5
ATOM      5  C   UNL     1       4.277  -2.273   0.876  0.00  0.00    +0.085 A 
ATOM      6  C   UNL     1       2.906  -2.479   0.898  0.00  0.00    +0.068 A 
ATOM      7  C   UNL     1       2.062  -1.492   0.239  0.00  0.00    -0.023 A 
ATOM      8  C   UNL     1       2.728  -0.468  -0.338  0.00  0.00    -0.004 A 
ATOM      9  S   UNL     1       4.438  -0.793  -0.009  0.00  0.00    -0.077 S 
ATOM     10  C   UNL     1       2.152   0.682  -1.105  0.00  0.00    +0.043 C 
ATOM     11  C   UNL     1       0.997   1.297  -0.303  0.00  0.00    +0.005 C 
ATOM     12  C   UNL     1      -0.294   0.582  -0.691  0.00  0.00    +0.001 C 
ATOM     13  C   UNL     1      -0.006  -0.882  -1.018  0.00  0.00    +0.005 C 
ATOM     14  C   UNL     1       0.543  -1.604   0.207  0.00  0.00    +0.037 C 
BRANCH   6  15
ATOM     15  C   UNL     1       2.325  -3.651   1.561  0.00  0.00    +0.244 C 
ATOM     16  O   UNL     1       2.151  -4.680   0.936  0.00  0.00    -0.270 OA
ATOM     17  N   UNL     1       1.984  -3.588   2.864  0.00  0.00    -0.325 N 
ATOM     18  H   UNL     1       1.549  -4.467   3.362  0.00  0.00    +0.145 HD
ATOM     19  H   UNL     1       2.142  -2.657   3.429  0.00  0.00    +0.145 HD
ENDBRANCH   6  15
ENDBRANCH   3   5
BRANCH   1  20
ATOM     20  C   UNL     1       7.635  -3.539   1.893  0.00  0.00    +0.139 C 
ATOM     21  S   UNL     1       7.227  -4.975   2.731  0.00  0.00    -0.030 S 
BRANCH  20  22
ATOM     22  N   UNL     1       8.926  -3.174   1.769  0.00  0.00    -0.305 N 
ATOM     23  H   UNL     1       9.193  -2.290   1.172  0.00  0.00    +0.153 HD
BRANCH  22  29
ATOM     24  C   UNL     1      10.939  -3.274   3.098  0.00  0.00    +0.024 A 
ATOM     25  C   UNL     1      11.922  -4.013   3.726  0.00  0.00    +0.017 A 
ATOM     26  C   UNL     1      11.906  -5.395   3.649  0.00  0.00    +0.018 A 
ATOM     27  C   UNL     1      10.902  -6.040   2.949  0.00  0.00    +0.017 A 
ATOM     28  C   UNL     1       9.912  -5.306   2.324  0.00  0.00    +0.024 A 
ATOM     29  C   UNL     1       9.926  -3.919   2.400  0.00  0.00    +0.032 A 
ATOM     30 BR   UNL     1      13.259  -6.403   4.502  0.00  0.00    -0.050 Br
ENDBRANCH  22  29
ENDBRANCH  20  22
ENDBRANCH   1  20
TORSDOF 5
