REMARK  Name = ZINC02508400
REMARK  7 active torsions:
REMARK  status: ('A' for Active; 'I' for Inactive)
REMARK    1  A    between atoms: C_1  and  O_2
REMARK    2  A    between atoms: O_2  and  C_3
REMARK    3  A    between atoms: C_6  and  C_9
REMARK    4  A    between atoms: C_17  and  N_18
REMARK    5  A    between atoms: C_24  and  C_25
REMARK    6  A    between atoms: C_24  and  C_31
REMARK    7  A    between atoms: C_24  and  N_66
REMARK                            x       y       z     vdW  Elec       q    Type
REMARK                         _______ _______ _______ _____ _____    ______ ____
ROOT
ATOM      1  C   UNL     1      -6.303   8.854  -6.985  0.00  0.00    +0.040 A 
ATOM      2  C   UNL     1      -6.780   9.543  -5.859  0.00  0.00    +0.126 A 
ATOM      3  N   UNL     1      -6.143   9.457  -4.712  0.00  0.00    -0.218 NA
ATOM      4  C   UNL     1      -5.034   8.719  -4.583  0.00  0.00    +0.256 A 
ATOM      5  N   UNL     1      -4.238   8.480  -3.544  0.00  0.00    -0.176 NA
ATOM      6  C   UNL     1      -3.245   7.674  -3.915  0.00  0.00    +0.239 A 
ATOM      7  N   UNL     1      -3.381   7.369  -5.188  0.00  0.00    -0.126 NA
ATOM      8  N   UNL     1      -4.528   8.029  -5.648  0.00  0.00    -0.180 N 
ATOM      9  C   UNL     1      -5.149   8.084  -6.860  0.00  0.00    +0.131 A 
ATOM     10  N   UNL     1      -2.225   7.219  -3.083  0.00  0.00    -0.302 N 
ATOM     11  C   UNL     1      -2.377   7.753  -1.723  0.00  0.00    +0.089 C 
ATOM     12  C   UNL     1      -1.197   7.296  -0.863  0.00  0.00    -0.058 C 
ATOM     13  C   UNL     1      -0.995   5.293  -2.207  0.00  0.00    -0.058 C 
ATOM     14  C   UNL     1      -2.175   5.750  -3.067  0.00  0.00    +0.089 C 
ATOM     15  N   UNL     1      -1.171   5.818  -0.837  0.00  0.00    +0.389 N 
ATOM     16  H   UNL     1      -2.063   5.476  -0.460  0.00  0.00    -0.080 HD
ENDROOT
BRANCH   1  20
ATOM     17  C   UNL     1      -8.343   9.116 -10.708  0.00  0.00    +0.120 A 
ATOM     18  C   UNL     1      -9.049   8.811  -9.552  0.00  0.00    +0.046 A 
ATOM     19  C   UNL     1      -8.390   8.726  -8.343  0.00  0.00    +0.012 A 
ATOM     20  C   UNL     1      -7.015   8.946  -8.283  0.00  0.00    -0.013 A 
ATOM     21  C   UNL     1      -6.310   9.257  -9.445  0.00  0.00    +0.012 A 
ATOM     22  C   UNL     1      -6.974   9.335 -10.652  0.00  0.00    +0.046 A 
BRANCH  17  24
ATOM     23  C   UNL     1      -8.208   9.517 -13.048  0.00  0.00    +0.277 C 
ATOM     24  O   UNL     1      -8.995   9.200 -11.898  0.00  0.00    -0.495 OA
ENDBRANCH  17  24
ENDBRANCH   1  20
BRANCH   9  25
ATOM     25  N   UNL     1      -4.647   7.392  -7.938  0.00  0.00    -0.342 N 
ATOM     26  H   UNL     1      -3.842   6.858  -7.840  0.00  0.00    +0.144 HD
ATOM     27  H   UNL     1      -5.096   7.438  -8.796  0.00  0.00    +0.144 HD
ENDBRANCH   9  25
BRANCH  15  28
ATOM     28  C   UNL     1      -0.070   5.347   0.031  0.00  0.00    -0.007 C 
BRANCH  28  29
ATOM     29  C   UNL     1      -0.050   3.840   0.023  0.00  0.00    -0.057 A 
ATOM     30  C   UNL     1       1.156   3.165   0.008  0.00  0.00    +0.002 A 
ATOM     31  C   UNL     1       1.175   1.783   0.000  0.00  0.00    +0.000 A 
ATOM     32  C   UNL     1      -0.013   1.076   0.008  0.00  0.00    +0.000 A 
ATOM     33  C   UNL     1      -1.219   1.751   0.017  0.00  0.00    +0.000 A 
ATOM     34  C   UNL     1      -1.238   3.133   0.030  0.00  0.00    +0.002 A 
ENDBRANCH  28  29
BRANCH  28  35
ATOM     35  C   UNL     1      -0.311   5.838   1.435  0.00  0.00    -0.057 A 
ATOM     36  C   UNL     1      -1.593   5.858   1.951  0.00  0.00    +0.002 A 
ATOM     37  C   UNL     1      -1.813   6.304   3.241  0.00  0.00    +0.000 A 
ATOM     38  C   UNL     1      -0.751   6.740   4.011  0.00  0.00    +0.000 A 
ATOM     39  C   UNL     1       0.530   6.726   3.494  0.00  0.00    +0.000 A 
ATOM     40  C   UNL     1       0.751   6.275   2.206  0.00  0.00    +0.002 A 
ENDBRANCH  28  35
ENDBRANCH  15  28
TORSDOF 6
