REMARK  Name = ZINC13609727
REMARK  7 active torsions:
REMARK  status: ('A' for Active; 'I' for Inactive)
REMARK    1  A    between atoms: C_1  and  C_2
REMARK    2  A    between atoms: C_2  and  C_31
REMARK    3  A    between atoms: C_7  and  N_11
REMARK    4  A    between atoms: C_8  and  C_9
REMARK    5  A    between atoms: C_12  and  C_14
REMARK    6  A    between atoms: C_19  and  C_22
REMARK    7  A    between atoms: C_22  and  C_23
REMARK                            x       y       z     vdW  Elec       q    Type
REMARK                         _______ _______ _______ _____ _____    ______ ____
ROOT
ATOM      1  N   UNL     1      -2.361   4.287   0.251  0.00  0.00    -0.272 N 
ATOM      2  C   UNL     1      -1.192   3.624   0.140  0.00  0.00    +0.304 C 
ATOM      3  O   UNL     1      -0.145   4.237   0.139  0.00  0.00    -0.265 OA
ATOM      4  H   UNL     1      -3.198   3.797   0.252  0.00  0.00    +0.156 HD
ENDROOT
BRANCH   1  11
ATOM      5  C   UNL     1      -4.550  11.464   1.156  0.00  0.00    +0.041 C 
ATOM      6  C   UNL     1      -3.567  10.295   1.233  0.00  0.00    +0.068 C 
ATOM      7  C   UNL     1      -4.251   9.021   0.726  0.00  0.00    +0.071 C 
ATOM      8  C   UNL     1      -3.187   7.939   0.586  0.00  0.00    -0.016 A 
ATOM      9  C   UNL     1      -1.879   8.282   0.549  0.00  0.00    +0.021 A 
ATOM     10  S   UNL     1      -1.014   6.749   0.384  0.00  0.00    -0.075 S 
ATOM     11  C   UNL     1      -2.366   5.666   0.363  0.00  0.00    +0.087 A 
ATOM     12  C   UNL     1      -3.459   6.519   0.479  0.00  0.00    +0.095 A 
ATOM     13  C   UNL     1      -1.329   9.672   0.632  0.00  0.00    +0.203 C 
ATOM     14  O   UNL     1      -2.418  10.588   0.434  0.00  0.00    -0.368 OA
ATOM     15  C   UNL     1      -3.132  10.093   2.686  0.00  0.00    +0.041 C 
BRANCH  12  16
ATOM     16  C   UNL     1      -4.829   6.002   0.498  0.00  0.00    +0.389 C 
ATOM     17  O   UNL     1      -5.353   5.703   1.554  0.00  0.00    -0.240 OA
ATOM     18  O   UNL     1      -5.511   5.858  -0.657  0.00  0.00    -0.240 OA
ENDBRANCH  12  16
ENDBRANCH   1  11
BRANCH   2  19
ATOM     19  C   UNL     1      -1.187   2.136   0.019  0.00  0.00    +0.302 C 
ATOM     20  O   UNL     1      -2.221   1.513   0.144  0.00  0.00    -0.265 OA
ATOM     21  N   UNL     1      -0.033   1.484  -0.228  0.00  0.00    -0.294 N 
ATOM     22  C   UNL     1       0.028   0.018  -0.158  0.00  0.00    +0.108 C 
ATOM     23  C   UNL     1       0.610  -0.515  -1.471  0.00  0.00    +0.023 C 
ATOM     24  C   UNL     1       1.958   0.159  -1.738  0.00  0.00    -0.004 C 
ATOM     25  C   UNL     1       1.756   1.669  -1.877  0.00  0.00    +0.023 C 
ATOM     26  C   UNL     1       1.188   2.227  -0.568  0.00  0.00    +0.108 C 
BRANCH  24  27
ATOM     27  C   UNL     1       2.557  -0.397  -3.031  0.00  0.00    +0.038 C 
BRANCH  27  28
ATOM     28  C   UNL     1       2.870  -1.860  -2.853  0.00  0.00    -0.047 A 
ATOM     29  C   UNL     1       4.112  -2.250  -2.388  0.00  0.00    +0.003 A 
ATOM     30  C   UNL     1       4.397  -3.592  -2.220  0.00  0.00    +0.000 A 
ATOM     31  C   UNL     1       3.443  -4.545  -2.526  0.00  0.00    +0.000 A 
ATOM     32  C   UNL     1       2.202  -4.155  -2.995  0.00  0.00    +0.000 A 
ATOM     33  C   UNL     1       1.916  -2.812  -3.159  0.00  0.00    +0.003 A 
ENDBRANCH  27  28
ENDBRANCH  24  27
ENDBRANCH   2  19
TORSDOF 5
