REMARK  Name = ZINC25308828
REMARK  6 active torsions:
REMARK  status: ('A' for Active; 'I' for Inactive)
REMARK    1  A    between atoms: C_1  and  C_2
REMARK    2  A    between atoms: C_4  and  C_31
REMARK    3  A    between atoms: C_14  and  C_17
REMARK    4  A    between atoms: C_22  and  O_23
REMARK    5  A    between atoms: O_23  and  C_24
REMARK    6  A    between atoms: C_24  and  C_25
REMARK                            x       y       z     vdW  Elec       q    Type
REMARK                         _______ _______ _______ _____ _____    ______ ____
ROOT
ATOM      1  C   UNL     1       3.539  11.797  -0.519  0.00  0.00    +0.044 C 
ATOM      2  C   UNL     1       3.562  11.529  -2.002  0.00  0.00    -0.037 A 
ATOM      3  C   UNL     1       4.206  12.371  -2.890  0.00  0.00    +0.025 A 
ATOM      4  C   UNL     1       4.227  12.125  -4.251  0.00  0.00    +0.014 A 
ATOM      5  N   UNL     1       3.633  11.067  -4.789  0.00  0.00    -0.353 N 
ATOM      6  C   UNL     1       3.010  10.236  -3.983  0.00  0.00    +0.088 A 
ATOM      7  C   UNL     1       2.924  10.396  -2.572  0.00  0.00    +0.030 A 
ATOM      8  C   UNL     1       2.185   9.373  -1.861  0.00  0.00    +0.058 A 
ATOM      9  C   UNL     1       1.664   8.343  -2.639  0.00  0.00    +0.097 A 
ATOM     10  S   UNL     1       2.123   8.739  -4.298  0.00  0.00    -0.064 S 
ATOM     11  C   UNL     1       0.938   7.255  -2.119  0.00  0.00    +0.254 C 
ATOM     12  O   UNL     1       0.341   6.468  -2.832  0.00  0.00    -0.270 OA
ATOM     13  N   UNL     1       0.951   7.147  -0.763  0.00  0.00    -0.289 N 
ATOM     14  C   UNL     1       1.853   7.982   0.026  0.00  0.00    +0.193 C 
ATOM     15  N   UNL     1       1.948   9.354  -0.476  0.00  0.00    -0.321 N 
ATOM     16  C   UNL     1       4.948  13.092  -5.154  0.00  0.00    +0.063 C 
ATOM     17  H   UNL     1       0.284   6.431  -0.261  0.00  0.00    +0.151 HD
ATOM     18  H   UNL     1       1.836  10.202   0.215  0.00  0.00    +0.148 HD
ATOM     19  H   UNL     1       3.672  10.908  -5.877  0.00  0.00    +0.166 HD
ENDROOT
BRANCH  14  20
ATOM     20  C   UNL     1       3.226   7.363   0.010  0.00  0.00    +0.032 A 
ATOM     21  C   UNL     1       4.348   8.169   0.004  0.00  0.00    +0.011 A 
ATOM     22  C   UNL     1       5.609   7.602  -0.010  0.00  0.00    +0.001 A 
ATOM     23  C   UNL     1       5.750   6.226  -0.018  0.00  0.00    +0.004 A 
ATOM     24  C   UNL     1       4.632   5.416  -0.007  0.00  0.00    +0.046 A 
ATOM     25  C   UNL     1       3.366   5.983   0.002  0.00  0.00    +0.128 A 
BRANCH  25  26
ATOM     26  O   UNL     1       2.264   5.188   0.008  0.00  0.00    -0.485 OA
BRANCH  26  27
ATOM     27  C   UNL     1       2.483   3.776  -0.001  0.00  0.00    +0.284 C 
BRANCH  27  28
ATOM     28  C   UNL     1       1.156   3.061   0.007  0.00  0.00    +0.078 A 
ATOM     29  C   UNL     1      -0.015   3.796   0.022  0.00  0.00    +0.027 A 
ATOM     30  C   UNL     1      -1.231   3.129   0.030  0.00  0.00    +0.003 A 
ATOM     31  C   UNL     1      -1.223   1.742   0.017  0.00  0.00    +0.020 A 
ATOM     32  C   UNL     1      -0.013   1.076   0.008  0.00  0.00    +0.111 A 
ATOM     33  N   UNL     1       1.125   1.743   0.001  0.00  0.00    -0.256 NA
ENDBRANCH  27  28
ENDBRANCH  26  27
ENDBRANCH  25  26
ENDBRANCH  14  20
TORSDOF 4
