REMARK  Name = ZINC63426641
REMARK  8 active torsions:
REMARK  status: ('A' for Active; 'I' for Inactive)
REMARK    1  A    between atoms: C_1  and  C_2
REMARK    2  A    between atoms: C_18  and  C_20
REMARK    3  A    between atoms: C_20  and  N_21
REMARK    4  A    between atoms: N_21  and  C_22
REMARK    5  A    between atoms: C_22  and  C_23
REMARK    6  A    between atoms: C_23  and  C_24
REMARK    7  A    between atoms: C_27  and  O_33
REMARK    8  A    between atoms: O_33  and  C_34
REMARK                            x       y       z     vdW  Elec       q    Type
REMARK                         _______ _______ _______ _____ _____    ______ ____
ROOT
ATOM      1  C   UNL     1       5.355   0.086  -0.656  0.00  0.00    -0.068 C 
ENDROOT
BRANCH   1  16
ATOM      2  C   UNL     1      -0.019   1.526   0.010  0.00  0.00    +0.011 C 
ATOM      3  C   UNL     1       0.002  -0.004   0.002  0.00  0.00    -0.023 C 
ATOM      4  C   UNL     1      -1.430  -0.539   0.010  0.00  0.00    +0.007 C 
ATOM      5  C   UNL     1      -2.180   0.003   1.228  0.00  0.00    +0.003 C 
ATOM      6  C   UNL     1      -1.510  -0.505   2.508  0.00  0.00    +0.037 C 
ATOM      7  C   UNL     1      -0.034  -0.098   2.492  0.00  0.00    +0.096 C 
ATOM      8  C   UNL     1       0.744  -0.518   1.244  0.00  0.00    +0.030 C 
ATOM      9  C   UNL     1       2.128   0.125   1.274  0.00  0.00    +0.014 C 
ATOM     10  C   UNL     1       2.946  -0.294   0.051  0.00  0.00    +0.042 C 
ATOM     11  C   UNL     1       2.168  -0.025  -1.251  0.00  0.00    +0.181 C 
ATOM     12  C   UNL     1       0.751  -0.502  -1.234  0.00  0.00    +0.052 C 
ATOM     13  O   UNL     1       2.254   1.396  -1.412  0.00  0.00    -0.461 OA
ATOM     14  C   UNL     1       3.514   1.765  -1.087  0.00  0.00    +0.309 C 
ATOM     15  O   UNL     1       4.092   2.737  -1.512  0.00  0.00    -0.251 OA
ATOM     16  C   UNL     1       4.097   0.748  -0.089  0.00  0.00    +0.087 C 
ATOM     17  C   UNL     1       0.351   1.217   3.167  0.00  0.00    +0.196 C 
ATOM     18  O   UNL     1       0.663  -0.057   3.735  0.00  0.00    -0.368 OA
ENDBRANCH   1  16
BRANCH   1  19
ATOM     19  N   UNL     1       6.456   1.058  -0.666  0.00  0.00    +0.380 N 
ATOM     20  H   UNL     1       6.203   1.848  -1.242  0.00  0.00    -0.086 HD
ATOM     21  H   UNL     1       6.636   1.373   0.275  0.00  0.00    -0.086 HD
BRANCH  19  22
ATOM     22  C   UNL     1       7.664   0.424  -1.210  0.00  0.00    -0.078 C 
BRANCH  22  23
ATOM     23  C   UNL     1       8.811   1.436  -1.222  0.00  0.00    +0.014 C 
BRANCH  23  24
ATOM     24  C   UNL     1      10.050   0.785  -1.780  0.00  0.00    -0.043 C 
ATOM     25  C   UNL     1      10.486   0.828  -3.059  0.00  0.00    +0.002 A 
ATOM     26  C   UNL     1       9.959   1.469  -4.269  0.00  0.00    +0.055 A 
ATOM     27  C   UNL     1      10.627   1.336  -5.439  0.00  0.00    +0.121 A 
ATOM     28  C   UNL     1      11.820   0.600  -5.543  0.00  0.00    +0.047 A 
ATOM     29  C   UNL     1      12.383  -0.025  -4.487  0.00  0.00    +0.029 A 
ATOM     30  C   UNL     1      11.743   0.053  -3.170  0.00  0.00    +0.043 A 
ATOM     31  N   UNL     1      12.071  -0.450  -2.006  0.00  0.00    -0.380 N 
ATOM     32  C   UNL     1      11.062  -0.045  -1.020  0.00  0.00    +0.144 C 
ATOM     33  H   UNL     1      12.853  -0.995  -1.825  0.00  0.00    +0.160 HD
BRANCH  27  34
ATOM     34  O   UNL     1      10.126   1.935  -6.552  0.00  0.00    -0.495 OA
ATOM     35  C   UNL     1      10.863   1.769  -7.766  0.00  0.00    +0.277 C 
ENDBRANCH  27  34
ENDBRANCH  23  24
ENDBRANCH  22  23
ENDBRANCH  19  22
ENDBRANCH   1  19
TORSDOF 6
