REMARK  Name = ZINC66976777
REMARK  10 active torsions:
REMARK  status: ('A' for Active; 'I' for Inactive)
REMARK    1  A    between atoms: C_1  and  C_2
REMARK    2  A    between atoms: C_2  and  N_3
REMARK    3  A    between atoms: N_3  and  C_4
REMARK    4  A    between atoms: C_4  and  C_6
REMARK    5  A    between atoms: C_4  and  C_7
REMARK    6  A    between atoms: C_7  and  C_8
REMARK    7  A    between atoms: C_11  and  O_14
REMARK    8  A    between atoms: O_14  and  C_15
REMARK    9  A    between atoms: N_18  and  C_19
REMARK   10  A    between atoms: C_19  and  C_20
REMARK                            x       y       z     vdW  Elec       q    Type
REMARK                         _______ _______ _______ _____ _____    ______ ____
ROOT
ATOM      1  N   UNL     1      -1.555  -0.437   0.222  0.00  0.00    -0.283 N 
ATOM      2  C   UNL     1      -2.218  -0.574   1.387  0.00  0.00    +0.303 C 
ATOM      3  O   UNL     1      -3.344  -1.033   1.395  0.00  0.00    -0.253 OA
ATOM      4  N   UNL     1      -1.634  -0.202   2.543  0.00  0.00    -0.295 N 
ATOM      5  H   UNL     1      -0.736   0.164   2.537  0.00  0.00    +0.151 HD
ENDROOT
BRANCH   1   7
ATOM      6  C   UNL     1      -0.271   1.645   0.209  0.00  0.00    +0.024 C 
ATOM      7  C   UNL     1      -0.199   0.116   0.212  0.00  0.00    +0.106 C 
ENDBRANCH   1   7
BRANCH   1   8
ATOM      8  C   UNL     1      -2.191  -0.841  -1.035  0.00  0.00    +0.079 C 
ATOM      9  C   UNL     1      -1.423  -2.019  -1.639  0.00  0.00    +0.028 C 
BRANCH   8  10
ATOM     10  C   UNL     1      -2.175   0.334  -2.015  0.00  0.00    +0.057 C 
BRANCH  10  11
ATOM     11  C   UNL     1      -2.965  -0.028  -3.246  0.00  0.00    -0.045 A 
ATOM     12  C   UNL     1      -2.346  -0.679  -4.296  0.00  0.00    +0.007 A 
ATOM     13  C   UNL     1      -3.068  -1.012  -5.426  0.00  0.00    +0.046 A 
ATOM     14  C   UNL     1      -4.415  -0.693  -5.506  0.00  0.00    +0.120 A 
ATOM     15  C   UNL     1      -5.035  -0.040  -4.450  0.00  0.00    +0.046 A 
ATOM     16  C   UNL     1      -4.310   0.286  -3.320  0.00  0.00    +0.007 A 
BRANCH  14  17
ATOM     17  O   UNL     1      -5.128  -1.019  -6.616  0.00  0.00    -0.495 OA
ATOM     18  C   UNL     1      -6.511  -0.660  -6.629  0.00  0.00    +0.277 C 
ENDBRANCH  14  17
ENDBRANCH  10  11
ENDBRANCH   8  10
ENDBRANCH   1   8
BRANCH   4  19
ATOM     19  C   UNL     1      -2.355  -0.351   3.810  0.00  0.00    +0.142 C 
BRANCH  19  20
ATOM     20  C   UNL     1      -1.486   0.133   4.942  0.00  0.00    -0.014 A 
ATOM     21  C   UNL     1      -0.627  -0.743   5.592  0.00  0.00    +0.010 A 
ATOM     22  C   UNL     1       0.152  -0.258   6.626  0.00  0.00    +0.042 A 
ATOM     23  C   UNL     1       0.050   1.084   6.979  0.00  0.00    +0.099 A 
ATOM     24  N   UNL     1      -0.781   1.889   6.334  0.00  0.00    -0.349 N 
ATOM     25  C   UNL     1      -1.533   1.454   5.340  0.00  0.00    +0.089 A 
ATOM     26  N   UNL     1       0.827   1.585   8.016  0.00  0.00    -0.317 N 
ATOM     27  C   UNL     1       1.793   0.814   8.813  0.00  0.00    +0.106 C 
ATOM     28  C   UNL     1       2.395   1.776   9.859  0.00  0.00    +0.020 C 
ATOM     29  C   UNL     1       1.322   2.892   9.963  0.00  0.00    +0.020 C 
ATOM     30  C   UNL     1       0.824   2.979   8.497  0.00  0.00    +0.106 C 
ATOM     31  H   UNL     1      -0.837   2.821   6.597  0.00  0.00    +0.167 HD
ENDBRANCH  19  20
ENDBRANCH   4  19
TORSDOF 7
