REMARK  Name = ZINC37383689
REMARK  6 active torsions:
REMARK  status: ('A' for Active; 'I' for Inactive)
REMARK    1  A    between atoms: C_1  and  C_2
REMARK    2  A    between atoms: C_2  and  C_3
REMARK    3  A    between atoms: C_2  and  N_4
REMARK    4  A    between atoms: N_4  and  C_5
REMARK    5  A    between atoms: N_4  and  S_6
REMARK    6  A    between atoms: S_6  and  C_9
REMARK                            x       y       z     vdW  Elec       q    Type
REMARK                         _______ _______ _______ _____ _____    ______ ____
ROOT
ATOM      1  C   UNL     1      -1.570  -3.136  -0.791  0.00  0.00    +0.142 A 
ATOM      2  C   UNL     1      -0.361  -3.709  -1.142  0.00  0.00    +0.070 A 
ATOM      3  C   UNL     1      -0.093  -5.022  -0.797  0.00  0.00    +0.037 A 
ATOM      4  C   UNL     1      -1.032  -5.760  -0.101  0.00  0.00    +0.021 A 
ATOM      5  C   UNL     1      -2.241  -5.187   0.250  0.00  0.00    +0.037 A 
ATOM      6  C   UNL     1      -2.508  -3.873  -0.090  0.00  0.00    +0.070 A 
ATOM      7 CL   UNL     1      -4.022  -3.151   0.357  0.00  0.00    -0.081 Cl
ATOM      8 BR   UNL     1      -0.665  -7.554   0.369  0.00  0.00    -0.050 Br
ATOM      9 CL   UNL     1       0.818  -2.782  -2.017  0.00  0.00    -0.081 Cl
ENDROOT
BRANCH   1  10
ATOM     10  S   UNL     1      -1.913  -1.464  -1.230  0.00  0.00    +0.064 S 
ATOM     11  O   UNL     1      -3.328  -1.333  -1.256  0.00  0.00    -0.153 OA
ATOM     12  O   UNL     1      -1.099  -1.164  -2.355  0.00  0.00    -0.153 OA
BRANCH  10  13
ATOM     13  N   UNL     1      -1.372  -0.511   0.012  0.00  0.00    -0.177 NA
ATOM     14  C   UNL     1      -2.269  -0.175   1.122  0.00  0.00    +0.132 C 
BRANCH  13  16
ATOM     15  C   UNL     1      -0.019   1.526   0.010  0.00  0.00    +0.025 C 
ATOM     16  C   UNL     1       0.002  -0.004   0.002  0.00  0.00    +0.073 C 
ATOM     17  C   UNL     1       0.742  -0.511   1.242  0.00  0.00    +0.025 C 
ENDBRANCH  13  16
ENDBRANCH  10  13
ENDBRANCH   1  10
TORSDOF 3
