REMARK  Name = ZINC63529253
REMARK  6 active torsions:
REMARK  status: ('A' for Active; 'I' for Inactive)
REMARK    1  A    between atoms: C_1  and  C_2
REMARK    2  A    between atoms: C_6  and  C_24
REMARK    3  A    between atoms: N_8  and  C_10
REMARK    4  A    between atoms: C_10  and  C_11
REMARK    5  A    between atoms: N_13  and  C_14
REMARK    6  A    between atoms: C_14  and  C_15
REMARK                            x       y       z     vdW  Elec       q    Type
REMARK                         _______ _______ _______ _____ _____    ______ ____
ROOT
ATOM      1  C   UNL     1       1.243  -1.889   3.750  0.00  0.00    +0.229 C 
ATOM      2  O   UNL     1       1.343  -0.694   3.929  0.00  0.00    -0.274 OA
ATOM      3  N   UNL     1       1.946  -2.746   4.517  0.00  0.00    -0.310 N 
ATOM      4  H   UNL     1       1.865  -3.702   4.374  0.00  0.00    +0.149 HD
ENDROOT
BRANCH   1   5
ATOM      5  C   UNL     1       0.332  -2.415   2.671  0.00  0.00    +0.198 C 
BRANCH   5  10
ATOM      6  C   UNL     1      -0.019   1.526   0.010  0.00  0.00    +0.027 C 
ATOM      7  C   UNL     1       0.002  -0.004   0.002  0.00  0.00    +0.086 C 
ATOM      8  C   UNL     1      -1.441  -0.556   0.038  0.00  0.00    +0.117 C 
ATOM      9  C   UNL     1      -1.311  -1.772   0.992  0.00  0.00    +0.089 C 
ATOM     10  N   UNL     1      -0.314  -1.289   1.984  0.00  0.00    -0.230 NA
ATOM     11  N   UNL     1       0.663  -0.511   1.221  0.00  0.00    -0.249 NA
ATOM     12  C   UNL     1      -2.650  -2.081   1.665  0.00  0.00    +0.027 C 
ATOM     13 CL   UNL     1      -2.579   0.671   0.708  0.00  0.00    -0.118 Cl
ATOM     14  H   UNL     1       1.470  -1.069   0.990  0.00  0.00    +0.141 HD
ENDBRANCH   5  10
ENDBRANCH   1   5
BRANCH   3  15
ATOM     15  C   UNL     1       2.831  -2.235   5.566  0.00  0.00    +0.151 C 
BRANCH  15  16
ATOM     16  C   UNL     1       3.504  -3.407   6.282  0.00  0.00    +0.191 C 
ATOM     17  N   UNL     1       4.234  -4.236   5.314  0.00  0.00    -0.362 N 
ATOM     18  C   UNL     1       3.715  -5.429   5.352  0.00  0.00    +0.060 A 
ATOM     19  C   UNL     1       4.013  -6.672   4.627  0.00  0.00    +0.027 A 
ATOM     20  C   UNL     1       3.289  -7.781   4.882  0.00  0.00    +0.002 A 
ATOM     21  C   UNL     1       2.245  -7.805   5.824  0.00  0.00    +0.002 A 
ATOM     22  C   UNL     1       1.890  -6.721   6.542  0.00  0.00    +0.027 A 
ATOM     23  C   UNL     1       2.610  -5.455   6.349  0.00  0.00    +0.060 A 
ATOM     24  N   UNL     1       2.489  -4.277   6.889  0.00  0.00    -0.362 N 
ATOM     25  H   UNL     1       4.968  -3.948   4.750  0.00  0.00    +0.162 HD
ATOM     26  H   UNL     1       1.846  -4.020   7.569  0.00  0.00    +0.162 HD
ENDBRANCH  15  16
ENDBRANCH   3  15
TORSDOF 4
