REMARK  Name = ZINC35777071
REMARK  14 active torsions:
REMARK  status: ('A' for Active; 'I' for Inactive)
REMARK    1  A    between atoms: C_1  and  N_2
REMARK    2  A    between atoms: C_3  and  O_29
REMARK    3  A    between atoms: C_4  and  C_13
REMARK    4  A    between atoms: C_5  and  C_7
REMARK    5  A    between atoms: C_13  and  N_14
REMARK    6  A    between atoms: N_14  and  C_15
REMARK    7  A    between atoms: N_14  and  C_19
REMARK    8  A    between atoms: C_15  and  C_16
REMARK    9  A    between atoms: C_16  and  O_17
REMARK   10  A    between atoms: O_17  and  C_18
REMARK   11  A    between atoms: C_19  and  C_20
REMARK   12  A    between atoms: C_20  and  C_22
REMARK   13  A    between atoms: C_20  and  O_28
REMARK   14  A    between atoms: O_29  and  C_30
REMARK                            x       y       z     vdW  Elec       q    Type
REMARK                         _______ _______ _______ _____ _____    ______ ____
ROOT
ATOM      1  C   UNL     1       1.563   1.200  -0.079  0.00  0.00    +0.176 C 
ATOM      2  N   UNL     1       1.027  -0.162  -0.015  0.00  0.00    -0.235 N 
ATOM      3  C   UNL     1       0.762  -0.966  -1.077  0.00  0.00    +0.221 A 
ATOM      4  C   UNL     1       0.279  -2.140  -0.597  0.00  0.00    +0.025 A 
ATOM      5  C   UNL     1       0.249  -2.051   0.808  0.00  0.00    +0.098 A 
ATOM      6  N   UNL     1       0.704  -0.865   1.152  0.00  0.00    -0.168 NA
ENDROOT
BRANCH   5   7
ATOM      7  C   UNL     1      -0.211  -3.112   1.738  0.00  0.00    +0.002 A 
ATOM      8  C   UNL     1      -1.370  -3.833   1.459  0.00  0.00    +0.010 A 
ATOM      9  C   UNL     1      -1.792  -4.819   2.328  0.00  0.00    +0.001 A 
ATOM     10  C   UNL     1      -1.068  -5.091   3.474  0.00  0.00    +0.000 A 
ATOM     11  C   UNL     1       0.083  -4.378   3.756  0.00  0.00    +0.001 A 
ATOM     12  C   UNL     1       0.518  -3.394   2.892  0.00  0.00    +0.010 A 
ENDBRANCH   5   7
BRANCH   4  13
ATOM     13  C   UNL     1      -0.148  -3.328  -1.420  0.00  0.00    -0.035 C 
BRANCH  13  14
ATOM     14  N   UNL     1       1.031  -4.133  -1.766  0.00  0.00    +0.386 N 
ATOM     15  H   UNL     1       1.715  -3.550  -2.224  0.00  0.00    -0.081 HD
BRANCH  14  16
ATOM     16  C   UNL     1       0.632  -5.221  -2.670  0.00  0.00    -0.050 C 
BRANCH  16  17
ATOM     17  C   UNL     1       0.169  -4.632  -4.004  0.00  0.00    +0.141 C 
BRANCH  17  18
ATOM     18  O   UNL     1       1.259  -3.949  -4.627  0.00  0.00    -0.385 OA
ATOM     19  C   UNL     1       0.931  -3.358  -5.886  0.00  0.00    +0.193 C 
ENDBRANCH  17  18
ENDBRANCH  16  17
ENDBRANCH  14  16
BRANCH  14  20
ATOM     20  C   UNL     1       1.612  -4.702  -0.543  0.00  0.00    -0.042 C 
BRANCH  20  21
ATOM     21  C   UNL     1       2.909  -5.436  -0.888  0.00  0.00    +0.128 C 
BRANCH  21  22
ATOM     22  C   UNL     1       3.440  -6.122   0.344  0.00  0.00    -0.021 A 
ATOM     23  C   UNL     1       4.138  -5.397   1.292  0.00  0.00    +0.006 A 
ATOM     24  C   UNL     1       4.625  -6.027   2.422  0.00  0.00    +0.000 A 
ATOM     25  C   UNL     1       4.415  -7.381   2.605  0.00  0.00    +0.000 A 
ATOM     26  C   UNL     1       3.717  -8.106   1.657  0.00  0.00    +0.000 A 
ATOM     27  C   UNL     1       3.226  -7.476   0.529  0.00  0.00    +0.006 A 
ENDBRANCH  21  22
BRANCH  21  28
ATOM     28  O   UNL     1       3.875  -4.499  -1.365  0.00  0.00    -0.389 OA
ATOM     29  H   UNL     1       4.100  -3.807  -0.728  0.00  0.00    +0.210 HD
ENDBRANCH  21  28
ENDBRANCH  20  21
ENDBRANCH  14  20
ENDBRANCH  13  14
ENDBRANCH   4  13
BRANCH   3  30
ATOM     30  O   UNL     1       0.945  -0.651  -2.385  0.00  0.00    -0.438 OA
BRANCH  30  31
ATOM     31  C   UNL     1      -0.064  -0.016  -3.036  0.00  0.00    +0.130 A 
ATOM     32  C   UNL     1      -1.194   0.389  -2.340  0.00  0.00    +0.046 A 
ATOM     33  C   UNL     1      -2.219   1.035  -3.004  0.00  0.00    +0.004 A 
ATOM     34  C   UNL     1      -2.119   1.277  -4.362  0.00  0.00    +0.000 A 
ATOM     35  C   UNL     1      -0.995   0.873  -5.058  0.00  0.00    +0.004 A 
ATOM     36  C   UNL     1       0.035   0.232  -4.397  0.00  0.00    +0.046 A 
ENDBRANCH  30  31
ENDBRANCH   3  30
TORSDOF 12
