REMARK  Name = ZINC32565271
REMARK  7 active torsions:
REMARK  status: ('A' for Active; 'I' for Inactive)
REMARK    1  A    between atoms: C_1  and  N_2
REMARK    2  A    between atoms: C_3  and  C_5
REMARK    3  A    between atoms: C_8  and  N_20
REMARK    4  A    between atoms: N_11  and  C_12
REMARK    5  A    between atoms: C_12  and  C_13
REMARK    6  A    between atoms: N_20  and  C_21
REMARK    7  A    between atoms: C_21  and  C_22
REMARK                            x       y       z     vdW  Elec       q    Type
REMARK                         _______ _______ _______ _____ _____    ______ ____
ROOT
ATOM      1  C   UNL     1      -1.135  -2.201   0.001  0.00  0.00    +0.021 C 
ATOM      2  C   UNL     1      -0.480  -2.724  -1.301  0.00  0.00    +0.010 C 
ATOM      3  C   UNL     1      -1.101  -4.141  -1.417  0.00  0.00    +0.036 C 
ATOM      4  C   UNL     1      -2.533  -3.938  -0.879  0.00  0.00    -0.059 C 
ATOM      5  N   UNL     1      -2.514  -2.734  -0.026  0.00  0.00    +0.391 N 
ATOM      6  H   UNL     1      -3.139  -2.039  -0.406  0.00  0.00    -0.080 HD
ENDROOT
BRANCH   1   9
ATOM      7  C   UNL     1      -0.018   1.461   0.010  0.00  0.00    +0.128 C 
ATOM      8  N   UNL     1       0.002  -0.004   0.002  0.00  0.00    -0.320 N 
ATOM      9  C   UNL     1      -1.156  -0.694   0.009  0.00  0.00    +0.199 C 
ATOM     10  O   UNL     1      -2.214  -0.102   0.023  0.00  0.00    -0.278 OA
ATOM     11  H   UNL     1       0.849  -0.478  -0.009  0.00  0.00    +0.148 HD
ENDBRANCH   1   9
BRANCH   3  12
ATOM     12  N   UNL     1      -1.126  -4.585  -2.817  0.00  0.00    -0.311 NA
ATOM     13  H   UNL     1      -1.906  -5.201  -2.987  0.00  0.00    +0.122 HD
BRANCH  12  14
ATOM     14  C   UNL     1       0.142  -5.227  -3.188  0.00  0.00    +0.117 C 
BRANCH  14  15
ATOM     15  C   UNL     1       0.080  -5.668  -4.628  0.00  0.00    -0.026 A 
ATOM     16  C   UNL     1      -0.187  -6.967  -4.935  0.00  0.00    +0.005 A 
ATOM     17  C   UNL     1      -0.249  -7.393  -6.260  0.00  0.00    +0.001 A 
ATOM     18  C   UNL     1      -0.045  -6.522  -7.286  0.00  0.00    +0.008 A 
ATOM     19  C   UNL     1       0.232  -5.173  -7.009  0.00  0.00    -0.018 A 
ATOM     20  C   UNL     1       0.289  -4.738  -5.661  0.00  0.00    -0.013 A 
ATOM     21  C   UNL     1       0.561  -3.388  -5.384  0.00  0.00    +0.009 A 
ATOM     22  C   UNL     1       0.759  -2.516  -6.410  0.00  0.00    +0.001 A 
ATOM     23  C   UNL     1       0.696  -2.942  -7.736  0.00  0.00    +0.001 A 
ATOM     24  C   UNL     1       0.449  -4.245  -8.042  0.00  0.00    +0.008 A 
ENDBRANCH  14  15
ENDBRANCH  12  14
ENDBRANCH   3  12
BRANCH   5  25
ATOM     25  C   UNL     1      -2.936  -3.083   1.337  0.00  0.00    -0.042 C 
BRANCH  25  26
ATOM     26  C   UNL     1      -4.381  -3.510   1.321  0.00  0.00    -0.064 A 
ATOM     27  C   UNL     1      -5.381  -2.571   1.495  0.00  0.00    +0.003 A 
ATOM     28  C   UNL     1      -6.706  -2.962   1.481  0.00  0.00    +0.020 A 
ATOM     29  C   UNL     1      -7.033  -4.293   1.293  0.00  0.00    +0.041 A 
ATOM     30  C   UNL     1      -6.032  -5.233   1.119  0.00  0.00    +0.020 A 
ATOM     31  C   UNL     1      -4.707  -4.840   1.128  0.00  0.00    +0.003 A 
ATOM     32 CL   UNL     1      -8.698  -4.785   1.276  0.00  0.00    -0.084 Cl
ENDBRANCH  25  26
ENDBRANCH   5  25
TORSDOF 6
