REMARK  Name = ZINC10002409
REMARK  14 active torsions:
REMARK  status: ('A' for Active; 'I' for Inactive)
REMARK    1  A    between atoms: C_1  and  C_2
REMARK    2  A    between atoms: C_2  and  C_3
REMARK    3  A    between atoms: C_2  and  C_4
REMARK    4  A    between atoms: C_4  and  C_6
REMARK    5  A    between atoms: C_4  and  N_24
REMARK    6  A    between atoms: N_8  and  N_9
REMARK    7  A    between atoms: C_10  and  C_11
REMARK    8  A    between atoms: C_13  and  O_22
REMARK    9  A    between atoms: C_14  and  O_18
REMARK   10  A    between atoms: O_18  and  C_19
REMARK   11  A    between atoms: C_19  and  C_20
REMARK   12  A    between atoms: C_19  and  C_21
REMARK   13  A    between atoms: O_22  and  C_23
REMARK   14  A    between atoms: C_25  and  C_27
REMARK                            x       y       z     vdW  Elec       q    Type
REMARK                         _______ _______ _______ _____ _____    ______ ____
ROOT
ATOM      1  C   UNL     1      -4.421  -3.646   7.387  0.00  0.00    +0.253 C 
ATOM      2  O   UNL     1      -3.698  -4.375   6.742  0.00  0.00    -0.272 OA
ATOM      3  N   UNL     1      -4.898  -2.512   6.837  0.00  0.00    -0.205 N 
ATOM      4  H   UNL     1      -5.532  -1.964   7.326  0.00  0.00    +0.177 HD
ENDROOT
BRANCH   3   5
ATOM      5  N   UNL     1      -4.478  -2.123   5.558  0.00  0.00    -0.188 NA
ATOM      6  C   UNL     1      -4.937  -1.032   5.027  0.00  0.00    +0.138 C 
BRANCH   6   7
ATOM      7  C   UNL     1      -4.495  -0.623   3.682  0.00  0.00    -0.001 A 
ATOM      8  C   UNL     1      -4.989   0.552   3.109  0.00  0.00    +0.059 A 
ATOM      9  C   UNL     1      -4.571   0.931   1.847  0.00  0.00    +0.163 A 
ATOM     10  C   UNL     1      -3.659   0.143   1.149  0.00  0.00    +0.176 A 
ATOM     11  C   UNL     1      -3.172  -1.027   1.715  0.00  0.00    +0.064 A 
ATOM     12  C   UNL     1      -3.581  -1.409   2.976  0.00  0.00    +0.028 A 
ATOM     13 BR   UNL     1      -1.941  -2.097   0.758  0.00  0.00    -0.046 Br
BRANCH   9  14
ATOM     14  O   UNL     1      -5.049   2.075   1.287  0.00  0.00    -0.491 OA
ATOM     15  C   UNL     1      -5.981   2.835   2.060  0.00  0.00    +0.277 C 
ENDBRANCH   9  14
BRANCH  10  16
ATOM     16  O   UNL     1      -3.249   0.517  -0.092  0.00  0.00    -0.485 OA
BRANCH  16  17
ATOM     17  C   UNL     1      -2.092   1.351  -0.169  0.00  0.00    +0.168 C 
ATOM     18  C   UNL     1      -2.518   2.820  -0.120  0.00  0.00    +0.051 C 
ATOM     19  C   UNL     1      -1.353   1.078  -1.481  0.00  0.00    +0.051 C 
ENDBRANCH  16  17
ENDBRANCH  10  16
ENDBRANCH   6   7
ENDBRANCH   3   5
BRANCH   1  20
ATOM     20  C   UNL     1      -4.786  -4.006   8.804  0.00  0.00    +0.163 C 
BRANCH  20  21
ATOM     21  N   UNL     1      -4.531  -5.432   9.026  0.00  0.00    -0.300 N 
ATOM     22  C   UNL     1      -5.210  -6.097   9.981  0.00  0.00    +0.245 C 
ATOM     23  O   UNL     1      -6.035  -5.515  10.659  0.00  0.00    -0.270 OA
ATOM     24  H   UNL     1      -3.874  -5.897   8.486  0.00  0.00    +0.150 HD
BRANCH  22  25
ATOM     25  C   UNL     1      -4.953  -7.535  10.205  0.00  0.00    +0.037 A 
ATOM     26  C   UNL     1      -4.011  -8.208   9.424  0.00  0.00    +0.016 A 
ATOM     27  C   UNL     1      -3.771  -9.548   9.642  0.00  0.00    +0.039 A 
ATOM     28  C   UNL     1      -4.471 -10.230  10.625  0.00  0.00    +0.123 A 
ATOM     29  C   UNL     1      -5.412  -9.568  11.399  0.00  0.00    +0.039 A 
ATOM     30  C   UNL     1      -5.656  -8.227  11.194  0.00  0.00    +0.016 A 
ATOM     31  F   UNL     1      -4.236 -11.544  10.830  0.00  0.00    -0.205 F 
ENDBRANCH  22  25
ENDBRANCH  20  21
BRANCH  20  33
ATOM     32  C   UNL     1      -4.380  -3.473  11.211  0.00  0.00    +0.009 C 
ATOM     33  C   UNL     1      -3.940  -3.180   9.775  0.00  0.00    +0.012 C 
ATOM     34  C   UNL     1      -2.465  -3.549   9.608  0.00  0.00    +0.009 C 
ENDBRANCH  20  33
ENDBRANCH   1  20
TORSDOF 9
