REMARK  Name = ZINC49563565
REMARK  7 active torsions:
REMARK  status: ('A' for Active; 'I' for Inactive)
REMARK    1  A    between atoms: C_1  and  C_2
REMARK    2  A    between atoms: C_3  and  C_13
REMARK    3  A    between atoms: C_4  and  C_7
REMARK    4  A    between atoms: C_13  and  N_15
REMARK    5  A    between atoms: C_18  and  C_21
REMARK    6  A    between atoms: C_21  and  N_22
REMARK    7  A    between atoms: C_25  and  C_28
REMARK                            x       y       z     vdW  Elec       q    Type
REMARK                         _______ _______ _______ _____ _____    ______ ____
ROOT
ATOM      1  N   UNL     1      -3.139  -0.204   1.174  0.00  0.00    -0.152 NA
ATOM      2  C   UNL     1      -4.413   0.181   1.183  0.00  0.00    +0.163 A 
ATOM      3  N   UNL     1      -5.216   0.424   2.256  0.00  0.00    -0.341 N 
ATOM      4  C   UNL     1      -6.502   0.812   2.038  0.00  0.00    +0.008 A 
ATOM      5  C   UNL     1      -6.899   0.931   0.766  0.00  0.00    +0.067 A 
ATOM      6  S   UNL     1      -5.420   0.490  -0.127  0.00  0.00    -0.061 S 
ATOM      7  H   UNL     1      -4.877   0.322   3.159  0.00  0.00    +0.167 HD
ENDROOT
BRANCH   1   8
ATOM      8  C   UNL     1      -2.505  -0.390   0.013  0.00  0.00    +0.275 C 
ATOM      9  O   UNL     1      -3.095  -0.208  -1.040  0.00  0.00    -0.268 OA
BRANCH   8  12
ATOM     10  C   UNL     1      -0.018   1.503   0.010  0.00  0.00    +0.090 C 
ATOM     11  C   UNL     1       0.002  -0.004   0.002  0.00  0.00    +0.147 A 
ATOM     12  C   UNL     1      -1.091  -0.817   0.003  0.00  0.00    +0.108 A 
ATOM     13  C   UNL     1      -0.593  -2.199  -0.008  0.00  0.00    +0.126 A 
ATOM     14  N   UNL     1       0.715  -2.133  -0.014  0.00  0.00    -0.077 NA
ATOM     15  O   UNL     1       1.096  -0.772  -0.013  0.00  0.00    -0.359 OA
BRANCH  13  16
ATOM     16  C   UNL     1      -1.415  -3.434  -0.011  0.00  0.00    +0.004 A 
ATOM     17  C   UNL     1      -2.624  -3.471   0.681  0.00  0.00    +0.010 A 
ATOM     18  C   UNL     1      -3.385  -4.623   0.675  0.00  0.00    +0.001 A 
ATOM     19  C   UNL     1      -2.949  -5.739  -0.017  0.00  0.00    +0.000 A 
ATOM     20  C   UNL     1      -1.750  -5.707  -0.706  0.00  0.00    +0.001 A 
ATOM     21  C   UNL     1      -0.984  -4.559  -0.712  0.00  0.00    +0.010 A 
ENDBRANCH  13  16
ENDBRANCH   8  12
ENDBRANCH   1   8
BRANCH   4  22
ATOM     22  C   UNL     1      -7.440   1.096   3.182  0.00  0.00    -0.024 C 
BRANCH  22  23
ATOM     23  N   UNL     1      -7.682  -0.142   3.936  0.00  0.00    +0.383 N 
ATOM     24  C   UNL     1      -8.382  -1.106   3.078  0.00  0.00    -0.078 C 
ATOM     25  C   UNL     1      -8.565  -2.425   3.831  0.00  0.00    -0.016 C 
ATOM     26  C   UNL     1      -9.388  -2.174   5.098  0.00  0.00    -0.018 C 
ATOM     27  C   UNL     1      -8.685  -1.113   5.949  0.00  0.00    -0.016 C 
ATOM     28  C   UNL     1      -8.498   0.158   5.118  0.00  0.00    -0.078 C 
ATOM     29  C   UNL     1      -9.507  -3.474   5.897  0.00  0.00    +0.007 C 
ATOM     30  H   UNL     1      -6.799  -0.534   4.228  0.00  0.00    -0.081 HD
ENDBRANCH  22  23
ENDBRANCH   4  22
TORSDOF 5
