REMARK  Name = ZINC15946246
REMARK  12 active torsions:
REMARK  status: ('A' for Active; 'I' for Inactive)
REMARK    1  A    between atoms: C_1  and  C_2
REMARK    2  A    between atoms: C_2  and  C_3
REMARK    3  A    between atoms: C_3  and  C_4
REMARK    4  A    between atoms: C_3  and  C_5
REMARK    5  A    between atoms: C_3  and  C_6
REMARK    6  A    between atoms: C_15  and  O_36
REMARK    7  A    between atoms: C_17  and  C_20
REMARK    8  A    between atoms: C_23  and  O_28
REMARK    9  A    between atoms: C_24  and  O_26
REMARK   10  A    between atoms: O_26  and  C_27
REMARK   11  A    between atoms: O_28  and  C_29
REMARK   12  A    between atoms: C_29  and  C_31
REMARK                            x       y       z     vdW  Elec       q    Type
REMARK                         _______ _______ _______ _____ _____    ______ ____
ROOT
ATOM      1  C   UNL     1      -1.565  -2.104  -0.126  0.00  0.00    -0.000 C 
ATOM      2  C   UNL     1      -2.990  -2.664  -0.102  0.00  0.00    +0.009 C 
ATOM      3  C   UNL     1      -2.960  -4.176  -0.334  0.00  0.00    +0.037 C 
ATOM      4  C   UNL     1      -1.983  -4.803   0.651  0.00  0.00    -0.023 A 
ATOM      5  C   UNL     1      -1.048  -4.054   1.280  0.00  0.00    -0.004 A 
ATOM      6  S   UNL     1      -0.166  -5.200   2.304  0.00  0.00    -0.078 S 
ATOM      7  C   UNL     1      -0.981  -6.593   1.922  0.00  0.00    +0.080 A 
ATOM      8  C   UNL     1      -1.961  -6.212   0.999  0.00  0.00    +0.068 A 
ATOM      9  C   UNL     1      -2.867  -7.271   0.484  0.00  0.00    +0.220 C 
ATOM     10  N   UNL     1      -2.543  -8.513   0.723  0.00  0.00    -0.223 NA
ATOM     11  C   UNL     1      -1.325  -8.933   1.403  0.00  0.00    +0.224 C 
ATOM     12  N   UNL     1      -0.837  -7.899   2.333  0.00  0.00    -0.313 N 
ATOM     13  C   UNL     1      -0.820  -2.582   1.129  0.00  0.00    +0.046 C 
ATOM     14  H   UNL     1      -0.436  -8.126   3.187  0.00  0.00    +0.149 HD
ENDROOT
BRANCH  11  15
ATOM     15  C   UNL     1      -0.258  -9.210   0.374  0.00  0.00    -0.002 A 
ATOM     16  C   UNL     1       1.074  -9.022   0.694  0.00  0.00    +0.011 A 
ATOM     17  C   UNL     1       2.055  -9.275  -0.246  0.00  0.00    +0.050 A 
ATOM     18  C   UNL     1       1.706  -9.717  -1.512  0.00  0.00    +0.173 A 
ATOM     19  C   UNL     1       0.365  -9.907  -1.833  0.00  0.00    +0.163 A 
ATOM     20  C   UNL     1      -0.614  -9.657  -0.884  0.00  0.00    +0.056 A 
BRANCH  19  21
ATOM     21  O   UNL     1       0.016 -10.341  -3.074  0.00  0.00    -0.491 OA
ATOM     22  C   UNL     1      -1.379 -10.513  -3.333  0.00  0.00    +0.277 C 
ENDBRANCH  19  21
BRANCH  18  23
ATOM     23  O   UNL     1       2.670  -9.966  -2.437  0.00  0.00    -0.416 OA
BRANCH  23  24
ATOM     24  C   UNL     1       2.922  -9.015  -3.360  0.00  0.00    +0.380 C 
ATOM     25  O   UNL     1       2.365  -7.936  -3.289  0.00  0.00    -0.241 OA
BRANCH  24  26
ATOM     26  C   UNL     1       3.866  -9.282  -4.448  0.00  0.00    +0.212 A 
ATOM     27  C   UNL     1       4.215  -8.410  -5.440  0.00  0.00    +0.056 A 
ATOM     28  C   UNL     1       5.139  -9.079  -6.258  0.00  0.00    +0.042 A 
ATOM     29  C   UNL     1       5.312 -10.313  -5.736  0.00  0.00    +0.196 A 
ATOM     30  O   UNL     1       4.548 -10.430  -4.642  0.00  0.00    -0.456 OA
ENDBRANCH  24  26
ENDBRANCH  23  24
ENDBRANCH  18  23
ENDBRANCH  11  15
BRANCH   1  31
ATOM     31  C   UNL     1      -1.615  -0.575  -0.142  0.00  0.00    -0.032 C 
ATOM     32  C   UNL     1      -2.342  -0.076   1.108  0.00  0.00    +0.011 C 
ATOM     33  C   UNL     1      -2.362  -0.102  -1.391  0.00  0.00    +0.011 C 
BRANCH  31  35
ATOM     34  C   UNL     1      -0.239   1.510  -0.176  0.00  0.00    +0.004 C 
ATOM     35  C   UNL     1      -0.190  -0.019  -0.160  0.00  0.00    +0.003 C 
ENDBRANCH  31  35
ENDBRANCH   1  31
BRANCH   9  36
ATOM     36  O   UNL     1      -3.987  -6.960  -0.208  0.00  0.00    -0.492 OA
ATOM     37  H   UNL     1      -4.500  -7.728  -0.493  0.00  0.00    +0.294 HD
ENDBRANCH   9  36
TORSDOF 8
