REMARK  Name = ZINC02284056
REMARK  4 active torsions:
REMARK  status: ('A' for Active; 'I' for Inactive)
REMARK    1  A    between atoms: C_1  and  N_2
REMARK    2  A    between atoms: C_13  and  C_15
REMARK    3  A    between atoms: N_26  and  C_27
REMARK    4  A    between atoms: C_27  and  C_28
REMARK                            x       y       z     vdW  Elec       q    Type
REMARK                         _______ _______ _______ _____ _____    ______ ____
ROOT
ATOM      1  C   UNL     1       3.600  -1.365   0.543  0.00  0.00    +0.193 C 
ATOM      2  N   UNL     1       3.689  -0.124  -0.235  0.00  0.00    -0.321 N 
ATOM      3  C   UNL     1       2.555   0.674  -0.344  0.00  0.00    +0.041 A 
ATOM      4  C   UNL     1       2.637   2.048  -0.492  0.00  0.00    +0.024 A 
ATOM      5  C   UNL     1       1.479   2.795  -0.590  0.00  0.00    +0.002 A 
ATOM      6  C   UNL     1       0.238   2.181  -0.543  0.00  0.00    +0.001 A 
ATOM      7  C   UNL     1       0.138   0.812  -0.397  0.00  0.00    +0.015 A 
ATOM      8  C   UNL     1       1.298   0.047  -0.298  0.00  0.00    +0.058 A 
ATOM      9  C   UNL     1       1.249  -1.419  -0.149  0.00  0.00    +0.250 C 
ATOM     10  O   UNL     1       0.214  -2.024  -0.353  0.00  0.00    -0.270 OA
ATOM     11  N   UNL     1       2.367  -2.081   0.216  0.00  0.00    -0.271 N 
ATOM     12  H   UNL     1       4.519   0.134  -0.664  0.00  0.00    +0.148 HD
ENDROOT
BRANCH   1  25
ATOM     13  C   UNL     1       2.976   0.447   7.011  0.00  0.00    +0.149 C 
ATOM     14  N   UNL     1       3.864  -0.242   6.071  0.00  0.00    -0.343 N 
ATOM     15  C   UNL     1       5.078  -0.815   6.406  0.00  0.00    +0.050 A 
ATOM     16  C   UNL     1       5.769  -0.908   7.611  0.00  0.00    +0.026 A 
ATOM     17  C   UNL     1       6.988  -1.549   7.660  0.00  0.00    +0.002 A 
ATOM     18  C   UNL     1       7.538  -2.105   6.515  0.00  0.00    +0.001 A 
ATOM     19  C   UNL     1       6.870  -2.022   5.312  0.00  0.00    +0.010 A 
ATOM     20  C   UNL     1       5.636  -1.378   5.249  0.00  0.00    +0.008 A 
ATOM     21  C   UNL     1       4.682  -1.118   4.155  0.00  0.00    +0.008 A 
ATOM     22  C   UNL     1       3.609  -0.414   4.723  0.00  0.00    +0.050 A 
ATOM     23  C   UNL     1       2.543  -0.029   3.915  0.00  0.00    +0.027 A 
ATOM     24  C   UNL     1       2.551  -0.335   2.571  0.00  0.00    +0.009 A 
ATOM     25  C   UNL     1       3.610  -1.035   2.013  0.00  0.00    -0.009 A 
ATOM     26  C   UNL     1       4.675  -1.425   2.797  0.00  0.00    +0.017 A 
ENDBRANCH   1  25
BRANCH  11  27
ATOM     27  C   UNL     1       2.345  -3.544   0.286  0.00  0.00    +0.145 C 
BRANCH  27  28
ATOM     28  C   UNL     1       1.843  -3.974   1.641  0.00  0.00    -0.030 A 
ATOM     29  C   UNL     1       2.742  -4.242   2.657  0.00  0.00    +0.005 A 
ATOM     30  C   UNL     1       2.282  -4.633   3.901  0.00  0.00    +0.000 A 
ATOM     31  C   UNL     1       0.924  -4.764   4.126  0.00  0.00    +0.000 A 
ATOM     32  C   UNL     1       0.026  -4.501   3.108  0.00  0.00    +0.000 A 
ATOM     33  C   UNL     1       0.486  -4.107   1.866  0.00  0.00    +0.005 A 
ENDBRANCH  27  28
ENDBRANCH  11  27
TORSDOF 3
