REMARK  Name = ZINC13681920
REMARK  5 active torsions:
REMARK  status: ('A' for Active; 'I' for Inactive)
REMARK    1  A    between atoms: C_1  and  C_2
REMARK    2  A    between atoms: C_2  and  S_3
REMARK    3  A    between atoms: S_3  and  N_6
REMARK    4  A    between atoms: C_8  and  C_17
REMARK    5  A    between atoms: N_19  and  C_20
REMARK                            x       y       z     vdW  Elec       q    Type
REMARK                         _______ _______ _______ _____ _____    ______ ____
ROOT
ATOM      1  N   UNL     1       0.044   1.060   2.748  0.00  0.00    -0.200 N 
ATOM      2  C   UNL     1       1.161   1.820   3.333  0.00  0.00    +0.185 C 
ATOM      3  C   UNL     1       1.070   1.678   4.859  0.00  0.00    +0.278 C 
ATOM      4  O   UNL     1       1.125   0.290   5.197  0.00  0.00    -0.476 OA
ATOM      5  C   UNL     1       0.299  -0.558   4.528  0.00  0.00    +0.144 A 
ATOM      6  C   UNL     1      -0.256  -0.194   3.305  0.00  0.00    +0.093 A 
ATOM      7  C   UNL     1      -1.089  -1.072   2.629  0.00  0.00    +0.028 A 
ATOM      8  C   UNL     1      -1.380  -2.307   3.180  0.00  0.00    +0.002 A 
ATOM      9  C   UNL     1      -0.837  -2.667   4.399  0.00  0.00    +0.004 A 
ATOM     10  C   UNL     1       0.001  -1.797   5.073  0.00  0.00    +0.047 A 
ENDROOT
BRANCH   3  11
ATOM     11  C   UNL     1       2.224   2.401   5.504  0.00  0.00    +0.260 C 
ATOM     12  O   UNL     1       3.062   1.777   6.121  0.00  0.00    -0.271 OA
ATOM     13  N   UNL     1       2.326   3.740   5.394  0.00  0.00    -0.282 N 
ATOM     14  H   UNL     1       1.695   4.231   4.845  0.00  0.00    +0.155 HD
BRANCH  13  15
ATOM     15  C   UNL     1       3.343   4.422   6.072  0.00  0.00    +0.036 A 
ATOM     16  C   UNL     1       3.107   5.692   6.583  0.00  0.00    +0.043 A 
ATOM     17  C   UNL     1       4.111   6.361   7.257  0.00  0.00    +0.044 A 
ATOM     18  C   UNL     1       5.354   5.772   7.414  0.00  0.00    +0.040 A 
ATOM     19  C   UNL     1       5.592   4.509   6.901  0.00  0.00    +0.044 A 
ATOM     20  C   UNL     1       4.590   3.833   6.230  0.00  0.00    +0.043 A 
ATOM     21 CL   UNL     1       7.152   3.773   7.099  0.00  0.00    -0.083 Cl
ATOM     22 CL   UNL     1       3.816   7.946   7.902  0.00  0.00    -0.083 Cl
ENDBRANCH  13  15
ENDBRANCH   3  11
BRANCH   1  23
ATOM     23  S   UNL     1      -0.833   1.665   1.480  0.00  0.00    +0.045 S 
ATOM     24  O   UNL     1      -0.707   3.076   1.593  0.00  0.00    -0.155 OA
ATOM     25  O   UNL     1      -2.105   1.041   1.589  0.00  0.00    -0.155 OA
BRANCH  23  27
ATOM     26  C   UNL     1      -0.704   1.583  -1.251  0.00  0.00    +0.030 C 
ATOM     27  C   UNL     1       0.027   1.077  -0.005  0.00  0.00    +0.185 C 
ENDBRANCH  23  27
ENDBRANCH   1  23
TORSDOF 4
