REMARK  Name = ZINC21225392
REMARK  9 active torsions:
REMARK  status: ('A' for Active; 'I' for Inactive)
REMARK    1  A    between atoms: C_1  and  C_2
REMARK    2  A    between atoms: C_7  and  C_8
REMARK    3  A    between atoms: C_13  and  C_18
REMARK    4  A    between atoms: C_21  and  O_26
REMARK    5  A    between atoms: C_22  and  O_24
REMARK    6  A    between atoms: O_24  and  C_25
REMARK    7  A    between atoms: O_26  and  C_27
REMARK    8  A    between atoms: C_27  and  C_28
REMARK    9  A    between atoms: C_27  and  C_29
REMARK                            x       y       z     vdW  Elec       q    Type
REMARK                         _______ _______ _______ _____ _____    ______ ____
ROOT
ATOM      1  C   UNL     1       2.309  -0.049   2.901  0.00  0.00    +0.136 C 
ATOM      2  C   UNL     1       1.274   0.221   1.837  0.00  0.00    +0.036 C 
ATOM      3  C   UNL     1      -0.024   0.501   2.052  0.00  0.00    +0.017 C 
ATOM      4  C   UNL     1      -0.959   0.768   0.885  0.00  0.00    +0.059 C 
ATOM      5  C   UNL     1      -0.524  -0.049  -0.331  0.00  0.00    +0.032 C 
ATOM      6  C   UNL     1       0.908   0.369  -0.685  0.00  0.00    +0.088 C 
ATOM      7  C   UNL     1       1.778   0.155   0.517  0.00  0.00    +0.163 C 
ATOM      8  O   UNL     1       2.958  -0.083   0.351  0.00  0.00    -0.292 OA
ATOM      9  N   UNL     1      -0.601   0.590   3.276  0.00  0.00    -0.316 N 
ATOM     10  C   UNL     1      -0.429  -0.327   4.307  0.00  0.00    +0.052 A 
ATOM     11  C   UNL     1      -1.481  -1.058   4.830  0.00  0.00    +0.025 A 
ATOM     12  C   UNL     1      -1.263  -1.866   5.933  0.00  0.00    +0.002 A 
ATOM     13  C   UNL     1      -0.006  -1.944   6.504  0.00  0.00    +0.002 A 
ATOM     14  C   UNL     1       1.052  -1.231   5.968  0.00  0.00    +0.025 A 
ATOM     15  C   UNL     1       0.841  -0.435   4.853  0.00  0.00    +0.049 A 
ATOM     16  N   UNL     1       1.885   0.265   4.249  0.00  0.00    -0.331 N 
ATOM     17  H   UNL     1      -1.263   1.436   3.513  0.00  0.00    +0.152 HD
ATOM     18  H   UNL     1       2.387   1.065   4.811  0.00  0.00    +0.147 HD
ENDROOT
BRANCH   1  25
ATOM     19  C   UNL     1       4.745  -0.969   4.154  0.00  0.00    +0.044 C 
ATOM     20  C   UNL     1       3.846  -1.949   3.445  0.00  0.00    -0.045 A 
ATOM     21  C   UNL     1       4.184  -3.289   3.398  0.00  0.00    +0.004 A 
ATOM     22  C   UNL     1       3.362  -4.186   2.743  0.00  0.00    +0.000 A 
ATOM     23  C   UNL     1       2.199  -3.745   2.139  0.00  0.00    +0.000 A 
ATOM     24  C   UNL     1       1.858  -2.407   2.191  0.00  0.00    +0.006 A 
ATOM     25  C   UNL     1       2.680  -1.509   2.846  0.00  0.00    -0.020 A 
ENDBRANCH   1  25
BRANCH   5  26
ATOM     26  C   UNL     1      -1.442   0.234  -1.492  0.00  0.00    -0.040 A 
ATOM     27  C   UNL     1      -1.569   1.524  -1.972  0.00  0.00    +0.008 A 
ATOM     28  C   UNL     1      -2.409   1.789  -3.038  0.00  0.00    +0.050 A 
ATOM     29  C   UNL     1      -3.126   0.760  -3.627  0.00  0.00    +0.162 A 
ATOM     30  C   UNL     1      -2.997  -0.539  -3.144  0.00  0.00    +0.162 A 
ATOM     31  C   UNL     1      -2.150  -0.798  -2.079  0.00  0.00    +0.053 A 
BRANCH  30  32
ATOM     32  O   UNL     1      -3.699  -1.552  -3.719  0.00  0.00    -0.491 OA
ATOM     33  C   UNL     1      -3.517  -2.860  -3.171  0.00  0.00    +0.277 C 
ENDBRANCH  30  32
BRANCH  29  34
ATOM     34  O   UNL     1      -3.952   1.018  -4.676  0.00  0.00    -0.486 OA
BRANCH  34  35
ATOM     35  C   UNL     1      -4.130   2.389  -5.039  0.00  0.00    +0.167 C 
ATOM     36  C   UNL     1      -2.978   2.829  -5.945  0.00  0.00    +0.051 C 
ATOM     37  C   UNL     1      -5.456   2.551  -5.785  0.00  0.00    +0.051 C 
ENDBRANCH  34  35
ENDBRANCH  29  34
ENDBRANCH   5  26
TORSDOF 5
