REMARK  Name = ZINC06855573
REMARK  8 active torsions:
REMARK  status: ('A' for Active; 'I' for Inactive)
REMARK    1  A    between atoms: C_1  and  C_2
REMARK    2  A    between atoms: C_2  and  C_3
REMARK    3  A    between atoms: C_2  and  C_4
REMARK    4  A    between atoms: C_4  and  C_5
REMARK    5  A    between atoms: C_5  and  S_6
REMARK    6  A    between atoms: S_6  and  C_7
REMARK    7  A    between atoms: C_18  and  C_20
REMARK    8  A    between atoms: C_24  and  O_26
REMARK                            x       y       z     vdW  Elec       q    Type
REMARK                         _______ _______ _______ _____ _____    ______ ____
ROOT
ATOM      1  C   UNL     1      -2.929  -4.430  -0.269  0.00  0.00    +0.171 A 
ATOM      2  N   UNL     1      -4.038  -5.221  -0.299  0.00  0.00    -0.302 N 
ATOM      3  H   UNL     1      -4.920  -4.821  -0.235  0.00  0.00    +0.171 HD
ATOM      4  C   UNL     1      -3.913  -6.559  -0.419  0.00  0.00    +0.258 A 
ATOM      5  O   UNL     1      -4.901  -7.276  -0.445  0.00  0.00    -0.267 OA
ATOM      6  C   UNL     1      -2.630  -7.110  -0.512  0.00  0.00    +0.069 A 
ATOM      7  C   UNL     1      -1.536  -6.262  -0.480  0.00  0.00    +0.135 A 
ATOM      8  N   UNL     1      -1.719  -4.943  -0.362  0.00  0.00    -0.208 NA
ATOM      9  N   UNL     1      -0.262  -6.786  -0.579  0.00  0.00    -0.302 N 
ATOM     10  C   UNL     1      -0.061  -8.040  -1.087  0.00  0.00    +0.017 C 
ATOM     11  C   UNL     1      -1.069  -8.935  -1.147  0.00  0.00    +0.024 C 
ATOM     12  C   UNL     1      -2.448  -8.593  -0.642  0.00  0.00    +0.092 C 
ATOM     13  C   UNL     1      -0.867 -10.219  -1.684  0.00  0.00    +0.162 C 
ATOM     14  O   UNL     1      -1.794 -11.004  -1.715  0.00  0.00    -0.292 OA
ATOM     15  C   UNL     1       0.473 -10.639  -2.221  0.00  0.00    +0.080 C 
ATOM     16  C   UNL     1       1.219  -9.400  -2.726  0.00  0.00    +0.014 C 
ATOM     17  C   UNL     1       1.323  -8.396  -1.576  0.00  0.00    +0.051 C 
ATOM     18  H   UNL     1       0.498  -6.259  -0.285  0.00  0.00    +0.153 HD
ENDROOT
BRANCH  12  19
ATOM     19  C   UNL     1      -2.653  -9.234   0.706  0.00  0.00    -0.032 A 
ATOM     20  C   UNL     1      -1.844  -8.880   1.770  0.00  0.00    +0.005 A 
ATOM     21  C   UNL     1      -2.029  -9.467   3.008  0.00  0.00    +0.004 A 
ATOM     22  C   UNL     1      -3.024 -10.410   3.185  0.00  0.00    +0.045 A 
ATOM     23  C   UNL     1      -3.837 -10.767   2.119  0.00  0.00    +0.117 A 
ATOM     24  C   UNL     1      -3.652 -10.172   0.879  0.00  0.00    +0.050 A 
BRANCH  23  25
ATOM     25  O   UNL     1      -4.815 -11.694   2.290  0.00  0.00    -0.507 OA
ATOM     26  H   UNL     1      -5.667 -11.322   2.559  0.00  0.00    +0.292 HD
ENDBRANCH  23  25
ENDBRANCH  12  19
BRANCH   1  27
ATOM     27  S   UNL     1      -3.118  -2.686  -0.108  0.00  0.00    -0.088 S 
BRANCH  27  28
ATOM     28  C   UNL     1      -1.416  -2.058  -0.121  0.00  0.00    +0.077 C 
BRANCH  28  29
ATOM     29  C   UNL     1      -1.433  -0.534   0.013  0.00  0.00    +0.014 C 
BRANCH  29  31
ATOM     30  C   UNL     1      -0.019   1.526   0.010  0.00  0.00    +0.007 C 
ATOM     31  C   UNL     1       0.002  -0.004   0.002  0.00  0.00    -0.016 C 
ATOM     32  C   UNL     1       0.742  -0.511   1.242  0.00  0.00    +0.007 C 
ENDBRANCH  29  31
ENDBRANCH  28  29
ENDBRANCH  27  28
ENDBRANCH   1  27
TORSDOF 6
