REMARK  Name = ZINC05954980
REMARK  4 active torsions:
REMARK  status: ('A' for Active; 'I' for Inactive)
REMARK    1  A    between atoms: C_12  and  C_21
REMARK    2  A    between atoms: C_14  and  C_18
REMARK    3  A    between atoms: C_15  and  N_17
REMARK    4  A    between atoms: C_18  and  N_20
REMARK                            x       y       z     vdW  Elec       q    Type
REMARK                         _______ _______ _______ _____ _____    ______ ____
ROOT
ATOM      1  C   UNL     1      -4.790   8.398  -3.381  0.00  0.00    +0.001 A 
ATOM      2  C   UNL     1      -4.094   8.447  -4.580  0.00  0.00    +0.004 A 
ATOM      3  C   UNL     1      -2.769   8.068  -4.641  0.00  0.00    +0.047 A 
ATOM      4  C   UNL     1      -2.120   7.633  -3.493  0.00  0.00    +0.143 A 
ATOM      5  C   UNL     1      -2.823   7.582  -2.279  0.00  0.00    +0.060 A 
ATOM      6  C   UNL     1      -4.164   7.969  -2.232  0.00  0.00    +0.015 A 
ATOM      7  C   UNL     1      -2.123   7.118  -1.071  0.00  0.00    +0.152 A 
ATOM      8  C   UNL     1      -0.814   6.755  -1.184  0.00  0.00    +0.092 A 
ATOM      9  C   UNL     1      -0.177   6.833  -2.435  0.00  0.00    +0.345 A 
ATOM     10  O   UNL     1       0.993   6.506  -2.526  0.00  0.00    -0.245 OA
ATOM     11  O   UNL     1      -0.823   7.258  -3.533  0.00  0.00    -0.422 OA
ATOM     12  C   UNL     1      -0.046   6.270   0.016  0.00  0.00    +0.097 C 
ATOM     13  C   UNL     1      -0.769   6.642   1.280  0.00  0.00    +0.050 C 
ATOM     14  C   UNL     1      -2.074   7.011   1.257  0.00  0.00    +0.191 C 
ATOM     15  O   UNL     1      -2.771   7.060   0.108  0.00  0.00    -0.441 OA
ENDROOT
BRANCH  12  16
ATOM     16  C   UNL     1       0.097   4.771  -0.055  0.00  0.00    -0.035 A 
ATOM     17  C   UNL     1       1.355   4.198  -0.096  0.00  0.00    +0.005 A 
ATOM     18  C   UNL     1       1.486   2.824  -0.161  0.00  0.00    +0.015 A 
ATOM     19  C   UNL     1       0.360   2.022  -0.184  0.00  0.00    +0.018 A 
ATOM     20  C   UNL     1      -0.898   2.596  -0.148  0.00  0.00    +0.015 A 
ATOM     21  C   UNL     1      -1.029   3.970  -0.079  0.00  0.00    +0.005 A 
ATOM     22 BR   UNL     1       0.539   0.141  -0.273  0.00  0.00    -0.050 Br
ENDBRANCH  12  16
BRANCH  14  23
ATOM     23  N   UNL     1      -2.696   7.343   2.433  0.00  0.00    -0.329 N 
ATOM     24  H   UNL     1      -3.606   7.680   2.421  0.00  0.00    +0.145 HD
ATOM     25  H   UNL     1      -2.228   7.240   3.275  0.00  0.00    +0.145 HD
ENDBRANCH  14  23
BRANCH  13  26
ATOM     26  C   UNL     1      -0.082   6.607   2.505  0.00  0.00    +0.079 C 
ATOM     27  S   UNL     1       0.852   7.953   3.002  0.00  0.00    -0.035 S 
BRANCH  26  28
ATOM     28  N   UNL     1      -0.158   5.513   3.289  0.00  0.00    -0.352 N 
ATOM     29  H   UNL     1      -0.627   4.723   2.976  0.00  0.00    +0.143 HD
ATOM     30  H   UNL     1       0.255   5.516   4.167  0.00  0.00    +0.143 HD
ENDBRANCH  26  28
ENDBRANCH  13  26
TORSDOF 4
