REMARK  Name = ZINC02315651
REMARK  9 active torsions:
REMARK  status: ('A' for Active; 'I' for Inactive)
REMARK    1  A    between atoms: C_1  and  O_2
REMARK    2  A    between atoms: O_2  and  C_3
REMARK    3  A    between atoms: C_3  and  C_5
REMARK    4  A    between atoms: C_9  and  N_10
REMARK    5  A    between atoms: C_11  and  C_13
REMARK    6  A    between atoms: N_24  and  C_27
REMARK    7  A    between atoms: C_25  and  N_26
REMARK    8  A    between atoms: C_27  and  C_28
REMARK    9  A    between atoms: C_28  and  C_29
REMARK                            x       y       z     vdW  Elec       q    Type
REMARK                         _______ _______ _______ _____ _____    ______ ____
ROOT
ATOM      1  C   UNL     1       1.481   3.427   0.005  0.00  0.00    +0.104 A 
ATOM      2  C   UNL     1       1.121   2.000   0.002  0.00  0.00    +0.122 A 
ATOM      3  C   UNL     1       2.397   1.278  -0.014  0.00  0.00    +0.162 A 
ATOM      4  N   UNL     1       2.396  -0.038  -0.020  0.00  0.00    -0.226 NA
ATOM      5  C   UNL     1       1.234  -0.704  -0.013  0.00  0.00    +0.092 A 
ATOM      6  C   UNL     1       1.224  -2.111  -0.020  0.00  0.00    +0.030 A 
ATOM      7  C   UNL     1       0.039  -2.780  -0.012  0.00  0.00    +0.002 A 
ATOM      8  C   UNL     1      -1.173  -2.091   0.003  0.00  0.00    +0.002 A 
ATOM      9  C   UNL     1      -1.203  -0.731   0.010  0.00  0.00    +0.030 A 
ATOM     10  C   UNL     1       0.002  -0.004   0.002  0.00  0.00    +0.090 A 
ATOM     11  N   UNL     1      -0.016   1.334   0.009  0.00  0.00    -0.241 NA
ATOM     12  N   UNL     1       3.397   2.229  -0.019  0.00  0.00    -0.312 N 
ATOM     13  C   UNL     1       2.871   3.483  -0.008  0.00  0.00    +0.112 A 
ENDROOT
BRANCH   1  15
ATOM     14  N   UNL     1       0.173   5.045   1.191  0.00  0.00    -0.275 N 
ATOM     15  C   UNL     1       0.587   4.527   0.018  0.00  0.00    +0.254 C 
ATOM     16  O   UNL     1       0.194   5.005  -1.031  0.00  0.00    -0.270 OA
ATOM     17  H   UNL     1       0.486   4.665   2.027  0.00  0.00    +0.156 HD
BRANCH  14  22
ATOM     18  C   UNL     1      -1.239   6.782   2.300  0.00  0.00    +0.091 A 
ATOM     19  C   UNL     1      -2.137   7.894   2.038  0.00  0.00    -0.021 A 
ATOM     20  C   UNL     1      -2.359   8.158   0.732  0.00  0.00    -0.004 A 
ATOM     21  S   UNL     1      -1.392   6.962  -0.143  0.00  0.00    -0.077 S 
ATOM     22  C   UNL     1      -0.700   6.120   1.204  0.00  0.00    +0.087 A 
ATOM     23  C   UNL     1      -3.236   9.231   0.164  0.00  0.00    +0.043 C 
ATOM     24  C   UNL     1      -4.145   9.757   1.285  0.00  0.00    +0.005 C 
ATOM     25  C   UNL     1      -3.288  10.040   2.523  0.00  0.00    +0.005 C 
ATOM     26  C   UNL     1      -2.802   8.722   3.130  0.00  0.00    +0.037 C 
BRANCH  18  27
ATOM     27  C   UNL     1      -0.912   6.376   3.668  0.00  0.00    +0.342 C 
ATOM     28  O   UNL     1       0.042   6.873   4.238  0.00  0.00    -0.245 OA
BRANCH  27  30
ATOM     29  C   UNL     1      -1.284   5.099   5.652  0.00  0.00    +0.280 C 
ATOM     30  O   UNL     1      -1.667   5.453   4.297  0.00  0.00    -0.464 OA
ENDBRANCH  27  30
ENDBRANCH  18  27
ENDBRANCH  14  22
ENDBRANCH   1  15
BRANCH  13  31
ATOM     31  N   UNL     1       3.606   4.640  -0.009  0.00  0.00    -0.344 N 
ATOM     32  H   UNL     1       4.575   4.598  -0.019  0.00  0.00    +0.144 HD
ATOM     33  H   UNL     1       3.158   5.500  -0.001  0.00  0.00    +0.144 HD
ENDBRANCH  13  31
BRANCH  12  34
ATOM     34  C   UNL     1       4.831   1.928  -0.034  0.00  0.00    +0.130 C 
BRANCH  34  35
ATOM     35  C   UNL     1       5.317   1.830  -1.481  0.00  0.00    +0.057 C 
BRANCH  35  36
ATOM     36  C   UNL     1       6.792   1.521  -1.497  0.00  0.00    -0.046 A 
ATOM     37  C   UNL     1       7.714   2.551  -1.506  0.00  0.00    +0.004 A 
ATOM     38  C   UNL     1       9.067   2.267  -1.514  0.00  0.00    +0.000 A 
ATOM     39  C   UNL     1       9.497   0.953  -1.525  0.00  0.00    +0.000 A 
ATOM     40  C   UNL     1       8.575  -0.076  -1.522  0.00  0.00    +0.000 A 
ATOM     41  C   UNL     1       7.222   0.207  -1.507  0.00  0.00    +0.004 A 
ENDBRANCH  35  36
ENDBRANCH  34  35
ENDBRANCH  12  34
TORSDOF 8
