REMARK  Name = ZINC20559051
REMARK  8 active torsions:
REMARK  status: ('A' for Active; 'I' for Inactive)
REMARK    1  A    between atoms: C_1  and  C_2
REMARK    2  A    between atoms: C_2  and  O_3
REMARK    3  A    between atoms: O_3  and  C_4
REMARK    4  A    between atoms: C_4  and  C_6
REMARK    5  A    between atoms: C_7  and  C_19
REMARK    6  A    between atoms: C_12  and  C_14
REMARK    7  A    between atoms: C_19  and  N_20
REMARK    8  A    between atoms: N_23  and  C_26
REMARK                            x       y       z     vdW  Elec       q    Type
REMARK                         _______ _______ _______ _____ _____    ______ ____
ROOT
ATOM      1  C   UNL     1       2.392   4.553  -1.428  0.00  0.00    +0.080 C 
ATOM      2  C   UNL     1       2.281   5.864  -1.731  0.00  0.00    +0.038 C 
ATOM      3  N   UNL     1       2.069   6.797  -0.756  0.00  0.00    -0.271 N 
ATOM      4  C   UNL     1       1.956   6.500   0.544  0.00  0.00    +0.304 C 
ATOM      5  O   UNL     1       1.769   7.400   1.339  0.00  0.00    -0.252 OA
ATOM      6  N   UNL     1       2.044   5.236   1.001  0.00  0.00    -0.288 N 
ATOM      7  C   UNL     1       2.272   4.153   0.029  0.00  0.00    +0.150 C 
ATOM      8  H   UNL     1       1.982   7.861  -1.023  0.00  0.00    +0.156 HD
ATOM      9  H   UNL     1       1.948   5.002   2.071  0.00  0.00    +0.151 HD
ENDROOT
BRANCH   7  10
ATOM     10  C   UNL     1       1.135   3.172   0.150  0.00  0.00    +0.015 A 
ATOM     11  C   UNL     1       1.174   1.817   0.170  0.00  0.00    +0.013 A 
ATOM     12  C   UNL     1      -0.009   1.114   0.291  0.00  0.00    +0.008 A 
ATOM     13  C   UNL     1      -1.175   1.800   0.379  0.00  0.00    +0.045 A 
ATOM     14  S   UNL     1      -0.615   3.493   0.303  0.00  0.00    -0.099 S 
ENDBRANCH   7  10
BRANCH   1  15
ATOM     15  C   UNL     1       2.611   3.586  -2.436  0.00  0.00    +0.339 C 
ATOM     16  O   UNL     1       1.680   2.926  -2.860  0.00  0.00    -0.245 OA
BRANCH  15  17
ATOM     17  O   UNL     1       3.853   3.394  -2.929  0.00  0.00    -0.462 OA
BRANCH  17  19
ATOM     18  C   UNL     1       5.467   2.327  -4.376  0.00  0.00    +0.048 C 
ATOM     19  C   UNL     1       4.001   2.401  -3.945  0.00  0.00    +0.229 C 
ENDBRANCH  17  19
ENDBRANCH  15  17
ENDBRANCH   1  15
BRANCH   2  20
ATOM     20  C   UNL     1       2.393   6.306  -3.167  0.00  0.00    +0.136 C 
BRANCH  20  21
ATOM     21  N   UNL     1       1.115   6.883  -3.604  0.00  0.00    -0.294 NA
ATOM     22  C   UNL     1       0.059   5.861  -3.637  0.00  0.00    +0.103 C 
ATOM     23  C   UNL     1      -1.270   6.517  -4.018  0.00  0.00    +0.120 C 
ATOM     24  N   UNL     1      -1.133   7.171  -5.327  0.00  0.00    -0.327 N 
ATOM     25  C   UNL     1      -0.077   8.193  -5.294  0.00  0.00    +0.120 C 
ATOM     26  C   UNL     1       1.252   7.537  -4.913  0.00  0.00    +0.103 C 
BRANCH  24  27
ATOM     27  C   UNL     1      -2.348   7.720  -5.742  0.00  0.00    +0.031 A 
ATOM     28  C   UNL     1      -2.432   9.072  -6.051  0.00  0.00    +0.023 A 
ATOM     29  C   UNL     1      -3.633   9.611  -6.466  0.00  0.00    +0.003 A 
ATOM     30  C   UNL     1      -4.756   8.809  -6.564  0.00  0.00    +0.020 A 
ATOM     31  C   UNL     1      -4.678   7.464  -6.252  0.00  0.00    +0.043 A 
ATOM     32  C   UNL     1      -3.477   6.917  -5.840  0.00  0.00    +0.043 A 
ATOM     33 CL   UNL     1      -6.090   6.461  -6.375  0.00  0.00    -0.083 Cl
ENDBRANCH  24  27
ENDBRANCH  20  21
ENDBRANCH   2  20
TORSDOF 7
