REMARK  Name = ZINC04488917
REMARK  2 active torsions:
REMARK  status: ('A' for Active; 'I' for Inactive)
REMARK    1  A    between atoms: C_3  and  C_6
REMARK    2  A    between atoms: C_11  and  C_17
REMARK                            x       y       z     vdW  Elec       q    Type
REMARK                         _______ _______ _______ _____ _____    ______ ____
ROOT
ATOM      1  C   UNL     1       2.429   3.895  -1.085  0.00  0.00    +0.039 C 
ATOM      2  C   UNL     1       1.098   3.509  -0.435  0.00  0.00    +0.060 C 
ATOM      3  C   UNL     1       1.147   2.066   0.002  0.00  0.00    +0.018 C 
ATOM      4  C   UNL     1       2.311   1.498   0.384  0.00  0.00    +0.020 C 
ATOM      5  C   UNL     1       2.333   0.055   0.829  0.00  0.00    +0.063 C 
ATOM      6  C   UNL     1       1.315  -0.744   0.013  0.00  0.00    +0.109 C 
ATOM      7  C   UNL     1       0.002  -0.004   0.002  0.00  0.00    +0.218 C 
ATOM      8  O   UNL     1      -1.040  -0.623  -0.013  0.00  0.00    -0.275 OA
ATOM      9  N   UNL     1      -0.016   1.340   0.009  0.00  0.00    -0.289 N 
ATOM     10  C   UNL     1       3.515   2.221   0.376  0.00  0.00    +0.162 C 
ATOM     11  O   UNL     1       4.541   1.679   0.736  0.00  0.00    -0.292 OA
ATOM     12  C   UNL     1       3.554   3.658  -0.072  0.00  0.00    +0.088 C 
ATOM     13  H   UNL     1      -0.868   1.805   0.016  0.00  0.00    +0.155 HD
ENDROOT
BRANCH   5  14
ATOM     14  C   UNL     1       1.979  -0.025   2.292  0.00  0.00    -0.036 A 
ATOM     15  C   UNL     1       0.758   0.449   2.733  0.00  0.00    +0.008 A 
ATOM     16  C   UNL     1       0.427   0.373   4.073  0.00  0.00    +0.050 A 
ATOM     17  C   UNL     1       1.324  -0.169   4.979  0.00  0.00    +0.166 A 
ATOM     18  C   UNL     1       2.557  -0.642   4.535  0.00  0.00    +0.167 A 
ATOM     19  C   UNL     1       2.879  -0.568   3.190  0.00  0.00    +0.053 A 
ATOM     20  O   UNL     1       3.252  -1.121   5.608  0.00  0.00    -0.453 OA
ATOM     21  C   UNL     1       2.273  -1.312   6.646  0.00  0.00    +0.466 C 
ATOM     22  O   UNL     1       1.247  -0.352   6.330  0.00  0.00    -0.453 OA
ENDBRANCH   5  14
BRANCH   1  25
ATOM     23  C   UNL     1       2.472   7.277  -2.837  0.00  0.00    +0.008 A 
ATOM     24  C   UNL     1       2.542   5.902  -2.709  0.00  0.00    +0.011 A 
ATOM     25  C   UNL     1       2.397   5.348  -1.480  0.00  0.00    -0.006 A 
ATOM     26  S   UNL     1       2.166   6.789  -0.451  0.00  0.00    -0.101 S 
ATOM     27  C   UNL     1       2.271   8.031  -1.729  0.00  0.00    +0.045 A 
ENDBRANCH   1  25
TORSDOF 2
