REMARK  Name = ZINC09142769
REMARK  4 active torsions:
REMARK  status: ('A' for Active; 'I' for Inactive)
REMARK    1  A    between atoms: C_4  and  C_7
REMARK    2  A    between atoms: N_9  and  C_21
REMARK    3  A    between atoms: C_10  and  C_13
REMARK    4  A    between atoms: C_13  and  N_14
REMARK                            x       y       z     vdW  Elec       q    Type
REMARK                         _______ _______ _______ _____ _____    ______ ____
ROOT
ATOM      1  C   UNL     1      -1.467   3.077  -0.309  0.00  0.00    +0.068 C 
ATOM      2  N   UNL     1      -1.332   3.024   0.972  0.00  0.00    -0.183 NA
ATOM      3  N   UNL     1      -0.384   2.096   1.409  0.00  0.00    -0.219 N 
ATOM      4  C   UNL     1       0.198   1.428   0.234  0.00  0.00    +0.125 C 
ATOM      5  C   UNL     1      -0.528   2.084  -0.957  0.00  0.00    +0.084 C 
ENDROOT
BRANCH   1   9
ATOM      6  C   UNL     1      -4.134   5.642  -2.387  0.00  0.00    +0.000 A 
ATOM      7  C   UNL     1      -4.080   5.678  -1.005  0.00  0.00    +0.001 A 
ATOM      8  C   UNL     1      -3.216   4.847  -0.323  0.00  0.00    +0.010 A 
ATOM      9  C   UNL     1      -2.393   3.968  -1.031  0.00  0.00    -0.002 A 
ATOM     10  C   UNL     1      -2.448   3.941  -2.427  0.00  0.00    +0.010 A 
ATOM     11  C   UNL     1      -3.321   4.774  -3.095  0.00  0.00    +0.001 A 
ENDBRANCH   1   9
BRANCH   3  12
ATOM     12  C   UNL     1      -0.044   1.843   2.738  0.00  0.00    +0.052 A 
ATOM     13  C   UNL     1       1.023   1.004   3.037  0.00  0.00    +0.025 A 
ATOM     14  C   UNL     1       1.360   0.760   4.353  0.00  0.00    +0.002 A 
ATOM     15  C   UNL     1       0.630   1.339   5.375  0.00  0.00    +0.000 A 
ATOM     16  C   UNL     1      -0.436   2.170   5.082  0.00  0.00    +0.002 A 
ATOM     17  C   UNL     1      -0.776   2.423   3.767  0.00  0.00    +0.025 A 
ENDBRANCH   3  12
BRANCH   4  18
ATOM     18  C   UNL     1      -0.085  -0.075   0.275  0.00  0.00    +0.171 C 
BRANCH  18  19
ATOM     19  N   UNL     1       0.505  -0.715  -0.904  0.00  0.00    -0.233 N 
ATOM     20  C   UNL     1      -0.124  -1.024  -2.052  0.00  0.00    +0.222 A 
ATOM     21  N   UNL     1       0.749  -1.580  -2.855  0.00  0.00    -0.186 NA
ATOM     22  C   UNL     1       1.936  -1.651  -2.253  0.00  0.00    +0.244 A 
ATOM     23  N   UNL     1       1.837  -1.134  -1.056  0.00  0.00    -0.136 NA
ATOM     24 CL   UNL     1       3.381  -2.320  -2.945  0.00  0.00    -0.039 Cl
ATOM     25 CL   UNL     1      -1.797  -0.733  -2.409  0.00  0.00    -0.041 Cl
ENDBRANCH  18  19
ENDBRANCH   4  18
TORSDOF 4
