REMARK  Name = ZINC09019051
REMARK  10 active torsions:
REMARK  status: ('A' for Active; 'I' for Inactive)
REMARK    1  A    between atoms: C_1  and  C_2
REMARK    2  A    between atoms: C_5  and  C_8
REMARK    3  A    between atoms: C_8  and  S_9
REMARK    4  A    between atoms: S_9  and  C_10
REMARK    5  A    between atoms: C_13  and  S_15
REMARK    6  A    between atoms: S_15  and  C_16
REMARK    7  A    between atoms: C_16  and  C_17
REMARK    8  A    between atoms: N_19  and  N_20
REMARK    9  A    between atoms: C_21  and  C_22
REMARK   10  A    between atoms: C_21  and  C_23
REMARK                            x       y       z     vdW  Elec       q    Type
REMARK                         _______ _______ _______ _____ _____    ______ ____
ROOT
ATOM      1  C   UNL     1      -1.842   0.865  -2.313  0.00  0.00    +0.173 C 
ENDROOT
BRANCH   1   2
ATOM      2  C   UNL     1      -0.664   1.625  -1.760  0.00  0.00    +0.242 C 
ATOM      3  O   UNL     1      -0.556   2.814  -1.972  0.00  0.00    -0.273 OA
ATOM      4  N   UNL     1       0.269   0.983  -1.030  0.00  0.00    -0.206 N 
ATOM      5  H   UNL     1       0.183   0.032  -0.860  0.00  0.00    +0.177 HD
BRANCH   4   6
ATOM      6  N   UNL     1       1.367   1.688  -0.520  0.00  0.00    -0.185 NA
ATOM      7  C   UNL     1       2.324   1.052   0.084  0.00  0.00    +0.063 C 
ATOM      8  C   UNL     1       3.409   1.821   0.793  0.00  0.00    +0.068 C 
BRANCH   7   9
ATOM      9  C   UNL     1       2.349  -0.422   0.075  0.00  0.00    -0.001 A 
ATOM     10  C   UNL     1       1.936  -1.124  -1.060  0.00  0.00    +0.011 A 
ATOM     11  C   UNL     1       1.962  -2.503  -1.062  0.00  0.00    +0.022 A 
ATOM     12  C   UNL     1       2.396  -3.192   0.059  0.00  0.00    +0.059 A 
ATOM     13  C   UNL     1       2.806  -2.502   1.188  0.00  0.00    +0.060 A 
ATOM     14  C   UNL     1       2.790  -1.122   1.201  0.00  0.00    +0.031 A 
ATOM     15 CL   UNL     1       3.349  -3.375   2.587  0.00  0.00    -0.082 Cl
ATOM     16 CL   UNL     1       2.425  -4.928   0.048  0.00  0.00    -0.082 Cl
ENDBRANCH   7   9
ENDBRANCH   4   6
ENDBRANCH   1   2
BRANCH   1  17
ATOM     17  S   UNL     1      -2.911   1.998  -3.242  0.00  0.00    -0.088 S 
BRANCH  17  21
ATOM     18  C   UNL     1      -6.386  -0.222  -4.877  0.00  0.00    +0.160 A 
ATOM     19  N   UNL     1      -5.523  -0.930  -4.175  0.00  0.00    -0.134 NA
ATOM     20  N   UNL     1      -4.416  -0.320  -3.632  0.00  0.00    -0.134 NA
ATOM     21  C   UNL     1      -4.223   0.973  -3.816  0.00  0.00    +0.160 A 
ATOM     22  S   UNL     1      -5.653   1.405  -4.796  0.00  0.00    -0.033 S 
BRANCH  18  23
ATOM     23  S   UNL     1      -7.869  -0.739  -5.675  0.00  0.00    -0.092 S 
BRANCH  23  24
ATOM     24  C   UNL     1      -7.963  -2.515  -5.317  0.00  0.00    +0.111 C 
BRANCH  24  29
ATOM     25  C   UNL     1     -12.719  -4.722  -7.747  0.00  0.00    +0.044 C 
ATOM     26  C   UNL     1     -11.478  -4.147  -7.113  0.00  0.00    -0.050 A 
ATOM     27  C   UNL     1     -10.291  -4.117  -7.821  0.00  0.00    +0.003 A 
ATOM     28  C   UNL     1      -9.153  -3.589  -7.239  0.00  0.00    +0.005 A 
ATOM     29  C   UNL     1      -9.203  -3.091  -5.950  0.00  0.00    -0.037 A 
ATOM     30  C   UNL     1     -10.389  -3.125  -5.242  0.00  0.00    +0.005 A 
ATOM     31  C   UNL     1     -11.528  -3.649  -5.825  0.00  0.00    +0.003 A 
ENDBRANCH  24  29
ENDBRANCH  23  24
ENDBRANCH  18  23
ENDBRANCH  17  21
ENDBRANCH   1  17
TORSDOF 8
