REMARK  Name = ZINC50673235
REMARK  6 active torsions:
REMARK  status: ('A' for Active; 'I' for Inactive)
REMARK    1  A    between atoms: C_1  and  C_2
REMARK    2  A    between atoms: N_5  and  S_11
REMARK    3  A    between atoms: C_7  and  C_9
REMARK    4  A    between atoms: C_7  and  C_10
REMARK    5  A    between atoms: S_11  and  C_14
REMARK    6  A    between atoms: C_19  and  N_20
REMARK                            x       y       z     vdW  Elec       q    Type
REMARK                         _______ _______ _______ _____ _____    ______ ____
ROOT
ATOM      1  S   UNL     1      -1.639  -2.898  -0.503  0.00  0.00    +0.064 S 
ATOM      2  O   UNL     1      -1.675  -4.131   0.203  0.00  0.00    -0.153 OA
ATOM      3  O   UNL     1      -2.803  -2.116  -0.730  0.00  0.00    -0.153 OA
ENDROOT
BRANCH   1   7
ATOM      4  C   UNL     1       0.508   1.697   0.102  0.00  0.00    +0.039 C 
ATOM      5  C   UNL     1       0.594   0.182  -0.095  0.00  0.00    +0.132 C 
ATOM      6  C   UNL     1      -0.734  -0.464   0.317  0.00  0.00    +0.140 C 
ATOM      7  N   UNL     1      -0.564  -1.926   0.298  0.00  0.00    -0.171 NA
ATOM      8  C   UNL     1       0.588  -2.498   1.012  0.00  0.00    +0.144 C 
ATOM      9  C   UNL     1       1.852  -1.752   0.567  0.00  0.00    +0.079 C 
ATOM     10  O   UNL     1       1.647  -0.345   0.716  0.00  0.00    -0.368 OA
ATOM     11  C   UNL     1       2.143  -2.072  -0.901  0.00  0.00    +0.042 C 
ATOM     12  C   UNL     1       3.035  -2.191   1.431  0.00  0.00    +0.042 C 
ENDBRANCH   1   7
BRANCH   1  13
ATOM     13  C   UNL     1      -0.948  -3.244  -2.087  0.00  0.00    +0.146 A 
ATOM     14  C   UNL     1      -0.547  -4.528  -2.411  0.00  0.00    +0.048 A 
ATOM     15  C   UNL     1      -0.008  -4.755  -3.671  0.00  0.00    +0.038 A 
ATOM     16  C   UNL     1       0.111  -3.701  -4.556  0.00  0.00    +0.128 A 
ATOM     17  N   UNL     1      -0.280  -2.487  -4.218  0.00  0.00    -0.238 NA
ATOM     18  C   UNL     1      -0.804  -2.232  -3.029  0.00  0.00    +0.143 A 
ATOM     19 BR   UNL     1       0.558  -6.489  -4.170  0.00  0.00    -0.049 Br
BRANCH  18  20
ATOM     20  N   UNL     1      -1.209  -0.938  -2.718  0.00  0.00    -0.342 N 
ATOM     21  H   UNL     1      -1.708  -0.769  -1.904  0.00  0.00    +0.144 HD
ATOM     22  H   UNL     1      -0.992  -0.205  -3.315  0.00  0.00    +0.144 HD
ENDBRANCH  18  20
ENDBRANCH   1  13
TORSDOF 3
