REMARK  Name = ZINC39467426
REMARK  4 active torsions:
REMARK  status: ('A' for Active; 'I' for Inactive)
REMARK    1  A    between atoms: C_1  and  S_2
REMARK    2  A    between atoms: S_2  and  C_3
REMARK    3  A    between atoms: P_19  and  C_22
REMARK    4  A    between atoms: C_27  and  O_28
REMARK                            x       y       z     vdW  Elec       q    Type
REMARK                         _______ _______ _______ _____ _____    ______ ____
ROOT
ATOM      1  C   UNL     1       0.877  -0.427   1.472  0.00  0.00    +0.018 C 
ATOM      2  C   UNL     1       1.335   0.537   2.286  0.00  0.00    -0.009 C 
ATOM      3  C   UNL     1       2.065   0.137   3.538  0.00  0.00    +0.005 C 
ATOM      4  C   UNL     1       2.025   1.239   4.590  0.00  0.00    -0.046 C 
ATOM      5  N   UNL     1       2.787   0.820   5.780  0.00  0.00    +0.398 N 
ATOM      6  C   UNL     1       2.230  -0.396   6.372  0.00  0.00    -0.020 C 
ATOM      7  C   UNL     1       2.195  -1.542   5.351  0.00  0.00    -0.003 C 
ATOM      8  C   UNL     1       1.389  -1.107   4.130  0.00  0.00    +0.017 C 
ATOM      9  C   UNL     1       1.351  -2.186   3.083  0.00  0.00    -0.007 C 
ATOM     10  C   UNL     1       1.106  -1.845   1.820  0.00  0.00    +0.027 C 
ATOM     11 BR   UNL     1       1.058  -3.172   0.474  0.00  0.00    -0.049 Br
ATOM     12  C   UNL     1       3.080  -0.887   7.550  0.00  0.00    +0.157 C 
ATOM     13  O   UNL     1       3.091   0.116   8.582  0.00  0.00    -0.316 OA
ATOM     14  P   UNL     1       3.454   1.642   8.150  0.00  0.00    +0.291 P 
ATOM     15  O   UNL     1       4.920   1.806   8.030  0.00  0.00    -0.269 OA
ATOM     16  N   UNL     1       2.713   1.867   6.674  0.00  0.00    -0.288 NA
ATOM     17  H   UNL     1       2.264   2.695   6.442  0.00  0.00    +0.111 HD
ATOM     18  H   UNL     1       3.750   0.662   5.525  0.00  0.00    -0.055 HD
ENDROOT
BRANCH  14  19
ATOM     19  C   UNL     1       2.789   2.814   9.364  0.00  0.00    +0.091 A 
ATOM     20  C   UNL     1       1.514   3.323   9.207  0.00  0.00    +0.018 A 
ATOM     21  C   UNL     1       1.007   4.217  10.132  0.00  0.00    +0.001 A 
ATOM     22  C   UNL     1       1.774   4.604  11.216  0.00  0.00    +0.004 A 
ATOM     23  C   UNL     1       3.048   4.097  11.377  0.00  0.00    +0.046 A 
ATOM     24  C   UNL     1       3.558   3.196  10.454  0.00  0.00    +0.131 A 
BRANCH  24  25
ATOM     25  O   UNL     1       4.810   2.692  10.613  0.00  0.00    -0.506 OA
ATOM     26  H   UNL     1       5.503   3.219  10.191  0.00  0.00    +0.292 HD
ENDBRANCH  24  25
ENDBRANCH  14  19
BRANCH   1  28
ATOM     27  C   UNL     1      -0.022   1.810   0.012  0.00  0.00    +0.090 C 
ATOM     28  S   UNL     1       0.002  -0.004   0.002  0.00  0.00    -0.128 S 
ENDBRANCH   1  28
TORSDOF 3
