REMARK  Name = ZINC66131424
REMARK  4 active torsions:
REMARK  status: ('A' for Active; 'I' for Inactive)
REMARK    1  A    between atoms: C_1  and  C_2
REMARK    2  A    between atoms: C_2  and  C_16
REMARK    3  A    between atoms: N_12  and  C_13
REMARK    4  A    between atoms: C_13  and  C_14
REMARK                            x       y       z     vdW  Elec       q    Type
REMARK                         _______ _______ _______ _____ _____    ______ ____
ROOT
ATOM      1  C   UNL     1      -0.622   1.446   0.239  0.00  0.00    +0.059 C 
ATOM      2  C   UNL     1      -0.267  -0.033   0.073  0.00  0.00    +0.125 C 
ATOM      3  N   UNL     1       0.428  -0.225  -1.205  0.00  0.00    -0.319 N 
ATOM      4  C   UNL     1       1.141  -1.401  -1.409  0.00  0.00    +0.041 A 
ATOM      5  C   UNL     1       1.318  -1.936  -2.674  0.00  0.00    +0.024 A 
ATOM      6  C   UNL     1       2.044  -3.102  -2.829  0.00  0.00    +0.002 A 
ATOM      7  C   UNL     1       2.595  -3.739  -1.729  0.00  0.00    +0.001 A 
ATOM      8  C   UNL     1       2.425  -3.222  -0.461  0.00  0.00    +0.015 A 
ATOM      9  C   UNL     1       1.692  -2.050  -0.290  0.00  0.00    +0.058 A 
ATOM     10  C   UNL     1       1.461  -1.471   1.045  0.00  0.00    +0.250 C 
ATOM     11  O   UNL     1       2.054  -1.906   2.013  0.00  0.00    -0.270 OA
ATOM     12  N   UNL     1       0.587  -0.454   1.184  0.00  0.00    -0.269 N 
ATOM     13  H   UNL     1       0.391   0.456  -1.895  0.00  0.00    +0.148 HD
ENDROOT
BRANCH   2  14
ATOM     14  C   UNL     1      -1.532  -0.853   0.077  0.00  0.00    -0.006 A 
ATOM     15  C   UNL     1      -1.970  -1.434   1.266  0.00  0.00    +0.008 A 
ATOM     16  C   UNL     1      -3.107  -2.181   1.304  0.00  0.00    +0.009 A 
ATOM     17  C   UNL     1      -3.853  -2.371   0.129  0.00  0.00    -0.018 A 
ATOM     18  C   UNL     1      -5.033  -3.135   0.129  0.00  0.00    +0.008 A 
ATOM     19  C   UNL     1      -5.730  -3.297  -1.028  0.00  0.00    +0.001 A 
ATOM     20  C   UNL     1      -5.293  -2.716  -2.217  0.00  0.00    +0.001 A 
ATOM     21  C   UNL     1      -4.155  -1.970  -2.255  0.00  0.00    +0.008 A 
ATOM     22  C   UNL     1      -3.409  -1.780  -1.080  0.00  0.00    -0.018 A 
ATOM     23  C   UNL     1      -2.232  -1.011  -1.079  0.00  0.00    +0.016 A 
ENDBRANCH   2  14
BRANCH  12  24
ATOM     24  C   UNL     1       0.489   0.241   2.470  0.00  0.00    +0.137 C 
BRANCH  24  25
ATOM     25  C   UNL     1       1.540   1.319   2.538  0.00  0.00    -0.016 C 
ATOM     26  C   UNL     1       1.194   2.555   2.802  0.00  0.00    +0.005 C 
ENDBRANCH  24  25
ENDBRANCH  12  24
TORSDOF 3
