REMARK  Name = ZINC61594329
REMARK  9 active torsions:
REMARK  status: ('A' for Active; 'I' for Inactive)
REMARK    1  A    between atoms: C_1  and  C_2
REMARK    2  A    between atoms: C_2  and  C_3
REMARK    3  A    between atoms: C_3  and  C_5
REMARK    4  A    between atoms: C_3  and  N_24
REMARK    5  A    between atoms: C_5  and  C_7
REMARK    6  A    between atoms: C_5  and  S_14
REMARK    7  A    between atoms: S_14  and  C_15
REMARK    8  A    between atoms: N_21  and  C_22
REMARK    9  A    between atoms: C_22  and  C_23
REMARK                            x       y       z     vdW  Elec       q    Type
REMARK                         _______ _______ _______ _____ _____    ______ ____
ROOT
ATOM      1  C   UNL     1       0.787  -2.044   1.256  0.00  0.00    +0.070 C 
ENDROOT
BRANCH   1   2
ATOM      2  C   UNL     1       1.392  -2.584   2.527  0.00  0.00    -0.036 A 
ATOM      3  C   UNL     1       2.697  -2.271   2.858  0.00  0.00    +0.006 A 
ATOM      4  C   UNL     1       3.252  -2.766   4.023  0.00  0.00    +0.015 A 
ATOM      5  C   UNL     1       2.502  -3.575   4.857  0.00  0.00    +0.018 A 
ATOM      6  C   UNL     1       1.196  -3.888   4.525  0.00  0.00    +0.015 A 
ATOM      7  C   UNL     1       0.640  -3.389   3.363  0.00  0.00    +0.006 A 
ATOM      8 BR   UNL     1       3.261  -4.253   6.451  0.00  0.00    -0.050 Br
ENDBRANCH   1   2
BRANCH   1   9
ATOM      9  C   UNL     1       0.808  -0.515   1.292  0.00  0.00    -0.057 C 
BRANCH   9  10
ATOM     10  N   UNL     1       0.057  -0.042   2.462  0.00  0.00    +0.381 N 
ATOM     11  H   UNL     1      -0.897  -0.364   2.402  0.00  0.00    -0.090 HD
ATOM     12  H   UNL     1       0.481  -0.404   3.303  0.00  0.00    -0.090 HD
ATOM     13  H   UNL     1       0.071   0.967   2.486  0.00  0.00    -0.090 HD
ENDBRANCH   9  10
BRANCH   9  15
ATOM     14  C   UNL     1       0.305   1.557  -0.011  0.00  0.00    +0.002 C 
ATOM     15  C   UNL     1       0.164   0.034   0.017  0.00  0.00    -0.018 C 
ENDBRANCH   9  15
ENDBRANCH   1   9
BRANCH   1  16
ATOM     16  S   UNL     1       1.747  -2.629  -0.167  0.00  0.00    -0.080 S 
BRANCH  16  17
ATOM     17  C   UNL     1       1.442  -4.364  -0.203  0.00  0.00    +0.193 A 
ATOM     18  N   UNL     1       0.747  -5.031   0.673  0.00  0.00    -0.145 NA
ATOM     19  N   UNL     1       0.743  -6.379   0.288  0.00  0.00    -0.226 N 
ATOM     20  H   UNL     1       0.302  -7.108   0.753  0.00  0.00    +0.194 HD
ATOM     21  C   UNL     1       1.463  -6.476  -0.849  0.00  0.00    +0.345 A 
ATOM     22  O   UNL     1       1.679  -7.497  -1.479  0.00  0.00    -0.245 OA
ATOM     23  N   UNL     1       1.895  -5.239  -1.165  0.00  0.00    -0.271 N 
BRANCH  23  24
ATOM     24  C   UNL     1       2.709  -4.887  -2.330  0.00  0.00    +0.125 C 
ATOM     25  C   UNL     1       4.192  -4.990  -1.966  0.00  0.00    +0.027 C 
ENDBRANCH  23  24
ENDBRANCH  16  17
ENDBRANCH   1  16
TORSDOF 7
