REMARK  Name = ZINC49019106
REMARK  5 active torsions:
REMARK  status: ('A' for Active; 'I' for Inactive)
REMARK    1  A    between atoms: C_3  and  O_8
REMARK    2  A    between atoms: O_8  and  C_9
REMARK    3  A    between atoms: C_9  and  C_11
REMARK    4  A    between atoms: C_14  and  N_20
REMARK    5  A    between atoms: C_15  and  N_17
REMARK                            x       y       z     vdW  Elec       q    Type
REMARK                         _______ _______ _______ _____ _____    ______ ____
ROOT
ATOM      1  C   UNL     1       4.917   3.941  -0.478  0.00  0.00    +0.062 A 
ATOM      2  C   UNL     1       6.147   3.366  -0.140  0.00  0.00    +0.017 A 
ATOM      3  C   UNL     1       7.259   4.150  -0.022  0.00  0.00    +0.026 A 
ATOM      4  C   UNL     1       7.174   5.523  -0.238  0.00  0.00    +0.055 A 
ATOM      5  C   UNL     1       5.955   6.104  -0.575  0.00  0.00    +0.147 A 
ATOM      6  C   UNL     1       4.831   5.319  -0.700  0.00  0.00    +0.049 A 
ENDROOT
BRANCH   5   7
ATOM      7  N   UNL     1       5.868   7.564  -0.803  0.00  0.00    +0.058 N 
ATOM      8  O   UNL     1       4.891   8.175  -0.438  0.00  0.00    -0.126 OA
ATOM      9  O   UNL     1       6.774   8.144  -1.354  0.00  0.00    -0.126 OA
ENDBRANCH   5   7
BRANCH   4  10
ATOM     10  N   UNL     1       8.310   6.315  -0.116  0.00  0.00    -0.356 N 
ATOM     11  H   UNL     1       9.182   5.901  -0.022  0.00  0.00    +0.142 HD
ATOM     12  H   UNL     1       8.230   7.282  -0.124  0.00  0.00    +0.142 HD
ENDBRANCH   4  10
BRANCH   1  13
ATOM     13  C   UNL     1       3.717   3.095  -0.605  0.00  0.00    +0.345 C 
ATOM     14  O   UNL     1       2.650   3.596  -0.904  0.00  0.00    -0.245 OA
BRANCH  13  15
ATOM     15  O   UNL     1       3.802   1.768  -0.391  0.00  0.00    -0.420 OA
BRANCH  15  18
ATOM     16  C   UNL     1       0.734  -0.113   0.131  0.00  0.00    +0.023 A 
ATOM     17  C   UNL     1       1.849   0.659   0.419  0.00  0.00    +0.050 A 
ATOM     18  C   UNL     1       2.697   1.012  -0.625  0.00  0.00    +0.164 A 
ATOM     19  C   UNL     1       2.398   0.580  -1.911  0.00  0.00    +0.148 A 
ATOM     20  N   UNL     1       1.327  -0.153  -2.142  0.00  0.00    -0.245 NA
ATOM     21  C   UNL     1       0.503  -0.504  -1.174  0.00  0.00    +0.112 A 
ATOM     22 BR   UNL     1       3.539   1.050  -3.344  0.00  0.00    -0.025 Br
ENDBRANCH  15  18
ENDBRANCH  13  15
ENDBRANCH   1  13
TORSDOF 5
