REMARK  Name = ZINC63350972
REMARK  5 active torsions:
REMARK  status: ('A' for Active; 'I' for Inactive)
REMARK    1  A    between atoms: C_1  and  C_2
REMARK    2  A    between atoms: C_2  and  C_3
REMARK    3  A    between atoms: C_2  and  C_4
REMARK    4  A    between atoms: C_7  and  C_10
REMARK    5  A    between atoms: N_28  and  C_31
REMARK                            x       y       z     vdW  Elec       q    Type
REMARK                         _______ _______ _______ _____ _____    ______ ____
ROOT
ATOM      1  C   UNL     1       2.703  -1.866  -4.719  0.00  0.00    +0.135 C 
ATOM      2  C   UNL     1       2.324  -3.325  -5.008  0.00  0.00    +0.131 C 
ATOM      3  C   UNL     1       3.343  -3.865  -6.004  0.00  0.00    -0.034 C 
ATOM      4  C   UNL     1       2.650  -4.287  -7.057  0.00  0.00    -0.001 A 
ATOM      5  C   UNL     1       3.070  -4.953  -8.300  0.00  0.00    +0.010 A 
ATOM      6  C   UNL     1       2.083  -5.240  -9.189  0.00  0.00    +0.001 A 
ATOM      7  C   UNL     1       0.736  -4.935  -8.967  0.00  0.00    +0.002 A 
ATOM      8  C   UNL     1       0.260  -4.329  -7.851  0.00  0.00    +0.026 A 
ATOM      9  C   UNL     1       1.204  -3.981  -6.840  0.00  0.00    +0.043 A 
ATOM     10  N   UNL     1       1.022  -3.413  -5.674  0.00  0.00    -0.375 N 
ATOM     11  C   UNL     1       4.834  -3.815  -5.768  0.00  0.00    +0.065 C 
ATOM     12  C   UNL     1       5.047  -2.999  -4.482  0.00  0.00    +0.169 C 
ATOM     13  N   UNL     1       4.159  -1.818  -4.537  0.00  0.00    -0.264 N 
ATOM     14  C   UNL     1       4.941  -0.738  -4.413  0.00  0.00    +0.317 C 
ATOM     15  O   UNL     1       4.518   0.397  -4.307  0.00  0.00    -0.252 OA
ATOM     16  N   UNL     1       6.244  -1.052  -4.420  0.00  0.00    -0.192 N 
ATOM     17  C   UNL     1       6.441  -2.411  -4.471  0.00  0.00    +0.248 C 
ATOM     18  O   UNL     1       7.491  -3.016  -4.508  0.00  0.00    -0.273 OA
ATOM     19  H   UNL     1       0.178  -3.101  -5.311  0.00  0.00    +0.160 HD
ENDROOT
BRANCH  16  20
ATOM     20  C   UNL     1       7.283  -0.110  -4.367  0.00  0.00    +0.049 A 
ATOM     21  C   UNL     1       8.600  -0.534  -4.257  0.00  0.00    +0.028 A 
ATOM     22  C   UNL     1       9.623   0.393  -4.204  0.00  0.00    +0.051 A 
ATOM     23  C   UNL     1       9.338   1.749  -4.261  0.00  0.00    +0.162 A 
ATOM     24  C   UNL     1       8.020   2.176  -4.374  0.00  0.00    +0.164 A 
ATOM     25  C   UNL     1       6.994   1.245  -4.431  0.00  0.00    +0.073 A 
ATOM     26  O   UNL     1       7.721   3.503  -4.440  0.00  0.00    -0.485 OA
ATOM     27  C   UNL     1       8.739   4.414  -4.011  0.00  0.00    +0.270 C 
ATOM     28  C   UNL     1      10.069   3.980  -4.641  0.00  0.00    +0.270 C 
ATOM     29  O   UNL     1      10.359   2.648  -4.204  0.00  0.00    -0.485 OA
ENDBRANCH  16  20
BRANCH   1  33
ATOM     30  C   UNL     1       0.748  -0.539  -1.160  0.00  0.00    -0.045 A 
ATOM     31  C   UNL     1       0.247  -0.183  -2.398  0.00  0.00    +0.004 A 
ATOM     32  C   UNL     1       0.879  -0.613  -3.549  0.00  0.00    +0.006 A 
ATOM     33  C   UNL     1       2.014  -1.397  -3.463  0.00  0.00    -0.025 A 
ATOM     34  C   UNL     1       2.516  -1.753  -2.225  0.00  0.00    +0.006 A 
ATOM     35  C   UNL     1       1.886  -1.320  -1.073  0.00  0.00    +0.004 A 
BRANCH  30  37
ATOM     36  C   UNL     1       0.037   1.458   0.126  0.00  0.00    +0.012 C 
ATOM     37  C   UNL     1       0.059  -0.071   0.096  0.00  0.00    +0.013 C 
ATOM     38  C   UNL     1      -1.376  -0.602   0.117  0.00  0.00    +0.012 C 
ENDBRANCH  30  37
ENDBRANCH   1  33
TORSDOF 3
