REMARK  Name = ZINC23685549
REMARK  8 active torsions:
REMARK  status: ('A' for Active; 'I' for Inactive)
REMARK    1  A    between atoms: C_1  and  C_2
REMARK    2  A    between atoms: C_4  and  C_8
REMARK    3  A    between atoms: C_5  and  C_7
REMARK    4  A    between atoms: N_10  and  N_11
REMARK    5  A    between atoms: C_12  and  C_14
REMARK    6  A    between atoms: C_15  and  C_25
REMARK    7  A    between atoms: C_16  and  C_24
REMARK    8  A    between atoms: C_18  and  N_19
REMARK                            x       y       z     vdW  Elec       q    Type
REMARK                         _______ _______ _______ _____ _____    ______ ____
ROOT
ATOM      1  N   UNL     1      -3.464  -4.539  -0.007  0.00  0.00    -0.230 N 
ATOM      2  C   UNL     1      -4.811  -4.480   0.000  0.00  0.00    +0.263 C 
ATOM      3  O   UNL     1      -5.372  -3.400   0.009  0.00  0.00    -0.269 OA
ATOM      4  H   UNL     1      -3.017  -5.400  -0.014  0.00  0.00    +0.173 HD
ENDROOT
BRANCH   2   5
ATOM      5  C   UNL     1      -5.600  -5.716  -0.003  0.00  0.00    +0.072 A 
ATOM      6  C   UNL     1      -6.007  -6.360   1.225  0.00  0.00    -0.026 A 
ATOM      7  C   UNL     1      -6.728  -7.488   1.084  0.00  0.00    -0.008 A 
ATOM      8  S   UNL     1      -6.854  -7.676  -0.681  0.00  0.00    -0.075 S 
ATOM      9  C   UNL     1      -5.998  -6.324  -1.184  0.00  0.00    +0.097 A 
ATOM     10  C   UNL     1      -7.292  -8.378   2.162  0.00  0.00    +0.052 C 
ATOM     11  C   UNL     1      -5.647  -5.804   2.578  0.00  0.00    +0.045 C 
BRANCH   9  12
ATOM     12  N   UNL     1      -5.745  -5.908  -2.486  0.00  0.00    -0.317 N 
ATOM     13  C   UNL     1      -5.032  -4.798  -2.845  0.00  0.00    +0.092 A 
ATOM     14  C   UNL     1      -5.005  -4.732  -4.191  0.00  0.00    +0.019 A 
ATOM     15  C   UNL     1      -5.725  -5.839  -4.684  0.00  0.00    +0.019 A 
ATOM     16  C   UNL     1      -6.161  -6.545  -3.622  0.00  0.00    +0.092 A 
ENDBRANCH   9  12
ENDBRANCH   2   5
BRANCH   1  19
ATOM     17  C   UNL     1      -1.364  -3.418  -0.011  0.00  0.00    +0.263 C 
ATOM     18  O   UNL     1      -0.804  -4.497  -0.020  0.00  0.00    -0.269 OA
ATOM     19  N   UNL     1      -2.711  -3.358  -0.004  0.00  0.00    -0.230 N 
ATOM     20  H   UNL     1      -3.158  -2.498   0.003  0.00  0.00    +0.173 HD
BRANCH  17  24
ATOM     21  C   UNL     1      -0.018   1.503   0.010  0.00  0.00    +0.086 C 
ATOM     22  C   UNL     1       0.002  -0.004   0.002  0.00  0.00    +0.103 A 
ATOM     23  C   UNL     1      -1.081  -0.797   0.003  0.00  0.00    +0.057 A 
ATOM     24  C   UNL     1      -0.571  -2.176  -0.008  0.00  0.00    +0.079 A 
ATOM     25  C   UNL     1       0.788  -2.066  -0.014  0.00  0.00    +0.114 A 
ATOM     26  O   UNL     1       1.106  -0.767  -0.013  0.00  0.00    -0.464 OA
ATOM     27  C   UNL     1       1.766  -3.212  -0.025  0.00  0.00    +0.087 C 
ENDBRANCH  17  24
ENDBRANCH   1  19
TORSDOF 4
