REMARK  Name = ZINC20644020
REMARK  9 active torsions:
REMARK  status: ('A' for Active; 'I' for Inactive)
REMARK    1  A    between atoms: C_1  and  C_2
REMARK    2  A    between atoms: C_2  and  O_3
REMARK    3  A    between atoms: O_3  and  C_4
REMARK    4  A    between atoms: C_4  and  C_5
REMARK    5  A    between atoms: C_5  and  C_6
REMARK    6  A    between atoms: C_6  and  N_7
REMARK    7  A    between atoms: C_13  and  C_19
REMARK    8  A    between atoms: C_24  and  C_27
REMARK    9  A    between atoms: C_24  and  N_30
REMARK                            x       y       z     vdW  Elec       q    Type
REMARK                         _______ _______ _______ _____ _____    ______ ____
ROOT
ATOM      1  C   UNL     1       6.280  -5.660   8.531  0.00  0.00    +0.247 C 
ATOM      2  O   UNL     1       5.733  -5.566   7.450  0.00  0.00    -0.270 OA
ATOM      3  N   UNL     1       7.622  -5.771   8.600  0.00  0.00    -0.298 N 
ATOM      4  C   UNL     1       8.445  -5.655   7.389  0.00  0.00    +0.107 C 
ATOM      5  C   UNL     1       9.345  -6.891   7.285  0.00  0.00    +0.016 C 
ATOM      6  C   UNL     1      10.148  -7.042   8.580  0.00  0.00    +0.015 C 
ATOM      7  C   UNL     1       9.190  -7.240   9.756  0.00  0.00    +0.016 C 
ATOM      8  C   UNL     1       8.288  -6.003   9.889  0.00  0.00    +0.107 C 
ENDROOT
BRANCH   1  15
ATOM      9  N   UNL     1       3.716  -5.067  14.413  0.00  0.00    -0.287 N 
ATOM     10  C   UNL     1       3.151  -5.640  13.325  0.00  0.00    +0.262 A 
ATOM     11  O   UNL     1       2.034  -6.122  13.374  0.00  0.00    -0.267 OA
ATOM     12  C   UNL     1       3.934  -5.658  12.080  0.00  0.00    +0.065 A 
ATOM     13  C   UNL     1       3.435  -6.226  10.908  0.00  0.00    +0.016 A 
ATOM     14  C   UNL     1       4.193  -6.222   9.773  0.00  0.00    +0.014 A 
ATOM     15  C   UNL     1       5.473  -5.653   9.773  0.00  0.00    +0.039 A 
ATOM     16  C   UNL     1       5.991  -5.082  10.928  0.00  0.00    +0.041 A 
ATOM     17  C   UNL     1       5.224  -5.079  12.096  0.00  0.00    +0.080 A 
ATOM     18  N   UNL     1       5.688  -4.534  13.245  0.00  0.00    -0.222 NA
ATOM     19  C   UNL     1       4.968  -4.525  14.340  0.00  0.00    +0.183 A 
ATOM     20  S   UNL     1       5.649  -3.787  15.787  0.00  0.00    -0.011 SA
BRANCH   9  21
ATOM     21  C   UNL     1       2.978  -5.023  15.677  0.00  0.00    +0.129 C 
BRANCH  21  22
ATOM     22  C   UNL     1       2.149  -3.739  15.739  0.00  0.00    +0.050 C 
BRANCH  22  23
ATOM     23  C   UNL     1       1.378  -3.693  17.060  0.00  0.00    +0.161 C 
BRANCH  23  24
ATOM     24  O   UNL     1       0.604  -2.493  17.118  0.00  0.00    -0.380 OA
BRANCH  24  26
ATOM     25  C   UNL     1      -0.944  -1.038  18.271  0.00  0.00    +0.034 C 
ATOM     26  C   UNL     1      -0.159  -2.351  18.318  0.00  0.00    +0.156 C 
ENDBRANCH  24  26
ENDBRANCH  23  24
ENDBRANCH  22  23
ENDBRANCH  21  22
ENDBRANCH   9  21
ENDBRANCH   1  15
BRANCH   6  27
ATOM     27  N   UNL     1      11.037  -8.207   8.471  0.00  0.00    +0.389 N 
ATOM     28  C   UNL     1      11.992  -7.991   7.377  0.00  0.00    -0.077 C 
ATOM     29  C   UNL     1      12.867  -9.235   7.207  0.00  0.00    -0.019 C 
ATOM     30  C   UNL     1      13.630  -9.498   8.508  0.00  0.00    -0.004 C 
ATOM     31  C   UNL     1      12.627  -9.647   9.655  0.00  0.00    -0.019 C 
ATOM     32  C   UNL     1      11.761  -8.388   9.735  0.00  0.00    -0.077 C 
ATOM     33  H   UNL     1      10.488  -9.031   8.278  0.00  0.00    -0.080 HD
ENDBRANCH   6  27
BRANCH   6  34
ATOM     34  C   UNL     1      10.973  -5.801   8.807  0.00  0.00    +0.200 C 
ATOM     35  O   UNL     1      11.179  -5.034   7.891  0.00  0.00    -0.278 OA
ATOM     36  N   UNL     1      11.481  -5.545  10.029  0.00  0.00    -0.330 N 
ATOM     37  H   UNL     1      11.374  -6.191  10.744  0.00  0.00    +0.145 HD
ATOM     38  H   UNL     1      11.954  -4.714  10.192  0.00  0.00    +0.145 HD
ENDBRANCH   6  34
TORSDOF 8
