REMARK  Name = ZINC64254834
REMARK  7 active torsions:
REMARK  status: ('A' for Active; 'I' for Inactive)
REMARK    1  A    between atoms: C_4  and  C_7
REMARK    2  A    between atoms: C_7  and  N_8
REMARK    3  A    between atoms: N_8  and  C_9
REMARK    4  A    between atoms: C_9  and  C_10
REMARK    5  A    between atoms: N_17  and  C_18
REMARK    6  A    between atoms: N_21  and  C_24
REMARK    7  A    between atoms: C_24  and  C_25
REMARK                            x       y       z     vdW  Elec       q    Type
REMARK                         _______ _______ _______ _____ _____    ______ ____
ROOT
ATOM      1  N   UNL     1       4.190  -1.130   1.410  0.00  0.00    -0.279 N 
ATOM      2  C   UNL     1       4.969  -0.206   2.008  0.00  0.00    +0.303 C 
ATOM      3  O   UNL     1       5.332   0.775   1.389  0.00  0.00    -0.253 OA
ATOM      4  N   UNL     1       5.345  -0.371   3.291  0.00  0.00    -0.297 N 
ATOM      5  H   UNL     1       5.056  -1.155   3.785  0.00  0.00    +0.151 HD
ENDROOT
BRANCH   4   6
ATOM      6  C   UNL     1       6.191   0.632   3.941  0.00  0.00    +0.071 C 
ATOM      7  C   UNL     1       7.663   0.337   3.635  0.00  0.00    +0.004 C 
ATOM      8  C   UNL     1       8.544   1.341   4.381  0.00  0.00    -0.077 C 
ATOM      9  N   UNL     1       8.310   1.225   5.825  0.00  0.00    +0.383 N 
ATOM     10  C   UNL     1       6.919   1.576   6.135  0.00  0.00    -0.077 C 
ATOM     11  C   UNL     1       5.975   0.582   5.456  0.00  0.00    +0.004 C 
ATOM     12  H   UNL     1       8.490   0.276   6.119  0.00  0.00    -0.082 HD
BRANCH   9  13
ATOM     13  C   UNL     1       9.215   2.135   6.541  0.00  0.00    -0.006 C 
BRANCH  13  14
ATOM     14  C   UNL     1      10.658   1.654   6.376  0.00  0.00    +0.325 C 
ATOM     15  F   UNL     1      10.750   0.313   6.764  0.00  0.00    -0.211 F 
ATOM     16  F   UNL     1      11.041   1.780   5.037  0.00  0.00    -0.211 F 
ENDBRANCH  13  14
ENDBRANCH   9  13
ENDBRANCH   4   6
BRANCH   1  17
ATOM     17  C   UNL     1       3.781  -0.951   0.015  0.00  0.00    +0.144 C 
BRANCH  17  21
ATOM     18  C   UNL     1       0.096   1.206  -0.125  0.00  0.00    +0.000 A 
ATOM     19  C   UNL     1       1.298   1.889  -0.147  0.00  0.00    +0.000 A 
ATOM     20  C   UNL     1       2.490   1.191  -0.101  0.00  0.00    +0.005 A 
ATOM     21  C   UNL     1       2.481  -0.190  -0.034  0.00  0.00    -0.030 A 
ATOM     22  C   UNL     1       1.279  -0.873  -0.012  0.00  0.00    +0.005 A 
ATOM     23  C   UNL     1       0.087  -0.175  -0.059  0.00  0.00    +0.000 A 
ENDBRANCH  17  21
ENDBRANCH   1  17
BRANCH   1  24
ATOM     24  C   UNL     1       3.753  -2.313   2.155  0.00  0.00    +0.141 C 
BRANCH  24  25
ATOM     25  C   UNL     1       4.778  -3.435   1.978  0.00  0.00    +0.136 C 
ATOM     26  C   UNL     1       4.270  -4.721   2.665  0.00  0.00    +0.035 C 
ATOM     27  C   UNL     1       5.570  -5.295   3.292  0.00  0.00    +0.031 C 
ATOM     28  C   UNL     1       6.318  -3.990   3.663  0.00  0.00    +0.160 C 
ATOM     29  O   UNL     1       6.012  -3.068   2.605  0.00  0.00    -0.375 OA
ENDBRANCH  24  25
ENDBRANCH   1  24
TORSDOF 7
