REMARK  Name = ZINC43741419
REMARK  11 active torsions:
REMARK  status: ('A' for Active; 'I' for Inactive)
REMARK    1  A    between atoms: C_1  and  C_2
REMARK    2  A    between atoms: N_6  and  O_7
REMARK    3  A    between atoms: O_7  and  C_8
REMARK    4  A    between atoms: C_8  and  C_9
REMARK    5  A    between atoms: C_13  and  O_22
REMARK    6  A    between atoms: C_16  and  C_18
REMARK    7  A    between atoms: C_18  and  O_20
REMARK    8  A    between atoms: O_20  and  C_21
REMARK    9  A    between atoms: C_33  and  C_42
REMARK   10  A    between atoms: C_38  and  C_39
REMARK   11  A    between atoms: C_38  and  O_41
REMARK                            x       y       z     vdW  Elec       q    Type
REMARK                         _______ _______ _______ _____ _____    ______ ____
ROOT
ATOM      1  C   UNL     1      -0.119   1.636  -0.132  0.00  0.00    +0.016 C 
ATOM      2  C   UNL     1      -0.053   0.107  -0.124  0.00  0.00    -0.007 C 
ATOM      3  C   UNL     1       0.601  -0.404  -1.402  0.00  0.00    +0.017 C 
ATOM      4  C   UNL     1       2.057   0.067  -1.476  0.00  0.00    +0.059 C 
ATOM      5  C   UNL     1       2.781  -0.342  -0.218  0.00  0.00    +0.080 C 
ATOM      6  N   UNL     1       4.067  -0.500  -0.234  0.00  0.00    -0.089 NA
ATOM      7  C   UNL     1       2.032  -0.557   1.025  0.00  0.00    +0.026 C 
ATOM      8  C   UNL     1       0.725  -0.360   1.083  0.00  0.00    -0.062 C 
ATOM      9  C   UNL     1      -0.030  -0.609   2.368  0.00  0.00    +0.031 C 
ATOM     10  C   UNL     1      -1.053  -1.723   2.139  0.00  0.00    +0.008 C 
ATOM     11  C   UNL     1      -1.404  -1.829   0.661  0.00  0.00    -0.003 C 
ATOM     12  C   UNL     1      -1.480  -0.456   0.006  0.00  0.00    +0.002 C 
ATOM     13  C   UNL     1      -2.158  -0.493  -1.352  0.00  0.00    +0.005 C 
ATOM     14  C   UNL     1      -3.560  -1.108  -1.326  0.00  0.00    +0.011 C 
ATOM     15  C   UNL     1      -3.846  -1.780  -0.008  0.00  0.00    +0.011 C 
ATOM     16  C   UNL     1      -2.638  -2.643   0.411  0.00  0.00    +0.002 C 
ATOM     17  C   UNL     1      -3.204  -3.436   1.598  0.00  0.00    +0.008 C 
ATOM     18  C   UNL     1      -4.647  -3.779   1.136  0.00  0.00    +0.049 C 
ATOM     19  C   UNL     1      -4.956  -2.852  -0.064  0.00  0.00    +0.132 C 
ATOM     20  C   UNL     1      -4.253  -0.768   1.062  0.00  0.00    +0.015 C 
ENDROOT
BRANCH  19  21
ATOM     21  C   UNL     1      -6.271  -2.218   0.096  0.00  0.00    -0.070 C 
ATOM     22  C   UNL     1      -7.322  -1.712   0.224  0.00  0.00    +0.007 C 
ENDBRANCH  19  21
BRANCH  19  23
ATOM     23  O   UNL     1      -4.883  -3.576  -1.288  0.00  0.00    -0.376 OA
ATOM     24  H   UNL     1      -5.557  -4.263  -1.379  0.00  0.00    +0.211 HD
ENDBRANCH  19  23
BRANCH   6  25
ATOM     25  O   UNL     1       4.748  -0.884   0.946  0.00  0.00    -0.384 OA
BRANCH  25  26
ATOM     26  C   UNL     1       6.161  -1.021   0.784  0.00  0.00    +0.358 C 
BRANCH  26  27
ATOM     27  C   UNL     1       6.780  -1.430   2.096  0.00  0.00    +0.257 C 
ATOM     28  O   UNL     1       6.080  -1.589   3.073  0.00  0.00    -0.272 OA
ATOM     29  N   UNL     1       8.112  -1.620   2.182  0.00  0.00    -0.283 N 
ATOM     30  C   UNL     1       9.076  -1.456   1.079  0.00  0.00    +0.140 C 
ATOM     31  C   UNL     1      10.282  -2.345   1.473  0.00  0.00    +0.134 C 
ATOM     32  C   UNL     1      10.333  -2.139   3.010  0.00  0.00    +0.066 C 
ATOM     33  C   UNL     1       8.843  -2.018   3.394  0.00  0.00    +0.187 C 
BRANCH  33  34
ATOM     34  C   UNL     1       8.671  -0.971   4.464  0.00  0.00    +0.328 C 
ATOM     35  O   UNL     1       8.306   0.142   4.167  0.00  0.00    -0.249 OA
BRANCH  34  36
ATOM     36  O   UNL     1       8.922  -1.275   5.747  0.00  0.00    -0.467 OA
ATOM     37  C   UNL     1       8.738  -0.234   6.708  0.00  0.00    +0.280 C 
ENDBRANCH  34  36
ENDBRANCH  33  34
BRANCH  31  38
ATOM     38  O   UNL     1      10.037  -3.715   1.146  0.00  0.00    -0.390 OA
ATOM     39  H   UNL     1       9.901  -3.876   0.203  0.00  0.00    +0.210 HD
ENDBRANCH  31  38
ENDBRANCH  26  27
ENDBRANCH  25  26
ENDBRANCH   6  25
TORSDOF 8
