REMARK  Name = ZINC12497556
REMARK  9 active torsions:
REMARK  status: ('A' for Active; 'I' for Inactive)
REMARK    1  A    between atoms: C_1  and  C_2
REMARK    2  A    between atoms: C_2  and  O_3
REMARK    3  A    between atoms: O_3  and  C_4
REMARK    4  A    between atoms: C_4  and  C_6
REMARK    5  A    between atoms: C_6  and  C_30
REMARK    6  A    between atoms: C_11  and  C_13
REMARK    7  A    between atoms: N_20  and  C_23
REMARK    8  A    between atoms: C_30  and  C_31
REMARK    9  A    between atoms: C_34  and  O_37
REMARK                            x       y       z     vdW  Elec       q    Type
REMARK                         _______ _______ _______ _____ _____    ______ ____
ROOT
ATOM      1  C   UNL     1      -1.244   1.383  -0.737  0.00  0.00    +0.048 C 
ATOM      2  C   UNL     1      -0.013   1.086   0.008  0.00  0.00    +0.086 C 
ATOM      3  C   UNL     1      -0.412   1.451   1.493  0.00  0.00    +0.080 C 
ATOM      4  C   UNL     1      -1.722   0.652   1.513  0.00  0.00    +0.010 C 
ATOM      5  C   UNL     1       0.814   0.855   2.131  0.00  0.00    +0.229 C 
ATOM      6  O   UNL     1       0.881   0.292   3.203  0.00  0.00    -0.275 OA
ATOM      7  N   UNL     1       1.837   1.077   1.253  0.00  0.00    -0.207 N 
ATOM      8  C   UNL     1       1.395   1.408  -0.004  0.00  0.00    +0.229 C 
ATOM      9  O   UNL     1       2.043   1.868  -0.920  0.00  0.00    -0.275 OA
ATOM     10  N   UNL     1      -2.335   1.012   0.203  0.00  0.00    +0.398 N 
ATOM     11  H   UNL     1      -2.856   0.210  -0.169  0.00  0.00    -0.083 HD
ATOM     12  H   UNL     1      -2.973   1.807   0.325  0.00  0.00    -0.083 HD
ENDROOT
BRANCH   7  13
ATOM     13  C   UNL     1       3.193   0.980   1.600  0.00  0.00    +0.079 A 
ATOM     14  C   UNL     1       3.871   2.093   2.075  0.00  0.00    +0.027 A 
ATOM     15  C   UNL     1       5.206   1.994   2.415  0.00  0.00    +0.002 A 
ATOM     16  C   UNL     1       5.868   0.787   2.284  0.00  0.00    +0.003 A 
ATOM     17  C   UNL     1       5.197  -0.325   1.811  0.00  0.00    +0.040 A 
ATOM     18  C   UNL     1       3.858  -0.234   1.473  0.00  0.00    +0.145 A 
ATOM     19  F   UNL     1       3.200  -1.322   1.016  0.00  0.00    -0.204 F 
ENDBRANCH   7  13
BRANCH   4  20
ATOM     20  C   UNL     1      -2.596   1.088   2.660  0.00  0.00    +0.092 A 
ATOM     21  C   UNL     1      -2.724   0.451   3.838  0.00  0.00    +0.043 A 
ATOM     22  C   UNL     1      -3.639   1.202   4.612  0.00  0.00    +0.041 A 
ATOM     23  C   UNL     1      -4.015   2.252   3.861  0.00  0.00    +0.195 A 
ATOM     24  O   UNL     1      -3.376   2.182   2.682  0.00  0.00    -0.469 OA
ENDBRANCH   4  20
BRANCH   1  25
ATOM     25  C   UNL     1      -1.330   0.529  -1.975  0.00  0.00    +0.297 C 
ATOM     26  O   UNL     1      -0.322   0.093  -2.480  0.00  0.00    -0.252 OA
BRANCH  25  27
ATOM     27  O   UNL     1      -2.526   0.253  -2.519  0.00  0.00    -0.466 OA
BRANCH  27  29
ATOM     28  C   UNL     1      -3.974  -0.780  -4.182  0.00  0.00    +0.048 C 
ATOM     29  C   UNL     1      -2.533  -0.575  -3.711  0.00  0.00    +0.228 C 
ENDBRANCH  27  29
ENDBRANCH  25  27
ENDBRANCH   1  25
BRANCH   1  30
ATOM     30  C   UNL     1      -1.303   2.867  -1.103  0.00  0.00    +0.034 C 
BRANCH  30  31
ATOM     31  C   UNL     1      -2.627   3.172  -1.756  0.00  0.00    -0.048 A 
ATOM     32  C   UNL     1      -2.759   3.070  -3.128  0.00  0.00    +0.007 A 
ATOM     33  C   UNL     1      -3.973   3.344  -3.729  0.00  0.00    +0.045 A 
ATOM     34  C   UNL     1      -5.056   3.731  -2.954  0.00  0.00    +0.117 A 
ATOM     35  C   UNL     1      -4.920   3.837  -1.578  0.00  0.00    +0.045 A 
ATOM     36  C   UNL     1      -3.705   3.558  -0.982  0.00  0.00    +0.007 A 
BRANCH  34  37
ATOM     37  O   UNL     1      -6.250   4.005  -3.543  0.00  0.00    -0.507 OA
ATOM     38  H   UNL     1      -6.358   4.930  -3.802  0.00  0.00    +0.292 HD
ENDBRANCH  34  37
ENDBRANCH  30  31
ENDBRANCH   1  30
TORSDOF 8
