REMARK  Name = ZINC14333127
REMARK  8 active torsions:
REMARK  status: ('A' for Active; 'I' for Inactive)
REMARK    1  A    between atoms: C_1  and  C_2
REMARK    2  A    between atoms: C_2  and  C_3
REMARK    3  A    between atoms: C_2  and  C_4
REMARK    4  A    between atoms: C_4  and  C_6
REMARK    5  A    between atoms: C_4  and  N_22
REMARK    6  A    between atoms: N_8  and  N_9
REMARK    7  A    between atoms: C_10  and  C_12
REMARK    8  A    between atoms: C_23  and  C_25
REMARK                            x       y       z     vdW  Elec       q    Type
REMARK                         _______ _______ _______ _____ _____    ______ ____
ROOT
ATOM      1  C   UNL     1      -7.342   1.207   2.311  0.00  0.00    +0.250 C 
ATOM      2  O   UNL     1      -6.976   1.493   3.432  0.00  0.00    -0.272 OA
ATOM      3  N   UNL     1      -6.481   1.296   1.278  0.00  0.00    -0.233 N 
ATOM      4  H   UNL     1      -6.750   0.999   0.395  0.00  0.00    +0.173 HD
ENDROOT
BRANCH   3   5
ATOM      5  N   UNL     1      -5.196   1.817   1.480  0.00  0.00    -0.234 N 
ATOM      6  C   UNL     1      -4.335   1.906   0.447  0.00  0.00    +0.235 C 
ATOM      7  O   UNL     1      -4.672   1.534  -0.657  0.00  0.00    -0.274 OA
ATOM      8  H   UNL     1      -4.926   2.114   2.363  0.00  0.00    +0.173 HD
BRANCH   6   9
ATOM      9  C   UNL     1      -2.953   2.467   0.664  0.00  0.00    +0.049 C 
ATOM     10  C   UNL     1      -2.184   2.456  -0.659  0.00  0.00    +0.019 C 
ATOM     11  C   UNL     1      -0.781   3.025  -0.439  0.00  0.00    -0.009 C 
ATOM     12  C   UNL     1      -0.039   2.169   0.589  0.00  0.00    +0.007 C 
ATOM     13  C   UNL     1      -0.807   2.179   1.912  0.00  0.00    -0.009 C 
ATOM     14  C   UNL     1      -2.210   1.610   1.692  0.00  0.00    +0.019 C 
ATOM     15  C   UNL     1      -0.915   3.616   2.428  0.00  0.00    +0.007 C 
ATOM     16  C   UNL     1      -1.657   4.472   1.400  0.00  0.00    -0.009 C 
ATOM     17  C   UNL     1      -0.889   4.462   0.077  0.00  0.00    +0.007 C 
ATOM     18  C   UNL     1      -3.060   3.903   1.180  0.00  0.00    +0.019 C 
ENDBRANCH   6   9
ENDBRANCH   3   5
BRANCH   1  19
ATOM     19  C   UNL     1      -8.759   0.754   2.073  0.00  0.00    +0.163 C 
BRANCH  19  20
ATOM     20  N   UNL     1      -9.634   1.327   3.099  0.00  0.00    -0.303 N 
ATOM     21  C   UNL     1     -10.946   1.501   2.846  0.00  0.00    +0.217 C 
ATOM     22  O   UNL     1     -11.403   1.182   1.768  0.00  0.00    -0.275 OA
ATOM     23  H   UNL     1      -9.268   1.582   3.961  0.00  0.00    +0.149 HD
BRANCH  21  24
ATOM     24  C   UNL     1     -11.846   2.091   3.901  0.00  0.00    +0.075 C 
ATOM     25  C   UNL     1     -11.824   1.200   5.145  0.00  0.00    +0.013 C 
ATOM     26  C   UNL     1     -12.738   1.799   6.217  0.00  0.00    +0.001 C 
ATOM     27  C   UNL     1     -14.167   1.887   5.677  0.00  0.00    +0.000 C 
ATOM     28  C   UNL     1     -14.188   2.777   4.433  0.00  0.00    +0.001 C 
ATOM     29  C   UNL     1     -13.275   2.179   3.362  0.00  0.00    +0.013 C 
ENDBRANCH  21  24
ENDBRANCH  19  20
BRANCH  19  31
ATOM     30  C   UNL     1      -8.014  -1.371   0.991  0.00  0.00    +0.009 C 
ATOM     31  C   UNL     1      -8.824  -0.773   2.143  0.00  0.00    +0.012 C 
ATOM     32  C   UNL     1      -8.243  -1.248   3.476  0.00  0.00    +0.009 C 
ENDBRANCH  19  31
ENDBRANCH   1  19
TORSDOF 6
