REMARK  Name = ZINC01230468
REMARK  5 active torsions:
REMARK  status: ('A' for Active; 'I' for Inactive)
REMARK    1  A    between atoms: C_4  and  C_7
REMARK    2  A    between atoms: C_9  and  C_17
REMARK    3  A    between atoms: N_19  and  N_20
REMARK    4  A    between atoms: C_21  and  C_22
REMARK    5  A    between atoms: C_25  and  O_28
REMARK                            x       y       z     vdW  Elec       q    Type
REMARK                         _______ _______ _______ _____ _____    ______ ____
ROOT
ATOM      1  C   UNL     1       3.698  -0.688  -0.052  0.00  0.00    +0.072 A 
ATOM      2  C   UNL     1       3.692  -2.091  -0.066  0.00  0.00    +0.042 A 
ATOM      3  C   UNL     1       4.898  -2.777  -0.068  0.00  0.00    +0.050 A 
ATOM      4  C   UNL     1       6.125  -1.980  -0.056  0.00  0.00    +0.013 A 
ATOM      5  C   UNL     1       7.388  -2.581  -0.057  0.00  0.00    +0.011 A 
ATOM      6  C   UNL     1       8.506  -1.800  -0.046  0.00  0.00    +0.001 A 
ATOM      7  C   UNL     1       8.406  -0.410  -0.032  0.00  0.00    +0.002 A 
ATOM      8  C   UNL     1       7.193   0.207  -0.030  0.00  0.00    +0.028 A 
ATOM      9  C   UNL     1       6.017  -0.566  -0.042  0.00  0.00    +0.072 A 
ATOM     10  N   UNL     1       4.814   0.011  -0.046  0.00  0.00    -0.247 NA
ENDROOT
BRANCH   1  14
ATOM     11  C   UNL     1      -0.017   1.380  -0.049  0.00  0.00    +0.000 A 
ATOM     12  C   UNL     1       1.169   2.093  -0.042  0.00  0.00    +0.001 A 
ATOM     13  C   UNL     1       2.377   1.427  -0.043  0.00  0.00    +0.010 A 
ATOM     14  C   UNL     1       2.402   0.033  -0.050  0.00  0.00    +0.000 A 
ATOM     15  C   UNL     1       1.205  -0.680  -0.057  0.00  0.00    +0.010 A 
ATOM     16  C   UNL     1       0.002  -0.004  -0.057  0.00  0.00    +0.001 A 
ENDBRANCH   1  14
BRANCH   3  17
ATOM     17  C   UNL     1       4.942  -4.255  -0.082  0.00  0.00    +0.264 C 
ATOM     18  O   UNL     1       6.008  -4.830  -0.188  0.00  0.00    -0.268 OA
ATOM     19  N   UNL     1       3.801  -4.964   0.023  0.00  0.00    -0.203 N 
ATOM     20  H   UNL     1       2.951  -4.505   0.108  0.00  0.00    +0.178 HD
BRANCH  19  21
ATOM     21  N   UNL     1       3.842  -6.364   0.010  0.00  0.00    -0.187 NA
ATOM     22  C   UNL     1       2.743  -7.047   0.111  0.00  0.00    +0.138 C 
BRANCH  22  23
ATOM     23  C   UNL     1       2.786  -8.520   0.098  0.00  0.00    -0.005 A 
ATOM     24  C   UNL     1       4.011  -9.184  -0.019  0.00  0.00    +0.013 A 
ATOM     25  C   UNL     1       4.047 -10.562  -0.031  0.00  0.00    +0.046 A 
ATOM     26  C   UNL     1       2.869 -11.290   0.072  0.00  0.00    +0.117 A 
ATOM     27  C   UNL     1       1.649 -10.635   0.188  0.00  0.00    +0.046 A 
ATOM     28  C   UNL     1       1.604  -9.258   0.206  0.00  0.00    +0.013 A 
BRANCH  26  29
ATOM     29  O   UNL     1       2.909 -12.648   0.059  0.00  0.00    -0.507 OA
ATOM     30  H   UNL     1       3.001 -13.047   0.935  0.00  0.00    +0.292 HD
ENDBRANCH  26  29
ENDBRANCH  22  23
ENDBRANCH  19  21
ENDBRANCH   3  17
TORSDOF 5
