REMARK  Name = ZINC66906117
REMARK  5 active torsions:
REMARK  status: ('A' for Active; 'I' for Inactive)
REMARK    1  A    between atoms: C_10  and  C_11
REMARK    2  A    between atoms: C_10  and  O_25
REMARK    3  A    between atoms: C_11  and  N_12
REMARK    4  A    between atoms: N_12  and  C_13
REMARK    5  A    between atoms: C_13  and  C_14
REMARK                            x       y       z     vdW  Elec       q    Type
REMARK                         _______ _______ _______ _____ _____    ______ ____
ROOT
ATOM      1  N   UNL     1       4.837   1.448   0.477  0.00  0.00    +0.384 N 
ATOM      2  H   UNL     1       5.134   1.477  -0.487  0.00  0.00    -0.085 HD
ATOM      3  H   UNL     1       3.953   1.923   0.571  0.00  0.00    -0.085 HD
ENDROOT
BRANCH   1   4
ATOM      4  C   UNL     1       4.689   0.049   0.901  0.00  0.00    -0.042 C 
BRANCH   4  14
ATOM      5  C   UNL     1       3.256  -4.688   1.352  0.00  0.00    +0.000 A 
ATOM      6  C   UNL     1       3.473  -3.681   2.275  0.00  0.00    +0.000 A 
ATOM      7  C   UNL     1       3.568  -2.372   1.850  0.00  0.00    +0.006 A 
ATOM      8  C   UNL     1       3.449  -2.057   0.502  0.00  0.00    -0.015 A 
ATOM      9  C   UNL     1       3.238  -3.060  -0.416  0.00  0.00    -0.042 A 
ATOM     10  C   UNL     1       3.139  -4.377   0.013  0.00  0.00    +0.004 A 
ATOM     11  C   UNL     1       3.115  -2.793  -1.894  0.00  0.00    +0.035 C 
ATOM     12  C   UNL     1       2.815  -1.317  -2.150  0.00  0.00    +0.008 C 
ATOM     13  C   UNL     1       3.842  -0.474  -1.385  0.00  0.00    +0.038 C 
ATOM     14  C   UNL     1       3.555  -0.606   0.110  0.00  0.00    +0.076 C 
BRANCH  14  15
ATOM     15  O   UNL     1       2.326   0.055   0.414  0.00  0.00    -0.386 OA
ATOM     16  H   UNL     1       2.086   0.028   1.350  0.00  0.00    +0.211 HD
ENDBRANCH  14  15
ENDBRANCH   4  14
ENDBRANCH   1   4
BRANCH   1  17
ATOM     17  C   UNL     1       5.842   2.111   1.319  0.00  0.00    -0.043 C 
BRANCH  17  18
ATOM     18  C   UNL     1       5.994   3.545   0.883  0.00  0.00    -0.019 A 
ATOM     19  C   UNL     1       7.050   3.916   0.069  0.00  0.00    +0.005 A 
ATOM     20  C   UNL     1       7.190   5.232  -0.332  0.00  0.00    +0.004 A 
ATOM     21  C   UNL     1       6.277   6.186   0.080  0.00  0.00    +0.049 A 
ATOM     22  C   UNL     1       5.220   5.819   0.895  0.00  0.00    +0.162 A 
ATOM     23  C   UNL     1       5.076   4.497   1.292  0.00  0.00    +0.163 A 
ATOM     24  O   UNL     1       4.027   4.144   2.091  0.00  0.00    -0.488 OA
ATOM     25  C   UNL     1       4.057   4.657   3.424  0.00  0.00    +0.232 C 
ATOM     26  C   UNL     1       3.477   6.062   3.475  0.00  0.00    +0.082 C 
ATOM     27  C   UNL     1       4.314   7.062   2.692  0.00  0.00    +0.232 C 
ATOM     28  O   UNL     1       4.312   6.750   1.308  0.00  0.00    -0.488 OA
ENDBRANCH  17  18
ENDBRANCH   1  17
TORSDOF 5
