REMARK  Name = ZINC15861730
REMARK  6 active torsions:
REMARK  status: ('A' for Active; 'I' for Inactive)
REMARK    1  A    between atoms: C_1  and  C_2
REMARK    2  A    between atoms: C_2  and  C_34
REMARK    3  A    between atoms: C_3  and  N_28
REMARK    4  A    between atoms: N_6  and  C_7
REMARK    5  A    between atoms: N_17  and  C_20
REMARK    6  A    between atoms: C_23  and  C_26
REMARK                            x       y       z     vdW  Elec       q    Type
REMARK                         _______ _______ _______ _____ _____    ______ ____
ROOT
ATOM      1  C   UNL     1       2.889   0.804  -0.356  0.00  0.00    +0.020 C 
ATOM      2  C   UNL     1       1.448   1.261  -0.116  0.00  0.00    +0.033 C 
ATOM      3  C   UNL     1       0.525   0.046   0.101  0.00  0.00    +0.131 C 
ATOM      4  C   UNL     1      -0.012   0.247   1.501  0.00  0.00    +0.098 C 
ATOM      5  N   UNL     1      -0.836  -0.540   2.111  0.00  0.00    -0.369 N 
ATOM      6  N   UNL     1       0.518   1.401   2.016  0.00  0.00    -0.254 N 
ATOM      7  C   UNL     1       1.348   2.035   1.179  0.00  0.00    +0.069 C 
ATOM      8  S   UNL     1       2.114   3.402   1.499  0.00  0.00    -0.039 S 
ATOM      9  C   UNL     1       0.951   2.110  -1.288  0.00  0.00    +0.020 C 
ATOM     10  H   UNL     1      -1.480  -0.148   2.912  0.00  0.00    +0.161 HD
ENDROOT
BRANCH   5  11
ATOM     11  C   UNL     1      -0.912  -1.954   1.735  0.00  0.00    +0.040 C 
ATOM     12  C   UNL     1      -1.572  -2.081   0.360  0.00  0.00    +0.031 C 
ATOM     13  C   UNL     1      -1.652  -3.558  -0.033  0.00  0.00    -0.008 C 
ATOM     14  C   UNL     1      -0.241  -4.148  -0.087  0.00  0.00    +0.007 C 
ATOM     15  C   UNL     1       0.418  -4.021   1.288  0.00  0.00    -0.008 C 
ATOM     16  C   UNL     1       0.498  -2.544   1.681  0.00  0.00    +0.031 C 
ATOM     17  C   UNL     1      -0.413  -4.779   2.325  0.00  0.00    +0.007 C 
ATOM     18  C   UNL     1      -1.823  -4.189   2.379  0.00  0.00    -0.008 C 
ATOM     19  C   UNL     1      -2.483  -4.317   1.004  0.00  0.00    +0.007 C 
ATOM     20  C   UNL     1      -1.744  -2.713   2.771  0.00  0.00    +0.031 C 
ENDBRANCH   5  11
BRANCH   6  21
ATOM     21  C   UNL     1       0.220   1.872   3.297  0.00  0.00    +0.040 A 
ATOM     22  C   UNL     1       0.918   1.382   4.396  0.00  0.00    +0.025 A 
ATOM     23  C   UNL     1       0.630   1.847   5.660  0.00  0.00    +0.021 A 
ATOM     24  C   UNL     1      -0.372   2.805   5.839  0.00  0.00    +0.052 A 
ATOM     25  C   UNL     1      -1.075   3.291   4.733  0.00  0.00    +0.021 A 
ATOM     26  C   UNL     1      -0.778   2.825   3.471  0.00  0.00    +0.025 A 
BRANCH  24  27
ATOM     27  C   UNL     1      -0.678   3.287   7.152  0.00  0.00    +0.099 C 
ATOM     28  N   UNL     1      -0.921   3.669   8.194  0.00  0.00    -0.191 NA
ENDBRANCH  24  27
ENDBRANCH   6  21
BRANCH   3  29
ATOM     29  N   UNL     1      -0.568   0.047  -0.880  0.00  0.00    -0.291 NA
ATOM     30  C   UNL     1      -0.091  -0.376  -2.198  0.00  0.00    +0.096 C 
ATOM     31  C   UNL     1      -1.278  -0.808  -3.067  0.00  0.00    +0.084 C 
ATOM     32  S   UNL     1      -2.383   0.623  -3.278  0.00  0.00    -0.158 S 
ATOM     33  C   UNL     1      -2.619   1.203  -1.570  0.00  0.00    +0.084 C 
ATOM     34  C   UNL     1      -1.241   1.348  -0.915  0.00  0.00    +0.096 C 
ENDBRANCH   3  29
TORSDOF 4
