REMARK  Name = ZINC01755091
REMARK  6 active torsions:
REMARK  status: ('A' for Active; 'I' for Inactive)
REMARK    1  A    between atoms: C_3  and  O_30
REMARK    2  A    between atoms: C_4  and  C_8
REMARK    3  A    between atoms: N_9  and  N_10
REMARK    4  A    between atoms: C_11  and  C_13
REMARK    5  A    between atoms: C_14  and  C_24
REMARK    6  A    between atoms: C_24  and  N_51
REMARK                            x       y       z     vdW  Elec       q    Type
REMARK                         _______ _______ _______ _____ _____    ______ ____
ROOT
ATOM      1  C   UNL     1       5.351  -0.900   1.275  0.00  0.00    +0.170 A 
ATOM      2  C   UNL     1       4.435  -0.185   1.993  0.00  0.00    +0.063 A 
ATOM      3  N   UNL     1       5.071   0.917   2.450  0.00  0.00    -0.194 N 
ATOM      4  N   UNL     1       6.395   0.837   1.994  0.00  0.00    -0.058 NA
ATOM      5  N   UNL     1       6.523  -0.242   1.304  0.00  0.00    -0.124 NA
ATOM      6  C   UNL     1       4.517   1.938   3.229  0.00  0.00    +0.240 A 
ATOM      7  C   UNL     1       5.224   3.126   3.715  0.00  0.00    +0.206 A 
ATOM      8  N   UNL     1       4.386   3.849   4.406  0.00  0.00    -0.032 NA
ATOM      9  O   UNL     1       3.134   3.185   4.401  0.00  0.00    -0.239 OA
ATOM     10  N   UNL     1       3.283   1.998   3.642  0.00  0.00    -0.027 NA
ATOM     11  N   UNL     1       6.560   3.431   3.481  0.00  0.00    -0.337 N 
ATOM     12  H   UNL     1       7.109   2.830   2.953  0.00  0.00    +0.144 HD
ATOM     13  H   UNL     1       6.944   4.244   3.845  0.00  0.00    +0.144 HD
ENDROOT
BRANCH   1  15
ATOM     14  N   UNL     1       6.089  -2.787  -0.094  0.00  0.00    -0.202 N 
ATOM     15  C   UNL     1       5.096  -2.178   0.584  0.00  0.00    +0.285 C 
ATOM     16  O   UNL     1       3.990  -2.683   0.626  0.00  0.00    -0.267 OA
ATOM     17  H   UNL     1       6.971  -2.384  -0.128  0.00  0.00    +0.178 HD
BRANCH  14  19
ATOM     18  C   UNL     1       6.804  -4.587  -1.404  0.00  0.00    +0.142 C 
ATOM     19  N   UNL     1       5.848  -4.001  -0.751  0.00  0.00    -0.187 NA
BRANCH  18  23
ATOM     20  C   UNL     1       6.072  -8.268  -3.393  0.00  0.00    +0.019 A 
ATOM     21  C   UNL     1       5.048  -7.649  -2.700  0.00  0.00    +0.047 A 
ATOM     22  C   UNL     1       5.278  -6.452  -2.043  0.00  0.00    +0.126 A 
ATOM     23  C   UNL     1       6.550  -5.864  -2.094  0.00  0.00    +0.037 A 
ATOM     24  C   UNL     1       7.576  -6.498  -2.798  0.00  0.00    +0.028 A 
ATOM     25  C   UNL     1       7.332  -7.694  -3.442  0.00  0.00    +0.019 A 
ATOM     26 BR   UNL     1       8.721  -8.552  -4.395  0.00  0.00    -0.050 Br
BRANCH  22  27
ATOM     27  O   UNL     1       4.274  -5.847  -1.357  0.00  0.00    -0.506 OA
ATOM     28  H   UNL     1       3.751  -5.231  -1.888  0.00  0.00    +0.292 HD
ENDBRANCH  22  27
ENDBRANCH  18  23
ENDBRANCH  14  19
ENDBRANCH   1  15
BRANCH   2  29
ATOM     29  C   UNL     1       2.991  -0.550   2.226  0.00  0.00    -0.020 C 
BRANCH  29  35
ATOM     30  C   UNL     1       0.793  -0.505   1.212  0.00  0.00    -0.078 C 
ATOM     31  C   UNL     1       0.002  -0.004   0.002  0.00  0.00    -0.019 C 
ATOM     32  C   UNL     1      -0.019   1.527   0.010  0.00  0.00    -0.004 C 
ATOM     33  C   UNL     1       1.421   2.049  -0.001  0.00  0.00    -0.019 C 
ATOM     34  C   UNL     1       2.171   1.488   1.210  0.00  0.00    -0.078 C 
ATOM     35  N   UNL     1       2.176   0.012   1.129  0.00  0.00    +0.383 N 
ATOM     36  H   UNL     1       2.584  -0.271   0.231  0.00  0.00    -0.081 HD
ENDBRANCH  29  35
ENDBRANCH   2  29
TORSDOF 6
