REMARK  Name = ZINC36826228
REMARK  4 active torsions:
REMARK  status: ('A' for Active; 'I' for Inactive)
REMARK    1  A    between atoms: C_1  and  C_2
REMARK    2  A    between atoms: C_3  and  N_23
REMARK    3  A    between atoms: C_7  and  S_8
REMARK    4  A    between atoms: S_8  and  N_11
REMARK                            x       y       z     vdW  Elec       q    Type
REMARK                         _______ _______ _______ _____ _____    ______ ____
ROOT
ATOM      1  S   UNL     1       0.145   0.374   2.695  0.00  0.00    +0.061 S 
ATOM      2  O   UNL     1       0.426  -1.007   2.874  0.00  0.00    -0.153 OA
ATOM      3  O   UNL     1      -0.374   0.894   1.478  0.00  0.00    -0.153 OA
ENDROOT
BRANCH   1   4
ATOM      4  N   UNL     1       1.556   1.187   2.993  0.00  0.00    -0.173 NA
ATOM      5  C   UNL     1       2.745   0.479   3.491  0.00  0.00    +0.110 C 
ATOM      6  C   UNL     1       3.248   1.174   4.760  0.00  0.00    +0.017 C 
ATOM      7  C   UNL     1       3.467   2.663   4.479  0.00  0.00    +0.006 C 
ATOM      8  C   UNL     1       2.141   3.296   4.061  0.00  0.00    +0.008 C 
ATOM      9  C   UNL     1       1.657   2.632   2.762  0.00  0.00    +0.083 C 
ATOM     10  C   UNL     1       0.295   3.211   2.381  0.00  0.00    +0.021 C 
ATOM     11  C   UNL     1       0.442   4.716   2.142  0.00  0.00    +0.002 C 
ATOM     12  C   UNL     1       0.958   5.396   3.411  0.00  0.00    +0.000 C 
ATOM     13  C   UNL     1       2.312   4.794   3.812  0.00  0.00    +0.005 C 
ENDBRANCH   1   4
BRANCH   1  20
ATOM     14  C   UNL     1       0.442  -0.403   5.601  0.00  0.00    +0.047 C 
ATOM     15  C   UNL     1      -0.773   0.422   5.263  0.00  0.00    -0.004 A 
ATOM     16  C   UNL     1      -1.668   0.782   6.263  0.00  0.00    +0.029 A 
ATOM     17  C   UNL     1      -2.787   1.543   5.947  0.00  0.00    +0.023 A 
ATOM     18  C   UNL     1      -3.005   1.939   4.642  0.00  0.00    +0.004 A 
ATOM     19  C   UNL     1      -2.111   1.578   3.650  0.00  0.00    +0.029 A 
ATOM     20  C   UNL     1      -0.994   0.825   3.962  0.00  0.00    +0.110 A 
BRANCH  16  21
ATOM     21  N   UNL     1      -1.445   0.380   7.581  0.00  0.00    -0.358 N 
ATOM     22  H   UNL     1      -0.663  -0.152   7.801  0.00  0.00    +0.142 HD
ATOM     23  H   UNL     1      -2.071   0.632   8.278  0.00  0.00    +0.142 HD
ENDBRANCH  16  21
ENDBRANCH   1  20
TORSDOF 3
