REMARK  Name = ZINC09201268
REMARK  11 active torsions:
REMARK  status: ('A' for Active; 'I' for Inactive)
REMARK    1  A    between atoms: C_1  and  C_2
REMARK    2  A    between atoms: C_2  and  C_3
REMARK    3  A    between atoms: C_3  and  C_4
REMARK    4  A    between atoms: C_4  and  N_5
REMARK    5  A    between atoms: C_9  and  S_26
REMARK    6  A    between atoms: C_13  and  C_14
REMARK    7  A    between atoms: C_14  and  N_57
REMARK    8  A    between atoms: C_15  and  C_16
REMARK    9  A    between atoms: C_15  and  N_57
REMARK   10  A    between atoms: C_23  and  N_57
REMARK   11  A    between atoms: S_26  and  N_29
REMARK                            x       y       z     vdW  Elec       q    Type
REMARK                         _______ _______ _______ _____ _____    ______ ____
ROOT
ATOM      1  N   UNL     1      -1.372   5.315  -4.741  0.00  0.00    -0.329 N 
ATOM      2  C   UNL     1      -1.255   4.320  -3.792  0.00  0.00    +0.069 A 
ATOM      3  C   UNL     1      -1.673   2.998  -3.720  0.00  0.00    +0.030 A 
ATOM      4  C   UNL     1      -1.387   2.252  -2.596  0.00  0.00    +0.030 A 
ATOM      5  C   UNL     1      -0.684   2.813  -1.539  0.00  0.00    +0.107 A 
ATOM      6  C   UNL     1      -0.270   4.114  -1.590  0.00  0.00    +0.058 A 
ATOM      7  C   UNL     1      -0.544   4.888  -2.721  0.00  0.00    +0.091 A 
ATOM      8  N   UNL     1      -0.270   6.172  -3.065  0.00  0.00    -0.234 NA
ATOM      9  C   UNL     1      -0.754   6.421  -4.247  0.00  0.00    +0.094 A 
ENDROOT
BRANCH   5  10
ATOM     10  S   UNL     1      -0.330   1.840  -0.114  0.00  0.00    +0.056 S 
ATOM     11  O   UNL     1      -1.305   0.807  -0.074  0.00  0.00    -0.153 OA
ATOM     12  O   UNL     1      -0.139   2.749   0.962  0.00  0.00    -0.153 OA
BRANCH  10  13
ATOM     13  N   UNL     1       1.130   1.103  -0.375  0.00  0.00    -0.204 NA
ATOM     14  H   UNL     1       1.191   0.135  -0.377  0.00  0.00    +0.144 HD
ATOM     15  H   UNL     1       1.924   1.639  -0.529  0.00  0.00    +0.144 HD
ENDBRANCH  10  13
ENDBRANCH   5  10
BRANCH   1  16
ATOM     16  C   UNL     1      -2.039   5.201  -6.041  0.00  0.00    +0.123 C 
BRANCH  16  17
ATOM     17  C   UNL     1      -3.513   5.586  -5.894  0.00  0.00    +0.021 C 
BRANCH  17  19
ATOM     18  C   UNL     1      -5.682   5.853  -7.103  0.00  0.00    +0.004 C 
ATOM     19  C   UNL     1      -4.209   5.467  -7.251  0.00  0.00    -0.002 C 
ENDBRANCH  17  19
ENDBRANCH  16  17
ENDBRANCH   1  16
BRANCH   9  20
ATOM     20  C   UNL     1      -0.646   7.743  -4.963  0.00  0.00    -0.002 C 
BRANCH  20  21
ATOM     21  N   UNL     1      -1.827   8.566  -4.626  0.00  0.00    +0.389 N 
ATOM     22  H   UNL     1      -2.677   8.015  -4.797  0.00  0.00    -0.080 HD
BRANCH  21  23
ATOM     23  C   UNL     1      -1.784   8.951  -3.200  0.00  0.00    -0.068 C 
ATOM     24  C   UNL     1      -2.611   8.098  -2.236  0.00  0.00    -0.017 C 
ATOM     25  C   UNL     1      -3.074   9.512  -2.597  0.00  0.00    -0.017 C 
ENDBRANCH  21  23
BRANCH  21  26
ATOM     26  C   UNL     1      -1.859   9.775  -5.475  0.00  0.00    -0.042 C 
BRANCH  26  27
ATOM     27  C   UNL     1      -3.233  10.388  -5.392  0.00  0.00    -0.064 A 
ATOM     28  C   UNL     1      -4.258   9.898  -6.181  0.00  0.00    +0.004 A 
ATOM     29  C   UNL     1      -5.519  10.456  -6.101  0.00  0.00    +0.038 A 
ATOM     30  C   UNL     1      -5.755  11.514  -5.240  0.00  0.00    +0.123 A 
ATOM     31  C   UNL     1      -4.727  12.008  -4.455  0.00  0.00    +0.038 A 
ATOM     32  C   UNL     1      -3.467  11.445  -4.532  0.00  0.00    +0.004 A 
ATOM     33  F   UNL     1      -6.987  12.064  -5.165  0.00  0.00    -0.205 F 
ENDBRANCH  26  27
ENDBRANCH  21  26
ENDBRANCH  20  21
ENDBRANCH   9  20
TORSDOF 10
