REMARK  Name = ZINC03558052
REMARK  5 active torsions:
REMARK  status: ('A' for Active; 'I' for Inactive)
REMARK    1  A    between atoms: C_1  and  N_2
REMARK    2  A    between atoms: C_6  and  C_8
REMARK    3  A    between atoms: C_8  and  C_10
REMARK    4  A    between atoms: C_8  and  S_16
REMARK    5  A    between atoms: S_16  and  C_17
REMARK                            x       y       z     vdW  Elec       q    Type
REMARK                         _______ _______ _______ _____ _____    ______ ____
ROOT
ATOM      1  C   UNL     1       6.284   2.674  -0.042  0.00  0.00    +0.170 C 
ENDROOT
BRANCH   1   7
ATOM      2  C   UNL     1      11.145  -0.818   1.281  0.00  0.00    +0.129 C 
ATOM      3  N   UNL     1      10.343   0.404   1.175  0.00  0.00    -0.302 N 
ATOM      4  C   UNL     1       9.094   0.349   0.670  0.00  0.00    +0.306 C 
ATOM      5  O   UNL     1       8.634  -0.715   0.303  0.00  0.00    -0.252 OA
ATOM      6  N   UNL     1       8.357   1.472   0.572  0.00  0.00    -0.239 N 
ATOM      7  C   UNL     1       7.108   1.417   0.067  0.00  0.00    +0.238 C 
ATOM      8  O   UNL     1       6.649   0.357  -0.299  0.00  0.00    -0.274 OA
ATOM      9  H   UNL     1      10.710   1.252   1.468  0.00  0.00    +0.150 HD
ATOM     10  H   UNL     1       8.724   2.321   0.865  0.00  0.00    +0.159 HD
ENDBRANCH   1   7
BRANCH   1  11
ATOM     11  C   UNL     1       6.617   3.383  -1.329  0.00  0.00    -0.025 A 
ATOM     12  C   UNL     1       6.425   2.746  -2.540  0.00  0.00    +0.005 A 
ATOM     13  C   UNL     1       6.727   3.398  -3.720  0.00  0.00    +0.000 A 
ATOM     14  C   UNL     1       7.230   4.685  -3.689  0.00  0.00    +0.000 A 
ATOM     15  C   UNL     1       7.428   5.321  -2.478  0.00  0.00    +0.000 A 
ATOM     16  C   UNL     1       7.121   4.670  -1.298  0.00  0.00    +0.005 A 
ENDBRANCH   1  11
BRANCH   1  17
ATOM     17  S   UNL     1       4.521   2.243  -0.028  0.00  0.00    -0.068 S 
BRANCH  17  18
ATOM     18  C   UNL     1       3.702   3.803  -0.012  0.00  0.00    +0.198 A 
ATOM     19  N   UNL     1       4.288   4.972  -0.011  0.00  0.00    -0.121 NA
ATOM     20  N   UNL     1       3.291   5.957   0.003  0.00  0.00    -0.121 NA
ATOM     21  C   UNL     1       2.142   5.351   0.011  0.00  0.00    +0.202 A 
ATOM     22  N   UNL     1       2.329   3.994   0.001  0.00  0.00    -0.264 N 
ATOM     23  C   UNL     1       1.192   3.171   0.008  0.00  0.00    +0.065 A 
ATOM     24  C   UNL     1       1.176   1.766   0.000  0.00  0.00    +0.027 A 
ATOM     25  C   UNL     1      -0.013   1.076   0.008  0.00  0.00    +0.002 A 
ATOM     26  C   UNL     1      -1.228   1.739   0.017  0.00  0.00    +0.001 A 
ATOM     27  C   UNL     1      -1.242   3.122   0.029  0.00  0.00    +0.017 A 
ATOM     28  C   UNL     1      -0.051   3.812   0.022  0.00  0.00    +0.040 A 
ATOM     29  S   UNL     1       0.374   5.536   0.028  0.00  0.00    -0.048 S 
ENDBRANCH  17  18
ENDBRANCH   1  17
TORSDOF 4
