REMARK  Name = ZINC19639710
REMARK  6 active torsions:
REMARK  status: ('A' for Active; 'I' for Inactive)
REMARK    1  A    between atoms: C_1  and  C_2
REMARK    2  A    between atoms: C_4  and  O_5
REMARK    3  A    between atoms: C_14  and  C_16
REMARK    4  A    between atoms: N_19  and  C_21
REMARK    5  A    between atoms: C_21  and  O_22
REMARK    6  A    between atoms: O_22  and  C_23
REMARK                            x       y       z     vdW  Elec       q    Type
REMARK                         _______ _______ _______ _____ _____    ______ ____
ROOT
ATOM      1  C   UNL     1       3.667   1.616   0.760  0.00  0.00    +0.045 C 
ATOM      2  C   UNL     1       2.487   1.118  -0.034  0.00  0.00    -0.033 A 
ATOM      3  C   UNL     1       2.583  -0.002  -0.798  0.00  0.00    +0.091 A 
ATOM      4  C   UNL     1       1.465  -0.447  -1.533  0.00  0.00    +0.285 A 
ATOM      5  O   UNL     1       0.294   0.208  -1.502  0.00  0.00    -0.425 OA
ATOM      6  C   UNL     1       0.132   1.327  -0.763  0.00  0.00    +0.141 A 
ATOM      7  C   UNL     1       1.207   1.828  -0.004  0.00  0.00    +0.021 A 
ATOM      8  C   UNL     1       1.044   2.987   0.763  0.00  0.00    +0.013 A 
ATOM      9  C   UNL     1      -0.161   3.626   0.778  0.00  0.00    +0.024 A 
ATOM     10  C   UNL     1      -1.229   3.139   0.025  0.00  0.00    +0.037 A 
ATOM     11  C   UNL     1      -1.084   1.991  -0.741  0.00  0.00    +0.070 A 
ATOM     12  N   UNL     1      -2.453   3.807   0.046  0.00  0.00    -0.280 N 
ATOM     13  C   UNL     1      -3.602   3.110  -0.048  0.00  0.00    +0.268 C 
ATOM     14  O   UNL     1      -3.578   1.895  -0.055  0.00  0.00    -0.268 OA
ATOM     15  H   UNL     1      -2.480   4.902   0.139  0.00  0.00    +0.155 HD
ENDROOT
BRANCH  13  16
ATOM     16  C   UNL     1      -4.892   3.823  -0.143  0.00  0.00    +0.147 A 
ATOM     17  C   UNL     1      -6.174   3.233  -0.253  0.00  0.00    +0.054 A 
ATOM     18  C   UNL     1      -7.045   4.269  -0.308  0.00  0.00    +0.113 A 
ATOM     19  N   UNL     1      -6.319   5.405  -0.244  0.00  0.00    -0.235 N 
ATOM     20  N   UNL     1      -5.068   5.129  -0.148  0.00  0.00    -0.164 NA
BRANCH  19  21
ATOM     21  C   UNL     1      -6.878   6.759  -0.279  0.00  0.00    +0.374 C 
BRANCH  21  22
ATOM     22  O   UNL     1      -8.300   6.685  -0.391  0.00  0.00    -0.468 OA
BRANCH  22  23
ATOM     23  C   UNL     1      -8.979   7.862  -0.436  0.00  0.00    +0.143 A 
ATOM     24  C   UNL     1      -8.289   9.064  -0.374  0.00  0.00    +0.047 A 
ATOM     25  C   UNL     1      -8.979  10.259  -0.420  0.00  0.00    +0.005 A 
ATOM     26  C   UNL     1     -10.358  10.260  -0.529  0.00  0.00    +0.022 A 
ATOM     27  C   UNL     1     -11.049   9.063  -0.591  0.00  0.00    +0.063 A 
ATOM     28  C   UNL     1     -10.362   7.863  -0.550  0.00  0.00    +0.101 A 
ATOM     29 CL   UNL     1     -11.228   6.361  -0.635  0.00  0.00    -0.078 Cl
ATOM     30 CL   UNL     1     -12.780   9.067  -0.727  0.00  0.00    -0.082 Cl
ENDBRANCH  22  23
ENDBRANCH  21  22
ENDBRANCH  19  21
ENDBRANCH  13  16
BRANCH   4  31
ATOM     31  O   UNL     1       1.565  -1.452  -2.214  0.00  0.00    -0.480 OA
ATOM     32  H   UNL     1       0.702  -1.812  -2.793  0.00  0.00    +0.295 HD
ENDBRANCH   4  31
TORSDOF 5
