REMARK  Name = ZINC14457331
REMARK  9 active torsions:
REMARK  status: ('A' for Active; 'I' for Inactive)
REMARK    1  A    between atoms: C_1  and  C_2
REMARK    2  A    between atoms: C_2  and  C_3
REMARK    3  A    between atoms: C_2  and  C_4
REMARK    4  A    between atoms: C_4  and  O_5
REMARK    5  A    between atoms: O_5  and  C_6
REMARK    6  A    between atoms: C_19  and  C_22
REMARK    7  A    between atoms: C_25  and  O_29
REMARK    8  A    between atoms: C_26  and  O_28
REMARK    9  A    between atoms: O_29  and  C_30
REMARK                            x       y       z     vdW  Elec       q    Type
REMARK                         _______ _______ _______ _____ _____    ______ ____
ROOT
ATOM      1  C   UNL     1      -2.933   2.009  -2.193  0.00  0.00    +0.121 A 
ATOM      2  C   UNL     1      -2.408   2.742  -3.248  0.00  0.00    +0.047 A 
ATOM      3  C   UNL     1      -3.228   3.119  -4.292  0.00  0.00    +0.027 A 
ATOM      4  C   UNL     1      -4.572   2.765  -4.285  0.00  0.00    +0.032 A 
ATOM      5  C   UNL     1      -5.102   2.031  -3.236  0.00  0.00    -0.016 A 
ATOM      6  C   UNL     1      -4.270   1.651  -2.191  0.00  0.00    +0.051 A 
ATOM      7  C   UNL     1      -6.540   1.624  -3.191  0.00  0.00    +0.049 C 
ATOM      8  C   UNL     1      -7.321   2.460  -2.205  0.00  0.00    -0.023 C 
ATOM      9  C   UNL     1      -8.531   2.682  -2.656  0.00  0.00    -0.030 C 
ATOM     10  C   UNL     1      -8.725   2.017  -4.006  0.00  0.00    +0.033 C 
ATOM     11  C   UNL     1      -7.270   1.840  -4.531  0.00  0.00    +0.029 C 
ATOM     12  C   UNL     1      -6.843   3.176  -5.146  0.00  0.00    +0.105 C 
ATOM     13  N   UNL     1      -5.391   3.162  -5.351  0.00  0.00    -0.336 N 
ATOM     14  H   UNL     1      -5.007   3.421  -6.204  0.00  0.00    +0.147 HD
ENDROOT
BRANCH  12  15
ATOM     15  C   UNL     1      -7.538   3.368  -6.470  0.00  0.00    -0.023 A 
ATOM     16  C   UNL     1      -7.056   2.733  -7.600  0.00  0.00    +0.009 A 
ATOM     17  C   UNL     1      -7.689   2.905  -8.816  0.00  0.00    +0.050 A 
ATOM     18  C   UNL     1      -8.811   3.715  -8.905  0.00  0.00    +0.161 A 
ATOM     19  C   UNL     1      -9.296   4.352  -7.768  0.00  0.00    +0.159 A 
ATOM     20  C   UNL     1      -8.659   4.172  -6.550  0.00  0.00    +0.054 A 
BRANCH  19  21
ATOM     21  O   UNL     1     -10.397   5.147  -7.849  0.00  0.00    -0.503 OA
ATOM     22  H   UNL     1     -11.231   4.681  -7.703  0.00  0.00    +0.292 HD
ENDBRANCH  19  21
BRANCH  18  23
ATOM     23  O   UNL     1      -9.435   3.885 -10.101  0.00  0.00    -0.491 OA
ATOM     24  C   UNL     1      -8.881   3.200 -11.226  0.00  0.00    +0.277 C 
ENDBRANCH  18  23
ENDBRANCH  12  15
BRANCH   1  25
ATOM     25  O   UNL     1      -2.130   1.636  -1.161  0.00  0.00    -0.492 OA
BRANCH  25  26
ATOM     26  C   UNL     1      -0.759   2.033  -1.229  0.00  0.00    +0.232 C 
BRANCH  26  28
ATOM     27  C   UNL     1       0.002  -0.004   0.002  0.00  0.00    +0.010 C 
ATOM     28  C   UNL     1      -0.019   1.526   0.010  0.00  0.00    +0.020 C 
ATOM     29  C   UNL     1       1.417   2.055  -0.000  0.00  0.00    +0.010 C 
ENDBRANCH  26  28
ENDBRANCH  25  26
ENDBRANCH   1  25
TORSDOF 6
