REMARK  Name = ZINC08790881
REMARK  10 active torsions:
REMARK  status: ('A' for Active; 'I' for Inactive)
REMARK    1  A    between atoms: C_1  and  C_2
REMARK    2  A    between atoms: C_3  and  O_19
REMARK    3  A    between atoms: C_12  and  C_13
REMARK    4  A    between atoms: O_19  and  C_20
REMARK    5  A    between atoms: C_20  and  C_22
REMARK    6  A    between atoms: C_20  and  C_23
REMARK    7  A    between atoms: N_25  and  C_26
REMARK    8  A    between atoms: C_26  and  C_27
REMARK    9  A    between atoms: C_27  and  C_29
REMARK   10  A    between atoms: C_27  and  O_35
REMARK                            x       y       z     vdW  Elec       q    Type
REMARK                         _______ _______ _______ _____ _____    ______ ____
ROOT
ATOM      1  C   UNL     1      -1.245  -0.779   0.466  0.00  0.00    +0.051 C 
ATOM      2  C   UNL     1       0.024  -0.005   0.218  0.00  0.00    +0.034 A 
ATOM      3  C   UNL     1       1.213  -0.676  -0.016  0.00  0.00    +0.128 A 
ATOM      4  C   UNL     1       2.391   0.031  -0.245  0.00  0.00    +0.047 A 
ATOM      5  C   UNL     1       2.388   1.397  -0.244  0.00  0.00    +0.016 A 
ATOM      6  C   UNL     1       1.198   2.088  -0.010  0.00  0.00    +0.026 A 
ATOM      7  C   UNL     1       0.005   1.382   0.223  0.00  0.00    +0.146 A 
ATOM      8  O   UNL     1      -1.145   2.054   0.443  0.00  0.00    -0.422 OA
ATOM      9  C   UNL     1      -1.192   3.395   0.459  0.00  0.00    +0.338 A 
ATOM     10  O   UNL     1      -2.257   3.949   0.669  0.00  0.00    -0.245 OA
ATOM     11  C   UNL     1      -0.047   4.179   0.236  0.00  0.00    +0.101 A 
ATOM     12  C   UNL     1       1.166   3.561  -0.002  0.00  0.00    -0.000 A 
ENDROOT
BRANCH  12  13
ATOM     13  C   UNL     1       2.392   4.352  -0.242  0.00  0.00    -0.017 A 
ATOM     14  C   UNL     1       3.557   4.075   0.475  0.00  0.00    +0.008 A 
ATOM     15  C   UNL     1       4.699   4.813   0.242  0.00  0.00    +0.001 A 
ATOM     16  C   UNL     1       4.688   5.834  -0.691  0.00  0.00    +0.000 A 
ATOM     17  C   UNL     1       3.535   6.118  -1.401  0.00  0.00    +0.001 A 
ATOM     18  C   UNL     1       2.388   5.383  -1.182  0.00  0.00    +0.008 A 
ENDBRANCH  12  13
BRANCH   3  19
ATOM     19  O   UNL     1       1.231  -2.034  -0.020  0.00  0.00    -0.480 OA
BRANCH  19  20
ATOM     20  C   UNL     1       2.506  -2.666  -0.147  0.00  0.00    +0.255 C 
ATOM     21  C   UNL     1       2.878  -2.773  -1.627  0.00  0.00    +0.062 C 
BRANCH  20  22
ATOM     22  C   UNL     1       2.445  -4.045   0.457  0.00  0.00    +0.254 C 
ATOM     23  O   UNL     1       1.390  -4.482   0.866  0.00  0.00    -0.272 OA
ATOM     24  N   UNL     1       3.563  -4.793   0.543  0.00  0.00    -0.309 N 
ATOM     25  H   UNL     1       4.407  -4.443   0.217  0.00  0.00    +0.149 HD
BRANCH  24  26
ATOM     26  C   UNL     1       3.504  -6.134   1.130  0.00  0.00    +0.140 C 
BRANCH  26  27
ATOM     27  C   UNL     1       4.899  -6.762   1.107  0.00  0.00    +0.162 C 
BRANCH  27  28
ATOM     28  C   UNL     1       4.817  -8.185   1.597  0.00  0.00    -0.018 A 
ATOM     29  C   UNL     1       4.764  -8.447   2.953  0.00  0.00    +0.006 A 
ATOM     30  C   UNL     1       4.684  -9.752   3.402  0.00  0.00    +0.000 A 
ATOM     31  C   UNL     1       4.666 -10.796   2.495  0.00  0.00    +0.000 A 
ATOM     32  C   UNL     1       4.724 -10.534   1.139  0.00  0.00    +0.000 A 
ATOM     33  C   UNL     1       4.799  -9.228   0.690  0.00  0.00    +0.006 A 
ENDBRANCH  27  28
BRANCH  27  34
ATOM     34  O   UNL     1       5.772  -6.016   1.957  0.00  0.00    -0.386 OA
ATOM     35  H   UNL     1       5.489  -5.984   2.881  0.00  0.00    +0.210 HD
ENDBRANCH  27  34
ENDBRANCH  26  27
ENDBRANCH  24  26
ENDBRANCH  20  22
ENDBRANCH  19  20
ENDBRANCH   3  19
TORSDOF 8
