REMARK  Name = ZINC19795823
REMARK  6 active torsions:
REMARK  status: ('A' for Active; 'I' for Inactive)
REMARK    1  A    between atoms: C_1  and  O_2
REMARK    2  A    between atoms: O_2  and  C_3
REMARK    3  A    between atoms: C_8  and  N_9
REMARK    4  A    between atoms: N_12  and  C_15
REMARK    5  A    between atoms: C_15  and  C_21
REMARK    6  A    between atoms: C_21  and  N_22
REMARK                            x       y       z     vdW  Elec       q    Type
REMARK                         _______ _______ _______ _____ _____    ______ ____
ROOT
ATOM      1  N   UNL     1       0.345  -2.496   0.054  0.00  0.00    -0.325 N 
ATOM      2  C   UNL     1      -1.048  -2.925  -0.141  0.00  0.00    +0.120 C 
ATOM      3  C   UNL     1      -1.826  -2.658   1.152  0.00  0.00    +0.104 C 
ATOM      4  N   UNL     1      -1.131  -3.296   2.278  0.00  0.00    -0.296 NA
ATOM      5  C   UNL     1       0.204  -2.718   2.478  0.00  0.00    +0.104 C 
ATOM      6  C   UNL     1       1.067  -2.992   1.236  0.00  0.00    +0.120 C 
ENDROOT
BRANCH   1  12
ATOM      7  C   UNL     1       0.904  -0.263  -0.690  0.00  0.00    +0.141 A 
ATOM      8  C   UNL     1       1.529   0.576  -1.597  0.00  0.00    +0.047 A 
ATOM      9  C   UNL     1       2.211   0.044  -2.676  0.00  0.00    +0.004 A 
ATOM     10  C   UNL     1       2.271  -1.326  -2.852  0.00  0.00    +0.002 A 
ATOM     11  C   UNL     1       1.651  -2.171  -1.951  0.00  0.00    +0.027 A 
ATOM     12  C   UNL     1       0.969  -1.643  -0.863  0.00  0.00    +0.072 A 
BRANCH   7  14
ATOM     13  C   UNL     1       0.207   1.684   0.485  0.00  0.00    +0.277 C 
ATOM     14  O   UNL     1       0.232   0.260   0.371  0.00  0.00    -0.493 OA
ENDBRANCH   7  14
ENDBRANCH   1  12
BRANCH   4  15
ATOM     15  C   UNL     1      -1.931  -3.211   3.507  0.00  0.00    +0.007 C 
ATOM     16  C   UNL     1      -2.147  -1.741   3.874  0.00  0.00    +0.020 C 
ATOM     17  C   UNL     1      -2.980  -1.652   5.154  0.00  0.00    +0.002 C 
ATOM     18  C   UNL     1      -4.335  -2.325   4.928  0.00  0.00    +0.000 C 
ATOM     19  C   UNL     1      -4.120  -3.794   4.561  0.00  0.00    +0.002 C 
ATOM     20  C   UNL     1      -3.287  -3.884   3.281  0.00  0.00    +0.020 C 
BRANCH  15  21
ATOM     21  C   UNL     1      -1.194  -3.918   4.646  0.00  0.00    -0.064 C 
BRANCH  21  22
ATOM     22  N   UNL     1      -0.873  -5.293   4.241  0.00  0.00    +0.379 N 
ATOM     23  H   UNL     1      -1.720  -5.772   3.974  0.00  0.00    -0.090 HD
ATOM     24  H   UNL     1      -0.236  -5.274   3.459  0.00  0.00    -0.090 HD
ATOM     25  H   UNL     1      -0.442  -5.779   5.014  0.00  0.00    -0.090 HD
ENDBRANCH  21  22
ENDBRANCH  15  21
ENDBRANCH   4  15
TORSDOF 5
