REMARK  Name = ZINC12183069
REMARK  7 active torsions:
REMARK  status: ('A' for Active; 'I' for Inactive)
REMARK    1  A    between atoms: C_1  and  C_2
REMARK    2  A    between atoms: N_4  and  C_5
REMARK    3  A    between atoms: C_8  and  C_10
REMARK    4  A    between atoms: C_10  and  N_59
REMARK    5  A    between atoms: C_17  and  C_21
REMARK    6  A    between atoms: C_21  and  C_23
REMARK    7  A    between atoms: C_21  and  O_29
REMARK                            x       y       z     vdW  Elec       q    Type
REMARK                         _______ _______ _______ _____ _____    ______ ____
ROOT
ATOM      1  C   UNL     1      -1.818   0.696   1.595  0.00  0.00    -0.036 C 
ATOM      2  C   UNL     1      -2.983   0.736   0.629  0.00  0.00    +0.210 C 
ATOM      3  O   UNL     1      -2.600   0.209  -0.648  0.00  0.00    -0.494 OA
ATOM      4  C   UNL     1      -2.014   1.100  -1.492  0.00  0.00    +0.122 A 
ATOM      5  C   UNL     1      -2.688   1.531  -2.627  0.00  0.00    +0.046 A 
ATOM      6  C   UNL     1      -2.100   2.462  -3.461  0.00  0.00    +0.010 A 
ATOM      7  C   UNL     1      -0.844   2.963  -3.170  0.00  0.00    -0.018 A 
ATOM      8  C   UNL     1      -0.167   2.526  -2.045  0.00  0.00    +0.011 A 
ATOM      9  C   UNL     1      -0.752   1.591  -1.217  0.00  0.00    -0.022 A 
ATOM     10  C   UNL     1      -0.013   1.086   0.008  0.00  0.00    -0.039 C 
ATOM     11  N   UNL     1      -0.714   1.601   1.207  0.00  0.00    +0.388 N 
ATOM     12  H   UNL     1      -1.106   2.525   0.987  0.00  0.00    -0.081 HD
ENDROOT
BRANCH  11  13
ATOM     13  C   UNL     1       0.237   1.742   2.324  0.00  0.00    -0.035 C 
BRANCH  13  17
ATOM     14  C   UNL     1      -1.538   4.133   5.270  0.00  0.00    +0.072 A 
ATOM     15  C   UNL     1      -1.700   2.791   5.432  0.00  0.00    +0.031 A 
ATOM     16  C   UNL     1      -1.148   1.935   4.496  0.00  0.00    +0.011 A 
ATOM     17  C   UNL     1      -0.454   2.457   3.456  0.00  0.00    -0.025 A 
ATOM     18  S   UNL     1      -0.576   4.210   3.768  0.00  0.00    -0.080 S 
BRANCH  14  22
ATOM     19  C   UNL     1      -2.235   7.584   6.602  0.00  0.00    +0.109 C 
ATOM     20  C   UNL     1      -1.733   6.456   5.737  0.00  0.00    +0.214 C 
ATOM     21  O   UNL     1      -1.087   6.698   4.740  0.00  0.00    -0.276 OA
ATOM     22  N   UNL     1      -2.003   5.179   6.072  0.00  0.00    -0.280 N 
ATOM     23  H   UNL     1      -2.520   4.986   6.870  0.00  0.00    +0.155 HD
ENDBRANCH  14  22
ENDBRANCH  13  17
ENDBRANCH  11  13
BRANCH   7  24
ATOM     24  C   UNL     1      -0.213   3.987  -4.078  0.00  0.00    +0.148 C 
BRANCH  24  25
ATOM     25  C   UNL     1       0.391   3.285  -5.296  0.00  0.00    +0.022 C 
ATOM     26  C   UNL     1       1.455   2.288  -4.834  0.00  0.00    +0.006 C 
ATOM     27  C   UNL     1       2.059   1.585  -6.051  0.00  0.00    +0.000 C 
ATOM     28  C   UNL     1       2.700   2.624  -6.974  0.00  0.00    +0.000 C 
ATOM     29  C   UNL     1       1.636   3.622  -7.436  0.00  0.00    +0.000 C 
ATOM     30  C   UNL     1       1.032   4.324  -6.218  0.00  0.00    +0.006 C 
ENDBRANCH  24  25
BRANCH  24  31
ATOM     31  O   UNL     1      -1.207   4.918  -4.510  0.00  0.00    -0.387 OA
ATOM     32  H   UNL     1      -1.938   4.515  -4.998  0.00  0.00    +0.210 HD
ENDBRANCH  24  31
ENDBRANCH   7  24
TORSDOF 6
