REMARK  Name = ZINC58846093
REMARK  6 active torsions:
REMARK  status: ('A' for Active; 'I' for Inactive)
REMARK    1  A    between atoms: C_1  and  C_2
REMARK    2  A    between atoms: C_2  and  C_3
REMARK    3  A    between atoms: C_8  and  N_9
REMARK    4  A    between atoms: N_9  and  S_10
REMARK    5  A    between atoms: S_10  and  C_13
REMARK    6  A    between atoms: C_26  and  C_29
REMARK                            x       y       z     vdW  Elec       q    Type
REMARK                         _______ _______ _______ _____ _____    ______ ____
ROOT
ATOM      1  C   UNL     1      -1.315   1.828   4.201  0.00  0.00    +0.109 A 
ATOM      2  C   UNL     1      -0.132   1.999   4.898  0.00  0.00    +0.030 A 
ATOM      3  C   UNL     1       0.358   3.271   5.114  0.00  0.00    +0.025 A 
ATOM      4  C   UNL     1      -0.333   4.377   4.630  0.00  0.00    +0.031 A 
ATOM      5  C   UNL     1      -1.512   4.207   3.920  0.00  0.00    -0.018 A 
ATOM      6  C   UNL     1      -1.996   2.923   3.712  0.00  0.00    +0.034 A 
ATOM      7  C   UNL     1      -2.259   5.365   3.352  0.00  0.00    +0.049 C 
ATOM      8  C   UNL     1      -3.486   5.700   4.160  0.00  0.00    -0.023 C 
ATOM      9  C   UNL     1      -3.673   6.996   4.184  0.00  0.00    -0.030 C 
ATOM     10  C   UNL     1      -2.595   7.712   3.401  0.00  0.00    +0.033 C 
ATOM     11  C   UNL     1      -1.461   6.666   3.291  0.00  0.00    +0.029 C 
ATOM     12  C   UNL     1      -0.523   6.861   4.464  0.00  0.00    +0.105 C 
ATOM     13  N   UNL     1       0.163   5.653   4.871  0.00  0.00    -0.336 N 
ATOM     14  H   UNL     1       0.999   5.737   5.356  0.00  0.00    +0.147 HD
ENDROOT
BRANCH  12  15
ATOM     15  C   UNL     1      -1.314   7.410   5.624  0.00  0.00    -0.026 A 
ATOM     16  C   UNL     1      -2.072   6.560   6.407  0.00  0.00    +0.005 A 
ATOM     17  C   UNL     1      -2.797   7.063   7.471  0.00  0.00    +0.001 A 
ATOM     18  C   UNL     1      -2.766   8.416   7.751  0.00  0.00    +0.015 A 
ATOM     19  C   UNL     1      -2.007   9.267   6.968  0.00  0.00    +0.018 A 
ATOM     20  C   UNL     1      -1.277   8.762   5.907  0.00  0.00    +0.020 A 
ATOM     21 BR   UNL     1      -1.964  11.118   7.351  0.00  0.00    -0.050 Br
ENDBRANCH  12  15
BRANCH   1  22
ATOM     22  S   UNL     1      -1.948   0.206   3.931  0.00  0.00    +0.072 S 
ATOM     23  O   UNL     1      -3.347   0.346   3.720  0.00  0.00    -0.150 OA
ATOM     24  O   UNL     1      -1.412  -0.616   4.959  0.00  0.00    -0.150 OA
BRANCH  22  25
ATOM     25  N   UNL     1      -1.307  -0.339   2.506  0.00  0.00    -0.216 N 
ATOM     26  H   UNL     1      -1.892  -0.573   1.768  0.00  0.00    +0.174 HD
BRANCH  25  32
ATOM     27  C   UNL     1       0.679  -0.195   1.141  0.00  0.00    -0.025 A 
ATOM     28  C   UNL     1       2.048  -0.312   1.006  0.00  0.00    +0.005 A 
ATOM     29  C   UNL     1       2.820  -0.701   2.086  0.00  0.00    +0.000 A 
ATOM     30  C   UNL     1       2.224  -0.974   3.304  0.00  0.00    +0.002 A 
ATOM     31  C   UNL     1       0.855  -0.858   3.445  0.00  0.00    +0.025 A 
ATOM     32  C   UNL     1       0.077  -0.463   2.364  0.00  0.00    +0.051 A 
BRANCH  27  34
ATOM     33  C   UNL     1      -0.388   1.741   0.017  0.00  0.00    +0.009 C 
ATOM     34  C   UNL     1      -0.162   0.228  -0.036  0.00  0.00    +0.033 C 
ENDBRANCH  27  34
ENDBRANCH  25  32
ENDBRANCH  22  25
ENDBRANCH   1  22
TORSDOF 5
