REMARK  Name = ZINC49162102
REMARK  7 active torsions:
REMARK  status: ('A' for Active; 'I' for Inactive)
REMARK    1  A    between atoms: C_1  and  C_2
REMARK    2  A    between atoms: C_5  and  C_7
REMARK    3  A    between atoms: C_7  and  C_9
REMARK    4  A    between atoms: C_7  and  N_10
REMARK    5  A    between atoms: N_10  and  C_11
REMARK    6  A    between atoms: C_16  and  O_22
REMARK    7  A    between atoms: O_22  and  C_23
REMARK                            x       y       z     vdW  Elec       q    Type
REMARK                         _______ _______ _______ _____ _____    ______ ____
ROOT
ATOM      1  C   UNL     1       2.663  -5.544   0.941  0.00  0.00    +0.050 C 
ATOM      2  C   UNL     1       3.912  -5.648   1.785  0.00  0.00    -0.031 A 
ATOM      3  C   UNL     1       5.176  -5.116   1.656  0.00  0.00    +0.008 A 
ATOM      4  C   UNL     1       6.141  -5.390   2.607  0.00  0.00    +0.046 A 
ATOM      5  C   UNL     1       5.832  -6.201   3.689  0.00  0.00    +0.122 A 
ATOM      6  C   UNL     1       4.562  -6.736   3.820  0.00  0.00    +0.069 A 
ATOM      7  C   UNL     1       3.588  -6.462   2.863  0.00  0.00    +0.039 A 
ATOM      8  N   UNL     1       2.258  -6.875   2.773  0.00  0.00    -0.286 N 
ATOM      9  C   UNL     1       1.644  -6.386   1.679  0.00  0.00    +0.208 C 
ATOM     10  O   UNL     1       0.494  -6.580   1.347  0.00  0.00    -0.277 OA
ATOM     11  H   UNL     1       1.825  -7.451   3.423  0.00  0.00    +0.155 HD
ENDROOT
BRANCH   1  12
ATOM     12  N   UNL     1       2.213  -4.147   0.857  0.00  0.00    +0.394 N 
ATOM     13  H   UNL     1       2.957  -3.576   0.487  0.00  0.00    -0.083 HD
ATOM     14  H   UNL     1       1.963  -3.819   1.778  0.00  0.00    -0.083 HD
BRANCH  12  15
ATOM     15  C   UNL     1       1.043  -4.062  -0.027  0.00  0.00    -0.036 C 
ATOM     16  C   UNL     1       1.452  -4.441  -1.452  0.00  0.00    -0.008 C 
BRANCH  15  21
ATOM     17  C   UNL     1      -0.018   1.503   0.010  0.00  0.00    +0.051 C 
ATOM     18  C   UNL     1       0.002  -0.004   0.002  0.00  0.00    -0.013 A 
ATOM     19  C   UNL     1      -1.039  -0.872   0.002  0.00  0.00    +0.011 A 
ATOM     20  C   UNL     1      -0.780  -2.230  -0.007  0.00  0.00    +0.010 A 
ATOM     21  C   UNL     1       0.507  -2.653  -0.016  0.00  0.00    -0.024 A 
ATOM     22  S   UNL     1       1.404  -1.109  -0.018  0.00  0.00    -0.100 S 
ENDBRANCH  15  21
ENDBRANCH  12  15
ENDBRANCH   1  12
BRANCH   5  23
ATOM     23  O   UNL     1       6.780  -6.472   4.625  0.00  0.00    -0.495 OA
ATOM     24  C   UNL     1       8.070  -5.888   4.430  0.00  0.00    +0.277 C 
ENDBRANCH   5  23
TORSDOF 4
