REMARK  Name = ZINC26028851
REMARK  6 active torsions:
REMARK  status: ('A' for Active; 'I' for Inactive)
REMARK    1  A    between atoms: C_1  and  C_2
REMARK    2  A    between atoms: C_6  and  S_8
REMARK    3  A    between atoms: S_8  and  C_9
REMARK    4  A    between atoms: C_9  and  C_16
REMARK    5  A    between atoms: C_16  and  C_17
REMARK    6  A    between atoms: C_18  and  C_19
REMARK                            x       y       z     vdW  Elec       q    Type
REMARK                         _______ _______ _______ _____ _____    ______ ____
ROOT
ATOM      1  C   UNL     1       4.344   6.774  -0.004  0.00  0.00    +0.163 C 
ATOM      2  C   UNL     1       5.623   7.599  -0.013  0.00  0.00    +0.248 C 
ATOM      3  O   UNL     1       6.434   7.546   0.887  0.00  0.00    -0.273 OA
ATOM      4  N   UNL     1       5.788   8.378  -1.068  0.00  0.00    -0.245 N 
ATOM      5  C   UNL     1       4.902   8.453  -2.078  0.00  0.00    +0.280 C 
ATOM      6  O   UNL     1       4.965   9.135  -3.083  0.00  0.00    -0.263 OA
ATOM      7  S   UNL     1       3.608   7.318  -1.597  0.00  0.00    -0.039 S 
ATOM      8  H   UNL     1       6.686   9.007  -1.152  0.00  0.00    +0.158 HD
ENDROOT
BRANCH   1   9
ATOM      9  S   UNL     1       3.283   7.215   1.399  0.00  0.00    -0.077 S 
BRANCH   9  15
ATOM     10  C   UNL     1       3.805  11.495  -1.339  0.00  0.00    +0.065 C 
ATOM     11  C   UNL     1       3.205  10.829  -0.128  0.00  0.00    +0.039 A 
ATOM     12  C   UNL     1       2.414  11.564   0.733  0.00  0.00    +0.023 A 
ATOM     13  C   UNL     1       1.863  10.946   1.847  0.00  0.00    +0.004 A 
ATOM     14  C   UNL     1       2.129   9.604   2.057  0.00  0.00    +0.035 A 
ATOM     15  C   UNL     1       2.934   8.924   1.148  0.00  0.00    +0.099 A 
ATOM     16  N   UNL     1       3.446   9.552   0.100  0.00  0.00    -0.246 NA
ENDBRANCH   9  15
ENDBRANCH   1   9
BRANCH   1  17
ATOM     17  C   UNL     1       4.649   5.274  -0.015  0.00  0.00    +0.128 C 
BRANCH  17  18
ATOM     18  C   UNL     1       3.387   4.517  -0.007  0.00  0.00    -0.094 C 
ATOM     19  C   UNL     1       2.381   3.913  -0.000  0.00  0.00    -0.066 C 
BRANCH  19  20
ATOM     20  C   UNL     1       1.153   3.176   0.008  0.00  0.00    +0.025 A 
ATOM     21  C   UNL     1       1.173   1.780   0.000  0.00  0.00    +0.018 A 
ATOM     22  C   UNL     1      -0.013   1.076   0.008  0.00  0.00    +0.021 A 
ATOM     23  C   UNL     1      -1.222   1.750   0.017  0.00  0.00    +0.041 A 
ATOM     24  C   UNL     1      -1.248   3.135   0.031  0.00  0.00    +0.021 A 
ATOM     25  C   UNL     1      -0.069   3.850   0.023  0.00  0.00    +0.018 A 
ATOM     26 CL   UNL     1      -2.710   0.857   0.020  0.00  0.00    -0.084 Cl
ENDBRANCH  19  20
ENDBRANCH  17  18
ENDBRANCH   1  17
TORSDOF 5
