REMARK  Name = ZINC21486797
REMARK  8 active torsions:
REMARK  status: ('A' for Active; 'I' for Inactive)
REMARK    1  A    between atoms: C_4  and  C_7
REMARK    2  A    between atoms: C_7  and  N_8
REMARK    3  A    between atoms: N_8  and  C_9
REMARK    4  A    between atoms: C_9  and  C_11
REMARK    5  A    between atoms: C_9  and  N_15
REMARK    6  A    between atoms: C_16  and  C_18
REMARK    7  A    between atoms: C_18  and  C_20
REMARK    8  A    between atoms: C_18  and  C_26
REMARK                            x       y       z     vdW  Elec       q    Type
REMARK                         _______ _______ _______ _____ _____    ______ ____
ROOT
ATOM      1  N   UNL     1       5.168  -3.051  -1.861  0.00  0.00    -0.295 N 
ATOM      2  C   UNL     1       5.250  -4.023  -0.930  0.00  0.00    +0.226 C 
ATOM      3  O   UNL     1       5.519  -3.741   0.219  0.00  0.00    -0.275 OA
ATOM      4  H   UNL     1       4.924  -3.307  -2.902  0.00  0.00    +0.150 HD
ENDROOT
BRANCH   1   5
ATOM      5  C   UNL     1       5.406  -1.655  -1.485  0.00  0.00    +0.193 C 
BRANCH   5   6
ATOM      6  C   UNL     1       6.315  -0.995  -2.524  0.00  0.00    +0.222 C 
ATOM      7 CL   UNL     1       6.607   0.723  -2.062  0.00  0.00    -0.080 Cl
ATOM      8 CL   UNL     1       7.887  -1.875  -2.592  0.00  0.00    -0.080 Cl
ATOM      9 CL   UNL     1       5.521  -1.056  -4.142  0.00  0.00    -0.080 Cl
ENDBRANCH   5   6
BRANCH   5  10
ATOM     10  N   UNL     1       4.125  -0.939  -1.429  0.00  0.00    -0.291 NA
ATOM     11  H   UNL     1       3.361  -1.541  -1.943  0.00  0.00    +0.124 HD
BRANCH  10  12
ATOM     12  C   UNL     1       3.711  -0.707  -0.039  0.00  0.00    +0.118 C 
BRANCH  12  16
ATOM     13  C   UNL     1      -0.017   1.378   0.010  0.00  0.00    +0.000 A 
ATOM     14  C   UNL     1       1.171   2.086   0.002  0.00  0.00    +0.000 A 
ATOM     15  C   UNL     1       2.377   1.411  -0.014  0.00  0.00    +0.005 A 
ATOM     16  C   UNL     1       2.396   0.029  -0.022  0.00  0.00    -0.034 A 
ATOM     17  C   UNL     1       1.208  -0.679  -0.014  0.00  0.00    +0.005 A 
ATOM     18  C   UNL     1       0.002  -0.004   0.002  0.00  0.00    +0.000 A 
ENDBRANCH  12  16
ENDBRANCH  10  12
ENDBRANCH   5  10
ENDBRANCH   1   5
BRANCH   2  19
ATOM     19  C   UNL     1       5.006  -5.459  -1.316  0.00  0.00    +0.134 C 
BRANCH  19  20
ATOM     20  C   UNL     1       6.006  -5.874  -2.364  0.00  0.00    -0.031 A 
ATOM     21  C   UNL     1       7.359  -5.823  -2.087  0.00  0.00    +0.005 A 
ATOM     22  C   UNL     1       8.276  -6.208  -3.046  0.00  0.00    +0.000 A 
ATOM     23  C   UNL     1       7.841  -6.635  -4.287  0.00  0.00    +0.000 A 
ATOM     24  C   UNL     1       6.488  -6.681  -4.566  0.00  0.00    +0.000 A 
ATOM     25  C   UNL     1       5.570  -6.300  -3.605  0.00  0.00    +0.005 A 
ENDBRANCH  19  20
BRANCH  19  26
ATOM     26  C   UNL     1       5.156  -6.338  -0.102  0.00  0.00    -0.035 C 
ATOM     27  C   UNL     1       4.135  -7.079   0.316  0.00  0.00    -0.022 C 
ATOM     28  C   UNL     1       4.284  -7.957   1.530  0.00  0.00    +0.031 C 
ATOM     29  C   UNL     1       5.704  -8.517   1.597  0.00  0.00    +0.031 C 
ATOM     30  C   UNL     1       6.703  -7.403   1.431  0.00  0.00    -0.026 C 
ATOM     31  C   UNL     1       6.437  -6.385   0.623  0.00  0.00    -0.000 C 
ENDBRANCH  19  26
ENDBRANCH   2  19
TORSDOF 8
