REMARK  Name = ZINC32619963
REMARK  5 active torsions:
REMARK  status: ('A' for Active; 'I' for Inactive)
REMARK    1  A    between atoms: C_1  and  C_2
REMARK    2  A    between atoms: C_5  and  N_8
REMARK    3  A    between atoms: N_8  and  C_9
REMARK    4  A    between atoms: N_8  and  S_17
REMARK    5  A    between atoms: S_17  and  C_19
REMARK                            x       y       z     vdW  Elec       q    Type
REMARK                         _______ _______ _______ _____ _____    ______ ____
ROOT
ATOM      1  N   UNL     1       1.364   1.587  -0.002  0.00  0.00    -0.238 N 
ENDROOT
BRANCH   1   6
ATOM      2  C   UNL     1       2.352   7.152  -0.470  0.00  0.00    +0.044 C 
ATOM      3  C   UNL     1       2.089   5.673  -0.346  0.00  0.00    -0.050 A 
ATOM      4  C   UNL     1       2.705   4.945   0.655  0.00  0.00    +0.005 A 
ATOM      5  C   UNL     1       2.466   3.590   0.772  0.00  0.00    +0.024 A 
ATOM      6  C   UNL     1       1.607   2.958  -0.118  0.00  0.00    +0.043 A 
ATOM      7  C   UNL     1       0.994   3.691  -1.126  0.00  0.00    +0.024 A 
ATOM      8  C   UNL     1       1.233   5.047  -1.234  0.00  0.00    +0.005 A 
ENDBRANCH   1   6
BRANCH   1   9
ATOM      9  C   UNL     1       0.028   1.108   0.361  0.00  0.00    +0.133 C 
ATOM     10  C   UNL     1      -0.409   1.772   1.694  0.00  0.00    +0.198 C 
ATOM     11  S   UNL     1      -2.203   1.973   1.335  0.00  0.00    -0.008 S 
ATOM     12  O   UNL     1      -2.642   3.288   1.649  0.00  0.00    -0.170 OA
ATOM     13  O   UNL     1      -2.938   0.828   1.743  0.00  0.00    -0.170 OA
ATOM     14  C   UNL     1      -2.125   1.896  -0.445  0.00  0.00    +0.132 C 
ATOM     15  C   UNL     1      -0.932   1.448  -0.734  0.00  0.00    +0.017 C 
ENDBRANCH   1   9
BRANCH   1  16
ATOM     16  S   UNL     1       2.586   0.504  -0.276  0.00  0.00    +0.146 S 
ATOM     17  O   UNL     1       3.442   0.659   0.847  0.00  0.00    -0.232 OA
BRANCH  16  18
ATOM     18  C   UNL     1       1.828  -1.067  -0.021  0.00  0.00    +0.058 A 
ATOM     19  C   UNL     1       1.230  -1.723  -1.095  0.00  0.00    +0.019 A 
ATOM     20  C   UNL     1       0.637  -2.937  -0.932  0.00  0.00    +0.010 A 
ATOM     21  C   UNL     1       0.625  -3.540   0.337  0.00  0.00    -0.018 A 
ATOM     22  C   UNL     1       0.022  -4.793   0.544  0.00  0.00    +0.008 A 
ATOM     23  C   UNL     1       0.030  -5.346   1.788  0.00  0.00    +0.001 A 
ATOM     24  C   UNL     1       0.629  -4.690   2.862  0.00  0.00    +0.001 A 
ATOM     25  C   UNL     1       1.222  -3.476   2.699  0.00  0.00    +0.008 A 
ATOM     26  C   UNL     1       1.234  -2.873   1.429  0.00  0.00    -0.017 A 
ATOM     27  C   UNL     1       1.841  -1.623   1.221  0.00  0.00    +0.027 A 
ENDBRANCH  16  18
ENDBRANCH   1  16
TORSDOF 4
