REMARK  Name = ZINC04908858
REMARK  12 active torsions:
REMARK  status: ('A' for Active; 'I' for Inactive)
REMARK    1  A    between atoms: C_1  and  C_2
REMARK    2  A    between atoms: C_2  and  O_3
REMARK    3  A    between atoms: O_3  and  C_4
REMARK    4  A    between atoms: C_6  and  C_11
REMARK    5  A    between atoms: C_9  and  O_10
REMARK    6  A    between atoms: C_18  and  O_19
REMARK    7  A    between atoms: C_21  and  C_30
REMARK    8  A    between atoms: C_21  and  O_31
REMARK    9  A    between atoms: C_22  and  C_24
REMARK   10  A    between atoms: C_24  and  O_26
REMARK   11  A    between atoms: O_26  and  C_27
REMARK   12  A    between atoms: C_27  and  C_28
REMARK                            x       y       z     vdW  Elec       q    Type
REMARK                         _______ _______ _______ _____ _____    ______ ____
ROOT
ATOM      1  C   UNL     1       0.077   1.247   0.184  0.00  0.00    +0.073 C 
ATOM      2  C   UNL     1      -0.611   1.757   1.426  0.00  0.00    +0.044 A 
ATOM      3  C   UNL     1      -0.290   2.917   2.052  0.00  0.00    +0.046 A 
ATOM      4  N   UNL     1      -1.100   3.049   3.116  0.00  0.00    -0.278 N 
ATOM      5  H   UNL     1      -1.095   3.807   3.769  0.00  0.00    +0.189 HD
ATOM      6  N   UNL     1      -1.952   1.936   3.151  0.00  0.00    -0.136 NA
ATOM      7  C   UNL     1      -1.657   1.160   2.134  0.00  0.00    +0.235 A 
ATOM      8  C   UNL     1       0.795   3.856   1.589  0.00  0.00    +0.090 C 
ATOM      9  C   UNL     1       1.150   3.508   0.138  0.00  0.00    +0.082 C 
ATOM     10  C   UNL     1       1.402   2.002   0.021  0.00  0.00    +0.141 C 
ATOM     11  C   UNL     1       2.411   4.270  -0.275  0.00  0.00    +0.042 C 
ENDROOT
BRANCH   1  14
ATOM     12  C   UNL     1       0.068  -2.474  -0.468  0.00  0.00    +0.162 A 
ATOM     13  C   UNL     1      -0.180  -1.117  -0.594  0.00  0.00    +0.053 A 
ATOM     14  C   UNL     1       0.348  -0.229   0.324  0.00  0.00    -0.035 A 
ATOM     15  C   UNL     1       1.130  -0.691   1.366  0.00  0.00    +0.008 A 
ATOM     16  C   UNL     1       1.377  -2.044   1.502  0.00  0.00    +0.049 A 
ATOM     17  C   UNL     1       0.850  -2.940   0.585  0.00  0.00    +0.158 A 
BRANCH  17  18
ATOM     18  O   UNL     1       1.096  -4.271   0.714  0.00  0.00    -0.503 OA
ATOM     19  H   UNL     1       1.891  -4.571   0.252  0.00  0.00    +0.292 HD
ENDBRANCH  17  18
BRANCH  12  20
ATOM     20  O   UNL     1      -0.452  -3.349  -1.370  0.00  0.00    -0.489 OA
BRANCH  20  22
ATOM     21  C   UNL     1      -1.739  -3.928  -3.332  0.00  0.00    +0.048 C 
ATOM     22  C   UNL     1      -1.245  -2.800  -2.424  0.00  0.00    +0.226 C 
ENDBRANCH  20  22
ENDBRANCH  12  20
ENDBRANCH   1  14
BRANCH   7  23
ATOM     23  O   UNL     1      -2.264  -0.017   1.823  0.00  0.00    -0.491 OA
ATOM     24  H   UNL     1      -2.979  -0.210   2.494  0.00  0.00    +0.294 HD
ENDBRANCH   7  23
BRANCH  10  25
ATOM     25  C   UNL     1       1.991   1.696  -1.332  0.00  0.00    +0.314 C 
ATOM     26  O   UNL     1       1.267   1.550  -2.288  0.00  0.00    -0.250 OA
BRANCH  25  27
ATOM     27  O   UNL     1       3.321   1.585  -1.475  0.00  0.00    -0.460 OA
BRANCH  27  28
ATOM     28  C   UNL     1       3.819   1.288  -2.806  0.00  0.00    +0.259 C 
BRANCH  28  29
ATOM     29  C   UNL     1       5.323   1.201  -2.773  0.00  0.00    +0.006 C 
ATOM     30  C   UNL     1       5.936   0.221  -3.389  0.00  0.00    +0.007 C 
ENDBRANCH  28  29
ENDBRANCH  27  28
ENDBRANCH  25  27
ENDBRANCH  10  25
BRANCH   9  31
ATOM     31  O   UNL     1       0.068   3.878  -0.718  0.00  0.00    -0.388 OA
ATOM     32  H   UNL     1      -0.148   4.820  -0.695  0.00  0.00    +0.210 HD
ENDBRANCH   9  31
TORSDOF 10
