REMARK  Name = ZINC53479548
REMARK  5 active torsions:
REMARK  status: ('A' for Active; 'I' for Inactive)
REMARK    1  A    between atoms: C_1  and  C_2
REMARK    2  A    between atoms: C_5  and  C_8
REMARK    3  A    between atoms: C_11  and  S_14
REMARK    4  A    between atoms: S_14  and  C_15
REMARK    5  A    between atoms: C_15  and  C_16
REMARK                            x       y       z     vdW  Elec       q    Type
REMARK                         _______ _______ _______ _____ _____    ______ ____
ROOT
ATOM      1  S   UNL     1       0.114  -7.696   1.777  0.00  0.00    -0.077 S 
ENDROOT
BRANCH   1   5
ATOM      2  C   UNL     1       0.059  -4.256  -0.021  0.00  0.00    +0.182 A 
ATOM      3  N   UNL     1       0.075  -5.042   1.065  0.00  0.00    -0.201 NA
ATOM      4  H   UNL     1       0.091  -7.142  -1.209  0.00  0.00    +0.191 HD
ATOM      5  C   UNL     1       0.089  -6.304   0.698  0.00  0.00    +0.185 A 
ATOM      6  N   UNL     1       0.083  -6.347  -0.653  0.00  0.00    -0.253 N 
ATOM      7  N   UNL     1       0.058  -5.014  -1.094  0.00  0.00    -0.152 NA
BRANCH   2  12
ATOM      8  C   UNL     1      -0.018   1.503   0.010  0.00  0.00    +0.044 C 
ATOM      9  C   UNL     1       0.002  -0.004   0.002  0.00  0.00    -0.050 A 
ATOM     10  C   UNL     1       0.006  -0.686  -1.201  0.00  0.00    +0.004 A 
ATOM     11  C   UNL     1       0.024  -2.067  -1.215  0.00  0.00    +0.012 A 
ATOM     12  C   UNL     1       0.040  -2.772  -0.013  0.00  0.00    +0.021 A 
ATOM     13  C   UNL     1       0.036  -2.080   1.196  0.00  0.00    +0.012 A 
ATOM     14  C   UNL     1       0.023  -0.700   1.198  0.00  0.00    +0.004 A 
ENDBRANCH   2  12
ENDBRANCH   1   5
BRANCH   1  15
ATOM     15  C   UNL     1       0.112  -6.965   3.437  0.00  0.00    +0.173 C 
BRANCH  15  16
ATOM     16  C   UNL     1       0.132  -8.062   4.470  0.00  0.00    +0.229 C 
ATOM     17  O   UNL     1       0.146  -9.223   4.121  0.00  0.00    -0.275 OA
ATOM     18  N   UNL     1       0.135  -7.753   5.782  0.00  0.00    -0.264 N 
ATOM     19  C   UNL     1       0.153  -8.765   6.734  0.00  0.00    +0.165 A 
ATOM     20  N   UNL     1       0.175 -10.061   6.546  0.00  0.00    -0.229 NA
ATOM     21  C   UNL     1       0.192 -10.928   7.568  0.00  0.00    +0.054 A 
ATOM     22  C   UNL     1       0.182 -10.358   8.795  0.00  0.00    +0.014 A 
ATOM     23  S   UNL     1       0.160  -8.624   8.412  0.00  0.00    -0.057 S 
ATOM     24  C   UNL     1       0.197 -11.379   9.892  0.00  0.00    +0.045 C 
ATOM     25  C   UNL     1      -0.212 -12.700   9.202  0.00  0.00    +0.011 C 
ATOM     26  C   UNL     1       0.224 -12.444   7.745  0.00  0.00    +0.056 C 
ATOM     27  H   UNL     1       0.124  -6.824   6.061  0.00  0.00    +0.157 HD
ENDBRANCH  15  16
ENDBRANCH   1  15
TORSDOF 4
