REMARK  Name = ZINC07393083
REMARK  9 active torsions:
REMARK  status: ('A' for Active; 'I' for Inactive)
REMARK    1  A    between atoms: C_1  and  C_2
REMARK    2  A    between atoms: C_2  and  C_3
REMARK    3  A    between atoms: C_2  and  S_4
REMARK    4  A    between atoms: S_4  and  C_5
REMARK    5  A    between atoms: N_19  and  C_20
REMARK    6  A    between atoms: C_23  and  O_28
REMARK    7  A    between atoms: C_24  and  O_26
REMARK    8  A    between atoms: O_26  and  C_27
REMARK    9  A    between atoms: O_28  and  C_29
REMARK                            x       y       z     vdW  Elec       q    Type
REMARK                         _______ _______ _______ _____ _____    ______ ____
ROOT
ATOM      1  C   UNL     1      -1.082   3.064   0.707  0.00  0.00    +0.177 A 
ATOM      2  N   UNL     1       0.034   3.757   0.724  0.00  0.00    -0.221 NA
ATOM      3  C   UNL     1       1.124   3.331   0.065  0.00  0.00    +0.104 A 
ATOM      4  C   UNL     1       2.482   3.868  -0.102  0.00  0.00    +0.026 A 
ATOM      5  C   UNL     1       3.127   5.014   0.364  0.00  0.00    +0.012 A 
ATOM      6  C   UNL     1       4.432   5.245   0.029  0.00  0.00    +0.001 A 
ATOM      7  C   UNL     1       5.122   4.347  -0.772  0.00  0.00    +0.002 A 
ATOM      8  C   UNL     1       4.505   3.209  -1.243  0.00  0.00    +0.026 A 
ATOM      9  C   UNL     1       3.176   2.954  -0.914  0.00  0.00    +0.049 A 
ATOM     10  N   UNL     1       2.319   1.922  -1.233  0.00  0.00    -0.349 N 
ATOM     11  H   UNL     1       2.550   1.159  -1.785  0.00  0.00    +0.166 HD
ATOM     12  C   UNL     1       1.080   2.136  -0.650  0.00  0.00    +0.132 A 
ATOM     13  C   UNL     1      -0.124   1.402  -0.661  0.00  0.00    +0.283 A 
ATOM     14  O   UNL     1      -0.207   0.350  -1.274  0.00  0.00    -0.265 OA
ATOM     15  N   UNL     1      -1.185   1.889   0.018  0.00  0.00    -0.254 N 
ENDROOT
BRANCH  15  16
ATOM     16  C   UNL     1      -2.396   1.183   0.020  0.00  0.00    +0.056 A 
ATOM     17  C   UNL     1      -3.350   1.438  -0.956  0.00  0.00    +0.030 A 
ATOM     18  C   UNL     1      -4.542   0.739  -0.958  0.00  0.00    +0.051 A 
ATOM     19  C   UNL     1      -4.792  -0.210   0.020  0.00  0.00    +0.162 A 
ATOM     20  C   UNL     1      -3.840  -0.465   1.003  0.00  0.00    +0.163 A 
ATOM     21  C   UNL     1      -2.643   0.232   1.001  0.00  0.00    +0.075 A 
BRANCH  20  22
ATOM     22  O   UNL     1      -4.084  -1.396   1.963  0.00  0.00    -0.491 OA
ATOM     23  C   UNL     1      -3.062  -1.605   2.939  0.00  0.00    +0.277 C 
ENDBRANCH  20  22
BRANCH  19  24
ATOM     24  O   UNL     1      -5.968  -0.894   0.020  0.00  0.00    -0.491 OA
ATOM     25  C   UNL     1      -6.900  -0.582  -1.018  0.00  0.00    +0.277 C 
ENDBRANCH  19  24
ENDBRANCH  15  16
BRANCH   1  26
ATOM     26  S   UNL     1      -2.483   3.668   1.589  0.00  0.00    -0.084 S 
BRANCH  26  28
ATOM     27  C   UNL     1      -2.889   5.975   2.996  0.00  0.00    +0.019 C 
ATOM     28  C   UNL     1      -1.790   5.195   2.271  0.00  0.00    +0.048 C 
ATOM     29  C   UNL     1      -0.673   4.851   3.258  0.00  0.00    +0.019 C 
ENDBRANCH  26  28
ENDBRANCH   1  26
TORSDOF 5
