REMARK  Name = ZINC64562425
REMARK  6 active torsions:
REMARK  status: ('A' for Active; 'I' for Inactive)
REMARK    1  A    between atoms: C_1  and  N_2
REMARK    2  A    between atoms: C_10  and  N_12
REMARK    3  A    between atoms: N_15  and  C_16
REMARK    4  A    between atoms: N_15  and  C_17
REMARK    5  A    between atoms: C_17  and  C_18
REMARK    6  A    between atoms: C_21  and  C_24
REMARK                            x       y       z     vdW  Elec       q    Type
REMARK                         _______ _______ _______ _____ _____    ______ ____
ROOT
ATOM      1  N   UNL     1       4.954  -2.520  -0.432  0.00  0.00    -0.269 N 
ATOM      2  C   UNL     1       6.056  -1.791  -0.700  0.00  0.00    +0.306 C 
ATOM      3  O   UNL     1       5.983  -0.579  -0.757  0.00  0.00    -0.252 OA
ATOM      4  N   UNL     1       7.238  -2.405  -0.904  0.00  0.00    -0.284 N 
ATOM      5  C   UNL     1       7.325  -3.866  -0.835  0.00  0.00    +0.134 C 
ATOM      6  H   UNL     1       5.024  -3.482  -0.321  0.00  0.00    +0.156 HD
ENDROOT
BRANCH   1  16
ATOM      7  C   UNL     1      -0.130   1.178   0.903  0.00  0.00    +0.129 C 
ATOM      8  N   UNL     1       0.005  -0.006   0.051  0.00  0.00    -0.333 N 
ATOM      9  C   UNL     1      -1.153  -0.533  -0.684  0.00  0.00    +0.105 C 
ATOM     10  C   UNL     1      -1.160  -2.058  -0.516  0.00  0.00    +0.024 C 
ATOM     11  C   UNL     1       0.103  -2.631  -1.159  0.00  0.00    +0.038 C 
ATOM     12  C   UNL     1       1.326  -1.914  -0.649  0.00  0.00    -0.025 A 
ATOM     13  C   UNL     1       1.242  -0.651  -0.081  0.00  0.00    +0.033 A 
ATOM     14  C   UNL     1       2.390  -0.010   0.371  0.00  0.00    +0.025 A 
ATOM     15  C   UNL     1       3.619  -0.627   0.256  0.00  0.00    +0.025 A 
ATOM     16  C   UNL     1       3.708  -1.890  -0.315  0.00  0.00    +0.035 A 
ATOM     17  C   UNL     1       2.559  -2.534  -0.759  0.00  0.00    +0.028 A 
ENDBRANCH   1  16
BRANCH   4  18
ATOM     18  C   UNL     1       8.435  -1.613  -1.194  0.00  0.00    +0.144 C 
BRANCH  18  19
ATOM     19  C   UNL     1       9.128  -1.258   0.096  0.00  0.00    -0.030 A 
ATOM     20  C   UNL     1       8.791  -0.092   0.760  0.00  0.00    +0.006 A 
ATOM     21  C   UNL     1       9.422   0.239   1.942  0.00  0.00    +0.019 A 
ATOM     22  C   UNL     1      10.402  -0.606   2.467  0.00  0.00    +0.052 A 
ATOM     23  C   UNL     1      10.736  -1.781   1.791  0.00  0.00    +0.019 A 
ATOM     24  C   UNL     1      10.094  -2.102   0.613  0.00  0.00    +0.006 A 
BRANCH  22  25
ATOM     25  C   UNL     1      11.061  -0.269   3.693  0.00  0.00    +0.099 C 
ATOM     26  N   UNL     1      11.584  -0.001   4.665  0.00  0.00    -0.191 NA
ENDBRANCH  22  25
ENDBRANCH  18  19
ENDBRANCH   4  18
TORSDOF 4
