REMARK  Name = ZINC28670104
REMARK  8 active torsions:
REMARK  status: ('A' for Active; 'I' for Inactive)
REMARK    1  A    between atoms: C_1  and  C_2
REMARK    2  A    between atoms: C_2  and  C_4
REMARK    3  A    between atoms: C_2  and  O_17
REMARK    4  A    between atoms: N_6  and  C_7
REMARK    5  A    between atoms: C_9  and  N_14
REMARK    6  A    between atoms: O_17  and  C_18
REMARK    7  A    between atoms: C_18  and  C_20
REMARK    8  A    between atoms: C_25  and  O_26
REMARK                            x       y       z     vdW  Elec       q    Type
REMARK                         _______ _______ _______ _____ _____    ______ ____
ROOT
ATOM      1  C   UNL     1      -6.890  -0.538  -1.496  0.00  0.00    +0.062 C 
ATOM      2  C   UNL     1      -6.191  -0.911  -0.187  0.00  0.00    +0.259 C 
ENDROOT
BRANCH   2   3
ATOM      3  C   UNL     1      -4.894  -0.151  -0.076  0.00  0.00    +0.258 C 
ATOM      4  O   UNL     1      -3.838  -0.748  -0.085  0.00  0.00    -0.271 OA
ATOM      5  N   UNL     1      -4.908   1.192   0.032  0.00  0.00    -0.281 N 
ATOM      6  H   UNL     1      -5.864   1.726   0.132  0.00  0.00    +0.155 HD
BRANCH   5   7
ATOM      7  C   UNL     1      -3.704   1.908   0.019  0.00  0.00    +0.054 A 
ATOM      8  C   UNL     1      -2.582   1.370  -0.597  0.00  0.00    +0.057 A 
ATOM      9  C   UNL     1      -1.396   2.078  -0.609  0.00  0.00    +0.128 A 
ATOM     10  C   UNL     1      -1.324   3.319  -0.002  0.00  0.00    +0.034 A 
ATOM     11  C   UNL     1      -2.441   3.860   0.608  0.00  0.00    +0.024 A 
ATOM     12  C   UNL     1      -3.631   3.157   0.623  0.00  0.00    +0.062 A 
ATOM     13 CL   UNL     1      -5.031   3.834   1.394  0.00  0.00    -0.082 Cl
BRANCH   9  14
ATOM     14  N   UNL     1      -0.200   1.506  -1.265  0.00  0.00    +0.056 N 
ATOM     15  O   UNL     1      -0.262   0.411  -1.795  0.00  0.00    -0.126 OA
ATOM     16  O   UNL     1       0.845   2.131  -1.280  0.00  0.00    -0.126 OA
ENDBRANCH   9  14
ENDBRANCH   5   7
ENDBRANCH   2   3
BRANCH   2  17
ATOM     17  O   UNL     1      -5.918  -2.337  -0.173  0.00  0.00    -0.449 OA
BRANCH  17  18
ATOM     18  C   UNL     1      -6.871  -3.137   0.346  0.00  0.00    +0.343 C 
ATOM     19  O   UNL     1      -7.901  -2.655   0.776  0.00  0.00    -0.245 OA
BRANCH  18  20
ATOM     20  C   UNL     1      -6.663  -4.595   0.394  0.00  0.00    +0.101 A 
ATOM     21  C   UNL     1      -5.480  -5.153  -0.099  0.00  0.00    +0.034 A 
ATOM     22  C   UNL     1      -5.293  -6.518  -0.051  0.00  0.00    +0.019 A 
ATOM     23  C   UNL     1      -6.272  -7.340   0.484  0.00  0.00    +0.019 A 
ATOM     24  C   UNL     1      -7.445  -6.802   0.974  0.00  0.00    +0.047 A 
ATOM     25  C   UNL     1      -7.649  -5.430   0.939  0.00  0.00    +0.131 A 
ATOM     26 BR   UNL     1      -3.692  -7.272  -0.718  0.00  0.00    -0.050 Br
BRANCH  25  27
ATOM     27  O   UNL     1      -8.799  -4.899   1.425  0.00  0.00    -0.506 OA
ATOM     28  H   UNL     1      -9.570  -5.557   1.852  0.00  0.00    +0.292 HD
ENDBRANCH  25  27
ENDBRANCH  18  20
ENDBRANCH  17  18
ENDBRANCH   2  17
TORSDOF 7
