REMARK  Name = ZINC38975666
REMARK  4 active torsions:
REMARK  status: ('A' for Active; 'I' for Inactive)
REMARK    1  A    between atoms: N_7  and  S_8
REMARK    2  A    between atoms: S_8  and  C_11
REMARK    3  A    between atoms: C_16  and  N_21
REMARK    4  A    between atoms: N_21  and  C_22
REMARK                            x       y       z     vdW  Elec       q    Type
REMARK                         _______ _______ _______ _____ _____    ______ ____
ROOT
ATOM      1  C   UNL     1       0.573   1.430  -0.702  0.00  0.00    +0.002 A 
ATOM      2  C   UNL     1       1.793   2.108  -0.541  0.00  0.00    +0.002 A 
ATOM      3  C   UNL     1       2.960   1.468  -0.314  0.00  0.00    +0.028 A 
ATOM      4  C   UNL     1       2.996   0.053  -0.227  0.00  0.00    +0.064 A 
ATOM      5  N   UNL     1       4.137  -0.566  -0.005  0.00  0.00    -0.338 N 
ATOM      6  C   UNL     1       4.206  -1.904   0.083  0.00  0.00    +0.170 C 
ATOM      7  N   UNL     1       5.345  -2.493   0.303  0.00  0.00    -0.111 NA
ATOM      8  C   UNL     1       2.941  -2.717  -0.078  0.00  0.00    +0.235 C 
ATOM      9  N   UNL     1       1.685  -1.991  -0.325  0.00  0.00    -0.359 N 
ATOM     10  C   UNL     1       1.722  -0.689  -0.393  0.00  0.00    +0.061 A 
ATOM     11  C   UNL     1       0.495   0.083  -0.637  0.00  0.00    +0.027 A 
ATOM     12  H   UNL     1       0.849  -2.470  -0.434  0.00  0.00    +0.162 HD
ATOM     13  H   UNL     1       4.947  -0.043   0.098  0.00  0.00    +0.167 HD
ENDROOT
BRANCH   7  14
ATOM     14  S   UNL     1       6.723  -1.591   0.477  0.00  0.00    +0.107 S 
ATOM     15  O   UNL     1       6.970  -0.979  -0.781  0.00  0.00    -0.146 OA
ATOM     16  O   UNL     1       6.567  -0.839   1.673  0.00  0.00    -0.146 OA
BRANCH  14  17
ATOM     17  C   UNL     1       8.049  -2.716   0.758  0.00  0.00    +0.150 A 
ATOM     18  C   UNL     1       8.866  -3.316  -0.142  0.00  0.00    +0.037 A 
ATOM     19  C   UNL     1       9.851  -4.172   0.312  0.00  0.00    +0.010 A 
ATOM     20  C   UNL     1       9.972  -4.387   1.645  0.00  0.00    +0.047 A 
ATOM     21  S   UNL     1       8.672  -3.356   2.304  0.00  0.00    -0.076 S 
ENDBRANCH  14  17
ENDBRANCH   7  14
BRANCH   8  22
ATOM     22  N   UNL     1       2.764  -3.514   1.138  0.00  0.00    -0.318 N 
ATOM     23  H   UNL     1       2.909  -3.110   2.008  0.00  0.00    +0.148 HD
BRANCH  22  24
ATOM     24  C   UNL     1       2.387  -4.856   1.045  0.00  0.00    +0.030 A 
ATOM     25  C   UNL     1       2.034  -5.396  -0.186  0.00  0.00    +0.023 A 
ATOM     26  C   UNL     1       1.662  -6.722  -0.275  0.00  0.00    +0.003 A 
ATOM     27  C   UNL     1       1.640  -7.514   0.859  0.00  0.00    +0.015 A 
ATOM     28  C   UNL     1       1.991  -6.980   2.086  0.00  0.00    +0.020 A 
ATOM     29  C   UNL     1       2.370  -5.654   2.181  0.00  0.00    +0.038 A 
ATOM     30 BR   UNL     1       1.959  -8.066   3.634  0.00  0.00    -0.050 Br
ENDBRANCH  22  24
ENDBRANCH   8  22
TORSDOF 4
