REMARK  Name = ZINC05948937
REMARK  2 active torsions:
REMARK  status: ('A' for Active; 'I' for Inactive)
REMARK    1  A    between atoms: C_8  and  C_12
REMARK    2  A    between atoms: C_21  and  C_24
REMARK                            x       y       z     vdW  Elec       q    Type
REMARK                         _______ _______ _______ _____ _____    ______ ____
ROOT
ATOM      1  C   UNL     1      -4.933   3.842   0.048  0.00  0.00    +0.057 C 
ATOM      2  N   UNL     1      -5.934   3.110  -0.054  0.00  0.00    -0.250 NA
ATOM      3  C   UNL     1      -7.255   3.109  -0.221  0.00  0.00    +0.078 A 
ATOM      4  C   UNL     1      -7.827   1.829  -0.410  0.00  0.00    +0.029 A 
ATOM      5  C   UNL     1      -9.170   1.669  -0.639  0.00  0.00    +0.002 A 
ATOM      6  C   UNL     1      -9.998   2.778  -0.686  0.00  0.00    +0.001 A 
ATOM      7  C   UNL     1      -9.467   4.031  -0.490  0.00  0.00    +0.017 A 
ATOM      8  C   UNL     1      -8.101   4.219  -0.249  0.00  0.00    +0.034 A 
ATOM      9  S   UNL     1      -7.566   5.866   0.005  0.00  0.00    -0.114 S 
ATOM     10  C   UNL     1      -5.912   6.019  -0.655  0.00  0.00    +0.094 C 
ATOM     11  C   UNL     1      -4.869   5.323   0.173  0.00  0.00    +0.076 C 
ENDROOT
BRANCH   1  19
ATOM     12  C   UNL     1       1.153   3.135   0.416  0.00  0.00    +0.001 A 
ATOM     13  C   UNL     1       1.165   1.766   0.190  0.00  0.00    +0.004 A 
ATOM     14  C   UNL     1      -0.012   1.077  -0.014  0.00  0.00    +0.047 A 
ATOM     15  C   UNL     1      -1.226   1.756   0.000  0.00  0.00    +0.139 A 
ATOM     16  C   UNL     1      -1.236   3.142   0.236  0.00  0.00    +0.018 A 
ATOM     17  C   UNL     1      -0.026   3.822   0.441  0.00  0.00    +0.011 A 
ATOM     18  C   UNL     1      -2.464   3.850   0.259  0.00  0.00    +0.028 A 
ATOM     19  C   UNL     1      -3.639   3.151   0.037  0.00  0.00    +0.081 A 
ATOM     20  C   UNL     1      -3.566   1.702  -0.198  0.00  0.00    +0.346 A 
ATOM     21  O   UNL     1      -4.586   1.066  -0.387  0.00  0.00    -0.244 OA
ATOM     22  O   UNL     1      -2.376   1.080  -0.205  0.00  0.00    -0.422 OA
ENDBRANCH   1  19
BRANCH  10  23
ATOM     23  C   UNL     1      -5.563   7.482  -0.740  0.00  0.00    +0.003 A 
ATOM     24  C   UNL     1      -5.297   8.234  -1.836  0.00  0.00    +0.012 A 
ATOM     25  C   UNL     1      -5.001   9.575  -1.674  0.00  0.00    +0.008 A 
ATOM     26  C   UNL     1      -4.976  10.095  -0.423  0.00  0.00    +0.045 A 
ATOM     27  S   UNL     1      -5.385   8.675   0.577  0.00  0.00    -0.100 S 
ENDBRANCH  10  23
TORSDOF 2
