REMARK  Name = ZINC02758285
REMARK  8 active torsions:
REMARK  status: ('A' for Active; 'I' for Inactive)
REMARK    1  A    between atoms: C_1  and  C_2
REMARK    2  A    between atoms: C_2  and  C_3
REMARK    3  A    between atoms: C_3  and  O_4
REMARK    4  A    between atoms: O_4  and  C_5
REMARK    5  A    between atoms: C_5  and  C_7
REMARK    6  A    between atoms: C_8  and  C_36
REMARK    7  A    between atoms: C_12  and  C_14
REMARK    8  A    between atoms: C_26  and  C_29
REMARK                            x       y       z     vdW  Elec       q    Type
REMARK                         _______ _______ _______ _____ _____    ______ ____
ROOT
ATOM      1  C   UNL     1       1.803   4.106  -1.239  0.00  0.00    +0.065 C 
ATOM      2  C   UNL     1       3.056   4.593  -1.221  0.00  0.00    +0.016 C 
ATOM      3  N   UNL     1       3.762   4.643  -0.052  0.00  0.00    -0.321 N 
ATOM      4  C   UNL     1       3.118   4.587   1.155  0.00  0.00    +0.016 C 
ATOM      5  C   UNL     1       1.864   4.095   1.240  0.00  0.00    +0.024 C 
ATOM      6  C   UNL     1       1.147   3.596   0.010  0.00  0.00    +0.092 C 
ATOM      7  C   UNL     1       1.191   4.032   2.473  0.00  0.00    +0.162 C 
ATOM      8  O   UNL     1       0.057   3.598   2.512  0.00  0.00    -0.292 OA
ATOM      9  C   UNL     1       1.851   4.492   3.744  0.00  0.00    +0.088 C 
ATOM     10  C   UNL     1       3.367   4.315   3.611  0.00  0.00    +0.032 C 
ATOM     11  C   UNL     1       3.840   5.091   2.380  0.00  0.00    +0.059 C 
ATOM     12  C   UNL     1       3.686   5.086  -2.498  0.00  0.00    +0.061 C 
ATOM     13  H   UNL     1       4.859   4.729  -0.075  0.00  0.00    +0.152 HD
ENDROOT
BRANCH   6  14
ATOM     14  C   UNL     1       1.171   2.089   0.002  0.00  0.00    -0.032 A 
ATOM     15  C   UNL     1       2.379   1.418  -0.012  0.00  0.00    +0.008 A 
ATOM     16  C   UNL     1       2.405   0.036  -0.020  0.00  0.00    +0.050 A 
ATOM     17  C   UNL     1       1.220  -0.680  -0.013  0.00  0.00    +0.166 A 
ATOM     18  C   UNL     1       0.002  -0.004   0.002  0.00  0.00    +0.167 A 
ATOM     19  C   UNL     1      -0.017   1.381   0.010  0.00  0.00    +0.054 A 
ATOM     20  O   UNL     1      -1.007  -0.923   0.006  0.00  0.00    -0.453 OA
ATOM     21  C   UNL     1      -0.396  -2.164   0.405  0.00  0.00    +0.466 C 
ATOM     22  O   UNL     1       0.973  -2.023  -0.019  0.00  0.00    -0.453 OA
ENDBRANCH   6  14
BRANCH  10  23
ATOM     23  C   UNL     1       4.050   4.853   4.842  0.00  0.00    -0.043 A 
ATOM     24  C   UNL     1       3.888   6.179   5.198  0.00  0.00    +0.005 A 
ATOM     25  C   UNL     1       4.510   6.671   6.330  0.00  0.00    +0.020 A 
ATOM     26  C   UNL     1       5.302   5.840   7.101  0.00  0.00    +0.041 A 
ATOM     27  C   UNL     1       5.468   4.514   6.741  0.00  0.00    +0.020 A 
ATOM     28  C   UNL     1       4.841   4.021   5.612  0.00  0.00    +0.005 A 
ATOM     29 CL   UNL     1       6.089   6.460   8.519  0.00  0.00    -0.084 Cl
ENDBRANCH  10  23
BRANCH   1  30
ATOM     30  C   UNL     1       1.090   4.072  -2.460  0.00  0.00    +0.338 C 
ATOM     31  O   UNL     1       1.610   4.483  -3.481  0.00  0.00    -0.245 OA
BRANCH  30  32
ATOM     32  O   UNL     1      -0.169   3.586  -2.493  0.00  0.00    -0.461 OA
BRANCH  32  33
ATOM     33  C   UNL     1      -0.830   3.583  -3.760  0.00  0.00    +0.232 C 
BRANCH  33  35
ATOM     34  C   UNL     1      -2.943   2.996  -4.957  0.00  0.00    +0.007 C 
ATOM     35  C   UNL     1      -2.235   2.999  -3.600  0.00  0.00    +0.038 C 
ENDBRANCH  33  35
ENDBRANCH  32  33
ENDBRANCH  30  32
ENDBRANCH   1  30
TORSDOF 6
