REMARK  Name = ZINC64491478
REMARK  11 active torsions:
REMARK  status: ('A' for Active; 'I' for Inactive)
REMARK    1  A    between atoms: C_1  and  O_2
REMARK    2  A    between atoms: O_2  and  C_3
REMARK    3  A    between atoms: C_6  and  N_9
REMARK    4  A    between atoms: C_10  and  C_12
REMARK    5  A    between atoms: C_16  and  C_19
REMARK    6  A    between atoms: C_19  and  O_20
REMARK    7  A    between atoms: O_20  and  C_21
REMARK    8  A    between atoms: C_21  and  C_22
REMARK    9  A    between atoms: N_24  and  C_25
REMARK   10  A    between atoms: C_25  and  C_26
REMARK   11  A    between atoms: C_26  and  C_27
REMARK                            x       y       z     vdW  Elec       q    Type
REMARK                         _______ _______ _______ _____ _____    ______ ____
ROOT
ATOM      1  O   UNL     1       4.987  -7.714   7.066  0.00  0.00    -0.368 OA
ENDROOT
BRANCH   1   2
ATOM      2  C   UNL     1       5.051  -7.980   5.664  0.00  0.00    +0.200 C 
BRANCH   2   6
ATOM      3  C   UNL     1       3.106  -4.522   5.545  0.00  0.00    +0.272 C 
ATOM      4  N   UNL     1       4.586  -4.528   5.487  0.00  0.00    -0.167 NA
ATOM      5  N   UNL     1       5.191  -5.541   5.196  0.00  0.00    -0.174 NA
ATOM      6  C   UNL     1       4.464  -6.795   4.893  0.00  0.00    +0.213 C 
ATOM      7  S   UNL     1       2.786  -6.342   5.526  0.00  0.00    -0.093 S 
BRANCH   3   9
ATOM      8  N   UNL     1       2.540  -2.503   4.231  0.00  0.00    -0.283 N 
ATOM      9  C   UNL     1       2.513  -3.847   4.335  0.00  0.00    +0.254 C 
ATOM     10  O   UNL     1       2.010  -4.513   3.455  0.00  0.00    -0.272 OA
ATOM     11  H   UNL     1       3.009  -1.975   4.896  0.00  0.00    +0.155 HD
BRANCH   8  15
ATOM     12  C   UNL     1       0.610  -0.617   1.052  0.00  0.00    +0.120 A 
ATOM     13  C   UNL     1       0.087  -1.786   1.586  0.00  0.00    +0.047 A 
ATOM     14  C   UNL     1       0.726  -2.411   2.639  0.00  0.00    +0.027 A 
ATOM     15  C   UNL     1       1.892  -1.870   3.163  0.00  0.00    +0.034 A 
ATOM     16  C   UNL     1       2.416  -0.700   2.628  0.00  0.00    +0.027 A 
ATOM     17  C   UNL     1       1.779  -0.079   1.572  0.00  0.00    +0.047 A 
BRANCH  12  19
ATOM     18  C   UNL     1      -1.218  -0.611  -0.469  0.00  0.00    +0.277 C 
ATOM     19  O   UNL     1      -0.019  -0.002   0.016  0.00  0.00    -0.495 OA
ENDBRANCH  12  19
ENDBRANCH   8  15
ENDBRANCH   3   9
ENDBRANCH   2   6
ENDBRANCH   1   2
BRANCH   1  20
ATOM     20  C   UNL     1       5.512  -8.764   7.881  0.00  0.00    +0.255 C 
BRANCH  20  21
ATOM     21  C   UNL     1       5.394  -8.378   9.334  0.00  0.00    +0.239 C 
ATOM     22  O   UNL     1       4.909  -7.310   9.640  0.00  0.00    -0.273 OA
ATOM     23  N   UNL     1       5.829  -9.221  10.291  0.00  0.00    -0.313 N 
ATOM     24  H   UNL     1       6.218 -10.075  10.046  0.00  0.00    +0.149 HD
BRANCH  23  25
ATOM     25  C   UNL     1       5.715  -8.847  11.703  0.00  0.00    +0.108 C 
BRANCH  25  26
ATOM     26  C   UNL     1       6.277  -9.970  12.576  0.00  0.00    +0.052 C 
BRANCH  26  27
ATOM     27  C   UNL     1       6.160  -9.585  14.028  0.00  0.00    -0.040 C 
ATOM     28  C   UNL     1       5.164  -9.919  14.880  0.00  0.00    +0.000 A 
ATOM     29  C   UNL     1       3.938 -10.710  14.715  0.00  0.00    +0.030 A 
ATOM     30  C   UNL     1       3.115 -10.873  15.777  0.00  0.00    +0.042 A 
ATOM     31  C   UNL     1       3.403 -10.306  17.027  0.00  0.00    +0.022 A 
ATOM     32  C   UNL     1       4.509  -9.567  17.255  0.00  0.00    +0.027 A 
ATOM     33  C   UNL     1       5.445  -9.332  16.210  0.00  0.00    +0.043 A 
ATOM     34  N   UNL     1       6.571  -8.662  16.181  0.00  0.00    -0.380 N 
ATOM     35  C   UNL     1       7.136  -8.753  14.830  0.00  0.00    +0.144 C 
ATOM     36 CL   UNL     1       1.664 -11.807  15.586  0.00  0.00    -0.084 Cl
ATOM     37  H   UNL     1       6.967  -8.187  16.929  0.00  0.00    +0.160 HD
ENDBRANCH  26  27
ENDBRANCH  25  26
ENDBRANCH  23  25
ENDBRANCH  20  21
ENDBRANCH   1  20
TORSDOF 10
