REMARK  Name = ZINC63547177
REMARK  8 active torsions:
REMARK  status: ('A' for Active; 'I' for Inactive)
REMARK    1  A    between atoms: C_1  and  O_2
REMARK    2  A    between atoms: O_2  and  C_3
REMARK    3  A    between atoms: C_9  and  C_12
REMARK    4  A    between atoms: C_12  and  C_13
REMARK    5  A    between atoms: C_13  and  N_14
REMARK    6  A    between atoms: C_15  and  C_17
REMARK    7  A    between atoms: C_25  and  C_31
REMARK    8  A    between atoms: C_27  and  C_28
REMARK                            x       y       z     vdW  Elec       q    Type
REMARK                         _______ _______ _______ _____ _____    ______ ____
ROOT
ATOM      1  C   UNL     1       2.214  -8.445  -1.671  0.00  0.00    +0.073 C 
ATOM      2  H   UNL     1       2.527 -10.694  -3.877  0.00  0.00    +0.170 HD
ATOM      3  C   UNL     1       2.945  -9.122  -2.581  0.00  0.00    +0.100 C 
ATOM      4  N   UNL     1       2.240 -10.159  -3.120  0.00  0.00    -0.269 N 
ATOM      5  N   UNL     1       1.051 -10.334  -2.426  0.00  0.00    -0.223 N 
ATOM      6  C   UNL     1       0.860  -9.113  -1.613  0.00  0.00    +0.246 C 
ATOM      7  N   UNL     1       0.543  -9.547  -0.250  0.00  0.00    -0.254 NA
ATOM      8  C   UNL     1      -0.035 -10.704  -0.048  0.00  0.00    +0.070 C 
ATOM      9  C   UNL     1      -0.390 -11.600  -1.152  0.00  0.00    +0.054 C 
ATOM     10  C   UNL     1       0.187 -11.399  -2.369  0.00  0.00    +0.095 C 
ENDROOT
BRANCH   8  11
ATOM     11  C   UNL     1      -0.341 -11.121   1.342  0.00  0.00    +0.000 A 
ATOM     12  C   UNL     1      -0.951 -12.351   1.585  0.00  0.00    +0.010 A 
ATOM     13  C   UNL     1      -1.234 -12.734   2.881  0.00  0.00    +0.001 A 
ATOM     14  C   UNL     1      -0.912 -11.901   3.937  0.00  0.00    +0.000 A 
ATOM     15  C   UNL     1      -0.306 -10.679   3.702  0.00  0.00    +0.001 A 
ATOM     16  C   UNL     1      -0.014 -10.288   2.411  0.00  0.00    +0.010 A 
ENDBRANCH   8  11
BRANCH   1  18
ATOM     17  N   UNL     1       1.793  -6.755  -0.031  0.00  0.00    -0.311 N 
ATOM     18  C   UNL     1       2.636  -7.328  -0.912  0.00  0.00    +0.245 C 
ATOM     19  O   UNL     1       3.761  -6.885  -1.056  0.00  0.00    -0.270 OA
ATOM     20  H   UNL     1       0.897  -7.108   0.083  0.00  0.00    +0.149 HD
BRANCH  17  21
ATOM     21  C   UNL     1       2.230  -5.598   0.754  0.00  0.00    +0.109 C 
BRANCH  21  22
ATOM     22  C   UNL     1       1.092  -5.144   1.671  0.00  0.00    +0.052 C 
BRANCH  22  29
ATOM     23  C   UNL     1       0.626  -0.619   1.042  0.00  0.00    +0.121 A 
ATOM     24  C   UNL     1       1.202   0.173   2.051  0.00  0.00    +0.047 A 
ATOM     25  C   UNL     1       1.839  -0.358   3.116  0.00  0.00    +0.029 A 
ATOM     26  C   UNL     1       1.947  -1.815   3.248  0.00  0.00    +0.043 A 
ATOM     27  N   UNL     1       2.500  -2.573   4.161  0.00  0.00    -0.380 N 
ATOM     28  C   UNL     1       2.308  -3.978   3.782  0.00  0.00    +0.144 C 
ATOM     29  C   UNL     1       1.541  -3.954   2.479  0.00  0.00    -0.040 C 
ATOM     30  C   UNL     1       1.340  -2.650   2.185  0.00  0.00    +0.002 A 
ATOM     31  C   UNL     1       0.667  -1.972   1.072  0.00  0.00    +0.055 A 
ATOM     32  H   UNL     1       2.961  -2.259   4.955  0.00  0.00    +0.160 HD
BRANCH  23  34
ATOM     33  C   UNL     1      -0.017   1.425   0.010  0.00  0.00    +0.277 C 
ATOM     34  O   UNL     1       0.002  -0.004   0.002  0.00  0.00    -0.495 OA
ENDBRANCH  23  34
ENDBRANCH  22  29
ENDBRANCH  21  22
ENDBRANCH  17  21
ENDBRANCH   1  18
BRANCH  10  35
ATOM     35  C   UNL     1      -0.089 -12.285  -3.557  0.00  0.00    +0.387 C 
ATOM     36  F   UNL     1      -1.005 -13.278  -3.194  0.00  0.00    -0.202 F 
ATOM     37  F   UNL     1      -0.621 -11.517  -4.598  0.00  0.00    -0.202 F 
ENDBRANCH  10  35
TORSDOF 7
