REMARK  Name = ZINC40045433
REMARK  3 active torsions:
REMARK  status: ('A' for Active; 'I' for Inactive)
REMARK    1  A    between atoms: C_1  and  C_2
REMARK    2  A    between atoms: C_4  and  C_30
REMARK    3  A    between atoms: C_16  and  C_18
REMARK                            x       y       z     vdW  Elec       q    Type
REMARK                         _______ _______ _______ _____ _____    ______ ____
ROOT
ATOM      1  C   UNL     1      -0.018   1.503   0.010  0.00  0.00    +0.044 C 
ATOM      2  C   UNL     1       0.002  -0.004   0.002  0.00  0.00    -0.049 A 
ATOM      3  C   UNL     1       0.006  -0.689  -1.205  0.00  0.00    +0.010 A 
ATOM      4  C   UNL     1       0.021  -2.065  -1.235  0.00  0.00    -0.007 A 
ATOM      5  C   UNL     1       0.034  -2.790  -0.043  0.00  0.00    +0.142 A 
ATOM      6  C   UNL     1       0.037  -2.086   1.172  0.00  0.00    +0.065 A 
ATOM      7  C   UNL     1       0.023  -0.692   1.183  0.00  0.00    +0.018 A 
ATOM      8  C   UNL     1       0.067  -2.849   2.446  0.00  0.00    +0.199 A 
ATOM      9  O   UNL     1      -0.097  -2.332   3.537  0.00  0.00    -0.287 OA
ATOM     10  C   UNL     1       0.313  -4.283   2.266  0.00  0.00    +0.072 A 
ATOM     11  C   UNL     1       0.293  -4.850   1.023  0.00  0.00    +0.199 A 
ATOM     12  O   UNL     1       0.042  -4.142  -0.096  0.00  0.00    -0.449 OA
ATOM     13  C   UNL     1       0.581  -6.287   1.166  0.00  0.00    +0.289 C 
ATOM     14  O   UNL     1       0.640  -7.080   0.247  0.00  0.00    -0.266 OA
ATOM     15  N   UNL     1       0.768  -6.595   2.466  0.00  0.00    -0.232 N 
ATOM     16  C   UNL     1       0.612  -5.362   3.254  0.00  0.00    +0.151 C 
ATOM     17  C   UNL     1       1.057  -7.855   2.971  0.00  0.00    +0.168 A 
ATOM     18  N   UNL     1       1.242  -8.210   4.225  0.00  0.00    -0.233 NA
ATOM     19  C   UNL     1       1.512  -9.462   4.546  0.00  0.00    +0.120 A 
ATOM     20  C   UNL     1       1.588 -10.357   3.530  0.00  0.00    +0.068 A 
ATOM     21  S   UNL     1       1.248  -9.301   2.131  0.00  0.00    -0.060 S 
ATOM     22  C   UNL     1       0.023  -2.790  -2.557  0.00  0.00    +0.047 C 
ENDROOT
BRANCH  16  23
ATOM     23  C   UNL     1      -0.529  -5.507   4.227  0.00  0.00    -0.021 A 
ATOM     24  C   UNL     1      -1.659  -6.219   3.866  0.00  0.00    +0.006 A 
ATOM     25  C   UNL     1      -2.706  -6.352   4.758  0.00  0.00    +0.001 A 
ATOM     26  C   UNL     1      -2.624  -5.775   6.012  0.00  0.00    +0.015 A 
ATOM     27  C   UNL     1      -1.495  -5.064   6.373  0.00  0.00    +0.018 A 
ATOM     28  C   UNL     1      -0.445  -4.935   5.482  0.00  0.00    +0.021 A 
ATOM     29 BR   UNL     1      -1.383  -4.273   8.087  0.00  0.00    -0.050 Br
ENDBRANCH  16  23
TORSDOF 1
