REMARK  Name = ZINC39666387
REMARK  8 active torsions:
REMARK  status: ('A' for Active; 'I' for Inactive)
REMARK    1  A    between atoms: C_1  and  C_2
REMARK    2  A    between atoms: C_2  and  C_4
REMARK    3  A    between atoms: C_2  and  O_31
REMARK    4  A    between atoms: C_4  and  N_5
REMARK    5  A    between atoms: C_6  and  C_8
REMARK    6  A    between atoms: C_19  and  C_21
REMARK    7  A    between atoms: C_24  and  C_27
REMARK    8  A    between atoms: O_31  and  C_32
REMARK                            x       y       z     vdW  Elec       q    Type
REMARK                         _______ _______ _______ _____ _____    ______ ____
ROOT
ATOM      1  C   UNL     1       0.990  -4.175  -2.549  0.00  0.00    +0.100 C 
ATOM      2  C   UNL     1      -0.455  -4.624  -2.865  0.00  0.00    +0.121 C 
ATOM      3  N   UNL     1      -0.478  -4.801  -4.336  0.00  0.00    -0.296 N 
ATOM      4  C   UNL     1       0.833  -5.415  -4.654  0.00  0.00    +0.115 C 
ATOM      5  C   UNL     1       1.832  -4.699  -3.724  0.00  0.00    -0.004 C 
ATOM      6  C   UNL     1       2.885  -5.683  -3.222  0.00  0.00    -0.010 C 
ATOM      7  C   UNL     1       3.748  -6.145  -4.399  0.00  0.00    -0.082 C 
ATOM      8  N   UNL     1       4.393  -4.983  -5.022  0.00  0.00    +0.379 N 
ATOM      9  C   UNL     1       3.375  -4.087  -5.584  0.00  0.00    -0.082 C 
ATOM     10  C   UNL     1       2.497  -3.537  -4.457  0.00  0.00    -0.010 C 
ATOM     11  C   UNL     1      -1.468  -4.478  -5.191  0.00  0.00    +0.247 C 
ATOM     12  O   UNL     1      -2.447  -3.878  -4.790  0.00  0.00    -0.270 OA
ATOM     13  H   UNL     1       4.930  -4.485  -4.327  0.00  0.00    -0.086 HD
ATOM     14  H   UNL     1       5.008  -5.295  -5.758  0.00  0.00    -0.086 HD
ENDROOT
BRANCH  11  15
ATOM     15  C   UNL     1      -1.365  -4.852  -6.618  0.00  0.00    +0.037 A 
ATOM     16  C   UNL     1      -0.571  -5.933  -7.003  0.00  0.00    +0.013 A 
ATOM     17  C   UNL     1      -0.478  -6.278  -8.336  0.00  0.00    +0.013 A 
ATOM     18  C   UNL     1      -1.170  -5.553  -9.290  0.00  0.00    +0.055 A 
ATOM     19  C   UNL     1      -1.959  -4.480  -8.915  0.00  0.00    +0.013 A 
ATOM     20  C   UNL     1      -2.065  -4.129  -7.585  0.00  0.00    +0.013 A 
BRANCH  18  21
ATOM     21  C   UNL     1      -1.065  -5.935 -10.744  0.00  0.00    +0.417 C 
ATOM     22  F   UNL     1      -2.066  -6.860 -11.057  0.00  0.00    -0.166 F 
ATOM     23  F   UNL     1      -1.220  -4.793 -11.538  0.00  0.00    -0.166 F 
ATOM     24  F   UNL     1       0.190  -6.505 -10.986  0.00  0.00    -0.166 F 
ENDBRANCH  18  21
ENDBRANCH  11  15
BRANCH   1  26
ATOM     25  N   UNL     1       2.087  -2.080  -1.823  0.00  0.00    -0.312 N 
ATOM     26  C   UNL     1       1.067  -2.671  -2.477  0.00  0.00    +0.218 C 
ATOM     27  O   UNL     1       0.212  -1.994  -3.007  0.00  0.00    -0.275 OA
ATOM     28  H   UNL     1       2.771  -2.622  -1.399  0.00  0.00    +0.149 HD
BRANCH  25  29
ATOM     29  C   UNL     1       2.163  -0.619  -1.753  0.00  0.00    +0.148 C 
BRANCH  29  31
ATOM     30  C   UNL     1       3.420   1.309  -0.781  0.00  0.00    +0.053 C 
ATOM     31  C   UNL     1       3.407  -0.210  -0.961  0.00  0.00    +0.187 C 
BRANCH  31  32
ATOM     32  O   UNL     1       4.578  -0.616  -1.671  0.00  0.00    -0.486 OA
BRANCH  32  33
ATOM     33  C   UNL     1       5.706  -0.813  -0.939  0.00  0.00    +0.139 A 
ATOM     34  C   UNL     1       5.662  -0.718   0.444  0.00  0.00    +0.047 A 
ATOM     35  C   UNL     1       6.810  -0.920   1.186  0.00  0.00    +0.004 A 
ATOM     36  C   UNL     1       8.002  -1.216   0.552  0.00  0.00    +0.002 A 
ATOM     37  C   UNL     1       8.050  -1.311  -0.827  0.00  0.00    +0.023 A 
ATOM     38  C   UNL     1       6.903  -1.116  -1.574  0.00  0.00    +0.083 A 
ATOM     39 CL   UNL     1       6.962  -1.242  -3.304  0.00  0.00    -0.080 Cl
ENDBRANCH  32  33
ENDBRANCH  31  32
ENDBRANCH  29  31
ENDBRANCH  25  29
ENDBRANCH   1  26
TORSDOF 7
