REMARK  Name = ZINC58890554
REMARK  11 active torsions:
REMARK  status: ('A' for Active; 'I' for Inactive)
REMARK    1  A    between atoms: C_1  and  C_2
REMARK    2  A    between atoms: N_5  and  C_8
REMARK    3  A    between atoms: C_8  and  C_9
REMARK    4  A    between atoms: C_8  and  C_26
REMARK    5  A    between atoms: C_9  and  N_10
REMARK    6  A    between atoms: C_11  and  C_13
REMARK    7  A    between atoms: C_18  and  N_19
REMARK    8  A    between atoms: N_19  and  C_20
REMARK    9  A    between atoms: C_21  and  C_23
REMARK   10  A    between atoms: C_26  and  C_27
REMARK   11  A    between atoms: C_26  and  C_28
REMARK                            x       y       z     vdW  Elec       q    Type
REMARK                         _______ _______ _______ _____ _____    ______ ____
ROOT
ATOM      1  N   UNL     1       1.689  -3.627  -2.383  0.00  0.00    -0.313 N 
ATOM      2  C   UNL     1       2.216  -3.723  -3.620  0.00  0.00    +0.246 C 
ATOM      3  O   UNL     1       3.267  -4.312  -3.788  0.00  0.00    -0.270 OA
ATOM      4  H   UNL     1       0.851  -3.157  -2.248  0.00  0.00    +0.149 HD
ENDROOT
BRANCH   2   5
ATOM      5  C   UNL     1       1.518  -3.116  -4.769  0.00  0.00    +0.058 A 
ATOM      6  C   UNL     1       0.314  -2.434  -4.579  0.00  0.00    +0.015 A 
ATOM      7  C   UNL     1      -0.333  -1.868  -5.656  0.00  0.00    +0.001 A 
ATOM      8  C   UNL     1       0.205  -1.971  -6.928  0.00  0.00    +0.002 A 
ATOM      9  C   UNL     1       1.394  -2.642  -7.132  0.00  0.00    +0.024 A 
ATOM     10  C   UNL     1       2.063  -3.214  -6.057  0.00  0.00    +0.048 A 
BRANCH  10  11
ATOM     11  N   UNL     1       3.266  -3.886  -6.259  0.00  0.00    -0.274 N 
ATOM     12  C   UNL     1       4.535  -3.158  -6.179  0.00  0.00    +0.138 C 
ATOM     13  C   UNL     1       3.263  -5.207  -6.529  0.00  0.00    +0.223 C 
ATOM     14  O   UNL     1       2.212  -5.810  -6.595  0.00  0.00    -0.275 OA
BRANCH  13  15
ATOM     15  C   UNL     1       4.564  -5.935  -6.747  0.00  0.00    +0.076 C 
ATOM     16  C   UNL     1       4.859  -6.445  -8.159  0.00  0.00    +0.013 C 
ATOM     17  C   UNL     1       4.494  -7.433  -7.049  0.00  0.00    +0.013 C 
ENDBRANCH  13  15
ENDBRANCH  10  11
ENDBRANCH   2   5
BRANCH   1  18
ATOM     18  C   UNL     1       2.382  -4.230  -1.242  0.00  0.00    +0.089 C 
BRANCH  18  19
ATOM     19  C   UNL     1       1.689  -3.810   0.056  0.00  0.00    -0.049 C 
BRANCH  19  24
ATOM     20  C   UNL     1       3.333   1.651   0.064  0.00  0.00    +0.007 C 
ATOM     21  C   UNL     1       3.119   0.186  -0.324  0.00  0.00    -0.018 C 
ATOM     22  C   UNL     1       3.701  -0.722   0.764  0.00  0.00    -0.016 C 
ATOM     23  C   UNL     1       3.413  -2.182   0.409  0.00  0.00    -0.078 C 
ATOM     24  N   UNL     1       1.963  -2.391   0.320  0.00  0.00    +0.383 N 
ATOM     25  C   UNL     1       1.409  -1.577  -0.769  0.00  0.00    -0.078 C 
ATOM     26  C   UNL     1       1.620  -0.093  -0.460  0.00  0.00    -0.016 C 
ATOM     27  H   UNL     1       1.531  -2.123   1.191  0.00  0.00    -0.081 HD
ENDBRANCH  19  24
BRANCH  19  28
ATOM     28  C   UNL     1       2.221  -4.656   1.215  0.00  0.00    -0.029 C 
ATOM     29  C   UNL     1       1.522  -4.241   2.511  0.00  0.00    +0.005 C 
ATOM     30  C   UNL     1       1.944  -6.134   0.936  0.00  0.00    +0.005 C 
ENDBRANCH  19  28
ENDBRANCH  18  19
ENDBRANCH   1  18
TORSDOF 7
