REMARK  Name = ZINC39795102
REMARK  2 active torsions:
REMARK  status: ('A' for Active; 'I' for Inactive)
REMARK    1  A    between atoms: C_6  and  C_7
REMARK    2  A    between atoms: C_10  and  C_12
REMARK                            x       y       z     vdW  Elec       q    Type
REMARK                         _______ _______ _______ _____ _____    ______ ____
ROOT
ATOM      1  C   UNL     1      -4.909  -1.041   0.038  0.00  0.00    +0.128 C 
ATOM      2  C   UNL     1      -5.305  -0.298   1.280  0.00  0.00    +0.070 A 
ATOM      3  C   UNL     1      -5.620   1.027   1.232  0.00  0.00    +0.111 A 
ATOM      4  N   UNL     1      -5.973   1.682   2.387  0.00  0.00    -0.323 N 
ATOM      5  C   UNL     1      -6.010   1.021   3.559  0.00  0.00    +0.159 A 
ATOM      6  S   UNL     1      -6.451   1.859   4.986  0.00  0.00    -0.013 S 
ATOM      7  N   UNL     1      -5.706  -0.288   3.626  0.00  0.00    -0.302 N 
ATOM      8  C   UNL     1      -5.354  -0.967   2.517  0.00  0.00    +0.258 A 
ATOM      9  O   UNL     1      -5.081  -2.153   2.584  0.00  0.00    -0.267 OA
ATOM     10  N   UNL     1      -5.588   1.701   0.037  0.00  0.00    -0.304 N 
ATOM     11  C   UNL     1      -5.633   1.021  -1.150  0.00  0.00    +0.017 C 
ATOM     12  C   UNL     1      -5.325  -0.291  -1.202  0.00  0.00    +0.027 C 
ATOM     13  C   UNL     1      -5.383  -0.999  -2.416  0.00  0.00    +0.162 C 
ATOM     14  O   UNL     1      -5.093  -2.179  -2.431  0.00  0.00    -0.292 OA
ATOM     15  C   UNL     1      -5.797  -0.324  -3.694  0.00  0.00    +0.080 C 
ATOM     16  C   UNL     1      -6.743   0.835  -3.362  0.00  0.00    +0.014 C 
ATOM     17  C   UNL     1      -6.030   1.777  -2.394  0.00  0.00    +0.051 C 
ATOM     18  H   UNL     1      -5.740  -0.746   4.480  0.00  0.00    +0.171 HD
ATOM     19  H   UNL     1      -5.533   2.669   0.034  0.00  0.00    +0.153 HD
ATOM     20  H   UNL     1      -6.196   2.625   2.358  0.00  0.00    +0.169 HD
ENDROOT
BRANCH   1  24
ATOM     21  C   UNL     1      -1.266  -0.763   0.011  0.00  0.00    +0.135 A 
ATOM     22  C   UNL     1      -1.385  -2.118   0.010  0.00  0.00    +0.050 A 
ATOM     23  C   UNL     1      -2.765  -2.404   0.020  0.00  0.00    +0.046 A 
ATOM     24  C   UNL     1      -3.413  -1.222   0.027  0.00  0.00    +0.118 A 
ATOM     25  O   UNL     1      -2.504  -0.233   0.026  0.00  0.00    -0.459 OA
BRANCH  21  31
ATOM     26  C   UNL     1      -0.017   1.391   0.010  0.00  0.00    +0.013 A 
ATOM     27  C   UNL     1       1.170   2.095   0.002  0.00  0.00    +0.022 A 
ATOM     28  C   UNL     1       2.378   1.420  -0.013  0.00  0.00    +0.059 A 
ATOM     29  C   UNL     1       2.404   0.035  -0.021  0.00  0.00    +0.060 A 
ATOM     30  C   UNL     1       1.223  -0.680  -0.014  0.00  0.00    +0.033 A 
ATOM     31  C   UNL     1       0.002  -0.004   0.002  0.00  0.00    +0.019 A 
ATOM     32 CL   UNL     1       3.924  -0.804  -0.041  0.00  0.00    -0.082 Cl
ATOM     33 CL   UNL     1       3.867   2.313  -0.022  0.00  0.00    -0.082 Cl
ENDBRANCH  21  31
ENDBRANCH   1  24
TORSDOF 2
