REMARK  Name = ZINC11064135
REMARK  12 active torsions:
REMARK  status: ('A' for Active; 'I' for Inactive)
REMARK    1  A    between atoms: C_1  and  O_2
REMARK    2  A    between atoms: O_2  and  C_3
REMARK    3  A    between atoms: C_5  and  O_34
REMARK    4  A    between atoms: C_6  and  C_11
REMARK    5  A    between atoms: C_7  and  O_9
REMARK    6  A    between atoms: O_9  and  C_10
REMARK    7  A    between atoms: C_16  and  C_17
REMARK    8  A    between atoms: C_16  and  N_64
REMARK    9  A    between atoms: N_19  and  C_20
REMARK   10  A    between atoms: C_20  and  C_22
REMARK   11  A    between atoms: C_20  and  C_29
REMARK   12  A    between atoms: O_34  and  C_35
REMARK                            x       y       z     vdW  Elec       q    Type
REMARK                         _______ _______ _______ _____ _____    ______ ____
ROOT
ATOM      1  C   UNL     1      -5.844   5.952   4.366  0.00  0.00    -0.041 C 
ATOM      2  C   UNL     1      -5.453   4.695   4.332  0.00  0.00    -0.041 C 
ATOM      3  C   UNL     1      -4.143   4.261   3.742  0.00  0.00    -0.050 C 
ATOM      4  C   UNL     1      -3.572   6.602   3.610  0.00  0.00    -0.073 C 
ATOM      5  C   UNL     1      -5.014   7.075   3.808  0.00  0.00    +0.017 C 
ATOM      6  N   UNL     1      -3.613   5.325   2.868  0.00  0.00    +0.388 N 
ATOM      7  H   UNL     1      -4.230   5.429   2.054  0.00  0.00    -0.081 HD
ENDROOT
BRANCH   1  11
ATOM      8  C   UNL     1      -9.606   6.874   6.125  0.00  0.00    +0.127 A 
ATOM      9  C   UNL     1      -8.461   6.860   6.910  0.00  0.00    +0.092 A 
ATOM     10  C   UNL     1      -7.234   6.561   6.344  0.00  0.00    +0.134 A 
ATOM     11  C   UNL     1      -7.149   6.271   4.977  0.00  0.00    +0.061 A 
ATOM     12  C   UNL     1      -8.307   6.292   4.190  0.00  0.00    +0.134 A 
ATOM     13  C   UNL     1      -9.529   6.588   4.769  0.00  0.00    +0.092 A 
BRANCH   8  15
ATOM     14  C   UNL     1     -11.945   7.165   5.823  0.00  0.00    +0.277 C 
ATOM     15  O   UNL     1     -10.807   7.169   6.687  0.00  0.00    -0.495 OA
ENDBRANCH   8  15
BRANCH  12  16
ATOM     16  O   UNL     1      -8.233   6.017   2.862  0.00  0.00    -0.494 OA
ATOM     17  C   UNL     1      -9.455   6.056   2.122  0.00  0.00    +0.277 C 
ENDBRANCH  12  16
BRANCH  10  18
ATOM     18  O   UNL     1      -6.114   6.549   7.113  0.00  0.00    -0.494 OA
ATOM     19  C   UNL     1      -6.277   6.854   8.500  0.00  0.00    +0.277 C 
ENDBRANCH  10  18
ENDBRANCH   1  11
BRANCH   6  20
ATOM     20  C   UNL     1      -2.255   4.966   2.401  0.00  0.00    +0.019 C 
BRANCH  20  21
ATOM     21  C   UNL     1      -2.351   3.776   1.481  0.00  0.00    +0.197 C 
ATOM     22  O   UNL     1      -3.431   3.272   1.252  0.00  0.00    -0.278 OA
ATOM     23  N   UNL     1      -1.238   3.270   0.913  0.00  0.00    -0.306 N 
ATOM     24  H   UNL     1      -0.375   3.673   1.097  0.00  0.00    +0.150 HD
BRANCH  23  25
ATOM     25  C   UNL     1      -1.332   2.113   0.020  0.00  0.00    +0.140 C 
BRANCH  25  26
ATOM     26  C   UNL     1      -0.017   1.378   0.010  0.00  0.00    -0.022 A 
ATOM     27  C   UNL     1       1.170   2.087   0.002  0.00  0.00    +0.008 A 
ATOM     28  C   UNL     1       2.377   1.414  -0.013  0.00  0.00    +0.038 A 
ATOM     29  C   UNL     1       2.397   0.029  -0.021  0.00  0.00    +0.123 A 
ATOM     30  C   UNL     1       1.208  -0.679  -0.013  0.00  0.00    +0.038 A 
ATOM     31  C   UNL     1       0.002  -0.004   0.002  0.00  0.00    +0.008 A 
ATOM     32  F   UNL     1       3.577  -0.630  -0.035  0.00  0.00    -0.205 F 
ENDBRANCH  25  26
BRANCH  25  33
ATOM     33  C   UNL     1      -1.657   2.581  -1.375  0.00  0.00    +0.014 A 
ATOM     34  C   UNL     1      -2.495   2.030  -2.287  0.00  0.00    +0.013 A 
ATOM     35  C   UNL     1      -2.640   2.640  -3.519  0.00  0.00    +0.008 A 
ATOM     36  C   UNL     1      -1.939   3.771  -3.779  0.00  0.00    +0.045 A 
ATOM     37  S   UNL     1      -1.043   4.010  -2.253  0.00  0.00    -0.099 S 
ENDBRANCH  25  33
ENDBRANCH  23  25
ENDBRANCH  20  21
ENDBRANCH   6  20
TORSDOF 9
