REMARK  Name = ZINC37936752
REMARK  8 active torsions:
REMARK  status: ('A' for Active; 'I' for Inactive)
REMARK    1  A    between atoms: C_1  and  C_2
REMARK    2  A    between atoms: C_6  and  N_8
REMARK    3  A    between atoms: N_8  and  C_9
REMARK    4  A    between atoms: C_9  and  C_11
REMARK    5  A    between atoms: C_9  and  C_13
REMARK    6  A    between atoms: C_15  and  O_21
REMARK    7  A    between atoms: C_16  and  O_20
REMARK    8  A    between atoms: O_21  and  C_22
REMARK                            x       y       z     vdW  Elec       q    Type
REMARK                         _______ _______ _______ _____ _____    ______ ____
ROOT
ATOM      1  C   UNL     1       0.071  -4.261   2.379  0.00  0.00    +0.205 C 
ENDROOT
BRANCH   1   2
ATOM      2  C   UNL     1       0.684  -4.765   3.660  0.00  0.00    -0.009 A 
ATOM      3  C   UNL     1       1.547  -5.846   3.634  0.00  0.00    +0.056 A 
ATOM      4  C   UNL     1       2.112  -6.311   4.810  0.00  0.00    +0.163 A 
ATOM      5  C   UNL     1       1.810  -5.688   6.017  0.00  0.00    +0.173 A 
ATOM      6  C   UNL     1       0.945  -4.605   6.037  0.00  0.00    +0.063 A 
ATOM      7  C   UNL     1       0.388  -4.143   4.858  0.00  0.00    +0.025 A 
ATOM      8 BR   UNL     1       0.531  -3.755   7.675  0.00  0.00    -0.046 Br
BRANCH   5   9
ATOM      9  O   UNL     1       2.362  -6.141   7.175  0.00  0.00    -0.503 OA
ATOM     10  H   UNL     1       3.205  -5.724   7.398  0.00  0.00    +0.292 HD
ENDBRANCH   5   9
BRANCH   4  11
ATOM     11  O   UNL     1       2.959  -7.374   4.785  0.00  0.00    -0.491 OA
ATOM     12  C   UNL     1       3.223  -7.963   3.511  0.00  0.00    +0.277 C 
ENDBRANCH   4  11
ENDBRANCH   1   2
BRANCH   1  13
ATOM     13  N   UNL     1       0.051  -2.796   2.390  0.00  0.00    -0.325 N 
ATOM     14  H   UNL     1       0.049  -2.318   3.234  0.00  0.00    +0.148 HD
BRANCH  13  20
ATOM     15  C   UNL     1      -0.018   1.503   0.010  0.00  0.00    +0.044 C 
ATOM     16  C   UNL     1       0.002  -0.004   0.002  0.00  0.00    -0.049 A 
ATOM     17  C   UNL     1       0.006  -0.688  -1.200  0.00  0.00    +0.003 A 
ATOM     18  C   UNL     1       0.024  -2.071  -1.212  0.00  0.00    +0.002 A 
ATOM     19  C   UNL     1       0.039  -2.773  -0.023  0.00  0.00    +0.023 A 
ATOM     20  C   UNL     1       0.036  -2.089   1.186  0.00  0.00    +0.029 A 
ATOM     21  C   UNL     1       0.023  -0.700   1.194  0.00  0.00    +0.026 A 
ENDBRANCH  13  20
ENDBRANCH   1  13
BRANCH   1  22
ATOM     22  C   UNL     1      -1.306  -4.769   2.261  0.00  0.00    +0.090 C 
ATOM     23  N   UNL     1      -2.368  -5.162   2.171  0.00  0.00    -0.194 NA
ENDBRANCH   1  22
TORSDOF 6
