REMARK  Name = ZINC20715071
REMARK  7 active torsions:
REMARK  status: ('A' for Active; 'I' for Inactive)
REMARK    1  A    between atoms: C_1  and  O_2
REMARK    2  A    between atoms: O_2  and  C_3
REMARK    3  A    between atoms: C_6  and  C_11
REMARK    4  A    between atoms: C_8  and  O_9
REMARK    5  A    between atoms: O_9  and  C_10
REMARK    6  A    between atoms: C_22  and  O_27
REMARK    7  A    between atoms: O_27  and  C_28
REMARK                            x       y       z     vdW  Elec       q    Type
REMARK                         _______ _______ _______ _____ _____    ______ ____
ROOT
ATOM      1  C   UNL     1       5.821   7.899   0.174  0.00  0.00    +0.105 C 
ATOM      2  C   UNL     1       4.695   8.532  -0.625  0.00  0.00    +0.029 C 
ATOM      3  C   UNL     1       4.572  10.060  -0.570  0.00  0.00    +0.033 C 
ATOM      4  C   UNL     1       3.069  10.256  -0.779  0.00  0.00    -0.030 C 
ATOM      5  C   UNL     1       2.411   9.175  -0.378  0.00  0.00    -0.023 C 
ATOM      6  C   UNL     1       3.387   8.168   0.139  0.00  0.00    +0.049 C 
ATOM      7  C   UNL     1       3.181   6.708   0.016  0.00  0.00    -0.016 A 
ATOM      8  C   UNL     1       1.927   6.145  -0.080  0.00  0.00    +0.052 A 
ATOM      9  C   UNL     1       1.784   4.768  -0.168  0.00  0.00    +0.129 A 
ATOM     10  C   UNL     1       2.909   3.956  -0.171  0.00  0.00    +0.048 A 
ATOM     11  C   UNL     1       4.167   4.516  -0.088  0.00  0.00    +0.027 A 
ATOM     12  C   UNL     1       4.319   5.894   0.005  0.00  0.00    +0.032 A 
ATOM     13  N   UNL     1       5.610   6.439   0.069  0.00  0.00    -0.336 N 
ATOM     14  H   UNL     1       6.474   5.759   0.041  0.00  0.00    +0.147 HD
ENDROOT
BRANCH   1  18
ATOM     15  C   UNL     1       5.610   9.139   4.261  0.00  0.00    +0.162 A 
ATOM     16  C   UNL     1       6.340   9.880   3.346  0.00  0.00    +0.050 A 
ATOM     17  C   UNL     1       6.411   9.474   2.027  0.00  0.00    +0.009 A 
ATOM     18  C   UNL     1       5.745   8.334   1.615  0.00  0.00    -0.023 A 
ATOM     19  C   UNL     1       5.014   7.590   2.522  0.00  0.00    +0.055 A 
ATOM     20  C   UNL     1       4.944   7.989   3.848  0.00  0.00    +0.162 A 
BRANCH  15  22
ATOM     21  C   UNL     1       6.252  10.724   5.913  0.00  0.00    +0.277 C 
ATOM     22  O   UNL     1       5.543   9.534   5.561  0.00  0.00    -0.491 OA
ENDBRANCH  15  22
BRANCH  20  23
ATOM     23  O   UNL     1       4.226   7.258   4.742  0.00  0.00    -0.491 OA
ATOM     24  C   UNL     1       3.569   6.090   4.246  0.00  0.00    +0.277 C 
ENDBRANCH  20  23
ENDBRANCH   1  18
BRANCH   9  25
ATOM     25  O   UNL     1       0.545   4.216  -0.255  0.00  0.00    -0.456 OA
BRANCH  25  26
ATOM     26  C   UNL     1      -0.083   3.870   0.899  0.00  0.00    +0.128 A 
ATOM     27  C   UNL     1       0.532   4.104   2.121  0.00  0.00    +0.046 A 
ATOM     28  C   UNL     1      -0.108   3.751   3.293  0.00  0.00    +0.004 A 
ATOM     29  C   UNL     1      -1.360   3.166   3.250  0.00  0.00    +0.000 A 
ATOM     30  C   UNL     1      -1.975   2.932   2.033  0.00  0.00    +0.004 A 
ATOM     31  C   UNL     1      -1.339   3.282   0.858  0.00  0.00    +0.046 A 
ENDBRANCH  25  26
ENDBRANCH   9  25
TORSDOF 5
