REMARK  Name = ZINC28535520
REMARK  5 active torsions:
REMARK  status: ('A' for Active; 'I' for Inactive)
REMARK    1  A    between atoms: C_6  and  C_7
REMARK    2  A    between atoms: C_7  and  S_8
REMARK    3  A    between atoms: S_8  and  C_9
REMARK    4  A    between atoms: N_15  and  N_16
REMARK    5  A    between atoms: N_17  and  C_18
REMARK                            x       y       z     vdW  Elec       q    Type
REMARK                         _______ _______ _______ _____ _____    ______ ____
ROOT
ATOM      1  C   UNL     1       0.098   1.326   0.938  0.00  0.00    +0.210 A 
ATOM      2  N   UNL     1       1.193   2.022   0.702  0.00  0.00    -0.121 NA
ATOM      3  N   UNL     1       2.307   1.461   0.395  0.00  0.00    -0.126 NA
ATOM      4  C   UNL     1       2.413   0.152   0.300  0.00  0.00    +0.212 A 
ATOM      5  C   UNL     1       1.270  -0.655   0.541  0.00  0.00    +0.312 A 
ATOM      6  O   UNL     1       1.333  -1.871   0.461  0.00  0.00    -0.262 OA
ATOM      7  N   UNL     1       0.111  -0.037   0.862  0.00  0.00    -0.205 N 
ATOM      8  N   UNL     1       3.634  -0.434  -0.035  0.00  0.00    -0.292 N 
ATOM      9  H   UNL     1       3.694  -1.518  -0.211  0.00  0.00    +0.154 HD
ENDROOT
BRANCH   8  10
ATOM     10  C   UNL     1       4.782   0.356  -0.148  0.00  0.00    +0.051 A 
ATOM     11  C   UNL     1       4.825   1.609   0.451  0.00  0.00    +0.026 A 
ATOM     12  C   UNL     1       5.960   2.388   0.338  0.00  0.00    +0.022 A 
ATOM     13  C   UNL     1       7.055   1.921  -0.369  0.00  0.00    +0.042 A 
ATOM     14  C   UNL     1       7.015   0.673  -0.967  0.00  0.00    +0.041 A 
ATOM     15  C   UNL     1       5.884  -0.113  -0.853  0.00  0.00    +0.063 A 
ATOM     16 CL   UNL     1       5.837  -1.681  -1.597  0.00  0.00    -0.082 Cl
ATOM     17 CL   UNL     1       8.479   2.903  -0.508  0.00  0.00    -0.083 Cl
ENDBRANCH   8  10
BRANCH   7  18
ATOM     18  N   UNL     1      -1.022  -0.760   1.105  0.00  0.00    -0.293 N 
ATOM     19  H   UNL     1      -0.999  -1.858   1.041  0.00  0.00    +0.163 HD
ATOM     20  H   UNL     1      -1.959  -0.244   1.365  0.00  0.00    +0.163 HD
ENDBRANCH   7  18
BRANCH   1  21
ATOM     21  S   UNL     1      -1.397   2.164   1.346  0.00  0.00    -0.080 S 
BRANCH  21  22
ATOM     22  C   UNL     1      -0.820   3.879   1.297  0.00  0.00    +0.112 C 
BRANCH  22  28
ATOM     23  C   UNL     1      -2.768   5.294   0.612  0.00  0.00    +0.006 A 
ATOM     24  C   UNL     1      -3.821   6.138   0.912  0.00  0.00    +0.020 A 
ATOM     25  C   UNL     1      -4.063   6.500   2.225  0.00  0.00    +0.041 A 
ATOM     26  C   UNL     1      -3.255   6.014   3.237  0.00  0.00    +0.020 A 
ATOM     27  C   UNL     1      -2.206   5.166   2.936  0.00  0.00    +0.006 A 
ATOM     28  C   UNL     1      -1.964   4.804   1.624  0.00  0.00    -0.037 A 
ATOM     29 CL   UNL     1      -5.381   7.565   2.603  0.00  0.00    -0.084 Cl
ENDBRANCH  22  28
ENDBRANCH  21  22
ENDBRANCH   1  21
TORSDOF 5
