REMARK  Name = ZINC09078927
REMARK  16 active torsions:
REMARK  status: ('A' for Active; 'I' for Inactive)
REMARK    1  A    between atoms: C_1  and  O_2
REMARK    2  A    between atoms: O_2  and  C_3
REMARK    3  A    between atoms: C_3  and  C_4
REMARK    4  A    between atoms: C_4  and  N_5
REMARK    5  A    between atoms: N_14  and  C_15
REMARK    6  A    between atoms: C_15  and  C_17
REMARK    7  A    between atoms: C_20  and  S_23
REMARK    8  A    between atoms: S_23  and  N_26
REMARK    9  A    between atoms: N_26  and  C_27
REMARK   10  A    between atoms: N_26  and  C_31
REMARK   11  A    between atoms: C_27  and  C_28
REMARK   12  A    between atoms: C_28  and  O_29
REMARK   13  A    between atoms: O_29  and  C_30
REMARK   14  A    between atoms: C_31  and  C_32
REMARK   15  A    between atoms: C_32  and  O_33
REMARK   16  A    between atoms: O_33  and  C_34
REMARK                            x       y       z     vdW  Elec       q    Type
REMARK                         _______ _______ _______ _____ _____    ______ ____
ROOT
ATOM      1  C   UNL     1      -2.529   6.895   0.063  0.00  0.00    +0.039 A 
ATOM      2  C   UNL     1      -3.882   6.557   0.068  0.00  0.00    +0.015 A 
ATOM      3  C   UNL     1      -4.839   7.551   0.088  0.00  0.00    +0.029 A 
ATOM      4  C   UNL     1      -4.458   8.881   0.091  0.00  0.00    +0.106 A 
ATOM      5  C   UNL     1      -3.118   9.223   0.080  0.00  0.00    +0.029 A 
ATOM      6  C   UNL     1      -2.152   8.238   0.066  0.00  0.00    +0.015 A 
ENDROOT
BRANCH   4   7
ATOM      7  S   UNL     1      -5.686  10.145   0.109  0.00  0.00    +0.061 S 
ATOM      8  O   UNL     1      -6.857   9.566   0.667  0.00  0.00    -0.153 OA
ATOM      9  O   UNL     1      -5.070  11.301   0.659  0.00  0.00    -0.153 OA
BRANCH   7  10
ATOM     10  N   UNL     1      -6.042  10.504  -1.468  0.00  0.00    -0.172 NA
BRANCH  10  11
ATOM     11  C   UNL     1      -7.109   9.779  -2.162  0.00  0.00    +0.137 C 
BRANCH  11  12
ATOM     12  C   UNL     1      -8.411  10.576  -2.069  0.00  0.00    +0.176 C 
BRANCH  12  13
ATOM     13  O   UNL     1      -8.268  11.808  -2.779  0.00  0.00    -0.382 OA
ATOM     14  C   UNL     1      -9.434  12.633  -2.754  0.00  0.00    +0.194 C 
ENDBRANCH  12  13
ENDBRANCH  11  12
ENDBRANCH  10  11
BRANCH  10  15
ATOM     15  C   UNL     1      -5.289  11.547  -2.170  0.00  0.00    +0.137 C 
BRANCH  15  16
ATOM     16  C   UNL     1      -4.143  10.907  -2.956  0.00  0.00    +0.176 C 
BRANCH  16  17
ATOM     17  O   UNL     1      -4.679  10.071  -3.984  0.00  0.00    -0.382 OA
ATOM     18  C   UNL     1      -3.686   9.422  -4.782  0.00  0.00    +0.194 C 
ENDBRANCH  16  17
ENDBRANCH  15  16
ENDBRANCH  10  15
ENDBRANCH   7  10
ENDBRANCH   4   7
BRANCH   1  19
ATOM     19  C   UNL     1      -1.497   5.832   0.047  0.00  0.00    +0.269 C 
ATOM     20  O   UNL     1      -0.315   6.131   0.037  0.00  0.00    -0.268 OA
BRANCH  19  30
ATOM     21  N   UNL     1      -1.114   2.245   0.019  0.00  0.00    -0.317 N 
ATOM     22  C   UNL     1      -0.017   1.402   0.010  0.00  0.00    +0.093 A 
ATOM     23  C   UNL     1       0.002  -0.004   0.002  0.00  0.00    +0.148 A 
ATOM     24  C   UNL     1       1.195  -0.691  -0.013  0.00  0.00    +0.040 A 
ATOM     25  C   UNL     1       2.408  -0.022  -0.021  0.00  0.00    +0.004 A 
ATOM     26  C   UNL     1       2.417   1.361  -0.013  0.00  0.00    +0.017 A 
ATOM     27  C   UNL     1       1.226   2.049   0.001  0.00  0.00    +0.042 A 
ATOM     28  S   UNL     1       0.789   3.770   0.014  0.00  0.00    -0.052 S 
ATOM     29  C   UNL     1      -0.936   3.593   0.029  0.00  0.00    +0.167 A 
ATOM     30  N   UNL     1      -1.862   4.546   0.044  0.00  0.00    -0.152 NA
ATOM     31  F   UNL     1      -1.163  -0.688   0.009  0.00  0.00    -0.203 F 
BRANCH  21  32
ATOM     32  C   UNL     1      -2.467   1.685   0.023  0.00  0.00    +0.152 C 
BRANCH  32  33
ATOM     33  C   UNL     1      -2.932   1.483   1.466  0.00  0.00    +0.181 C 
BRANCH  33  35
ATOM     34  C   UNL     1      -4.784   0.708   2.777  0.00  0.00    +0.194 C 
ATOM     35  O   UNL     1      -4.253   0.937   1.470  0.00  0.00    -0.381 OA
ENDBRANCH  33  35
ENDBRANCH  32  33
ENDBRANCH  21  32
ENDBRANCH  19  30
ENDBRANCH   1  19
TORSDOF 13
