REMARK  Name = ZINC02194342
REMARK  10 active torsions:
REMARK  status: ('A' for Active; 'I' for Inactive)
REMARK    1  A    between atoms: C_1  and  C_2
REMARK    2  A    between atoms: C_5  and  C_8
REMARK    3  A    between atoms: N_10  and  C_11
REMARK    4  A    between atoms: C_11  and  C_27
REMARK    5  A    between atoms: C_12  and  C_13
REMARK    6  A    between atoms: C_16  and  C_18
REMARK    7  A    between atoms: C_23  and  N_24
REMARK    8  A    between atoms: N_29  and  C_30
REMARK    9  A    between atoms: C_30  and  C_31
REMARK   10  A    between atoms: C_30  and  C_32
REMARK                            x       y       z     vdW  Elec       q    Type
REMARK                         _______ _______ _______ _____ _____    ______ ____
ROOT
ATOM      1  C   UNL     1       3.105  -5.035  -2.365  0.00  0.00    +0.100 C 
ATOM      2  C   UNL     1       2.373  -5.287  -1.196  0.00  0.00    +0.074 C 
ENDROOT
BRANCH   2   3
ATOM      3  C   UNL     1       1.856  -4.232  -0.461  0.00  0.00    +0.131 A 
ATOM      4  C   UNL     1       0.977  -4.336   0.714  0.00  0.00    +0.050 A 
ATOM      5  C   UNL     1       0.723  -3.064   1.114  0.00  0.00    +0.050 A 
ATOM      6  C   UNL     1       1.404  -2.193   0.228  0.00  0.00    +0.138 A 
ATOM      7  O   UNL     1       2.067  -2.917  -0.690  0.00  0.00    -0.455 OA
BRANCH   6   8
ATOM      8  C   UNL     1       1.392  -0.778   0.301  0.00  0.00    +0.047 A 
ATOM      9  C   UNL     1       0.172  -0.083   0.406  0.00  0.00    +0.014 A 
ATOM     10  C   UNL     1       0.173   1.282   0.476  0.00  0.00    +0.001 A 
ATOM     11  C   UNL     1       1.370   1.982   0.444  0.00  0.00    +0.002 A 
ATOM     12  C   UNL     1       2.578   1.308   0.340  0.00  0.00    +0.033 A 
ATOM     13  C   UNL     1       2.601  -0.056   0.269  0.00  0.00    +0.137 A 
BRANCH  13  14
ATOM     14  N   UNL     1       3.892  -0.773   0.159  0.00  0.00    +0.057 N 
ATOM     15  O   UNL     1       5.021  -0.095   0.129  0.00  0.00    -0.126 OA
ATOM     16  O   UNL     1       3.911  -2.088   0.091  0.00  0.00    -0.126 OA
ENDBRANCH  13  14
ENDBRANCH   6   8
ENDBRANCH   2   3
BRANCH   1  19
ATOM     17  C   UNL     1       4.133  -5.820  -4.312  0.00  0.00    +0.248 C 
ATOM     18  O   UNL     1       4.391  -4.678  -4.637  0.00  0.00    -0.270 OA
ATOM     19  N   UNL     1       3.524  -6.064  -3.135  0.00  0.00    -0.277 N 
ATOM     20  H   UNL     1       3.367  -7.100  -2.801  0.00  0.00    +0.155 HD
BRANCH  17  25
ATOM     21  C   UNL     1       5.509 -10.185  -7.798  0.00  0.00    +0.044 C 
ATOM     22  C   UNL     1       5.149  -9.042  -6.885  0.00  0.00    -0.050 A 
ATOM     23  C   UNL     1       5.444  -7.742  -7.259  0.00  0.00    +0.004 A 
ATOM     24  C   UNL     1       5.117  -6.691  -6.428  0.00  0.00    +0.013 A 
ATOM     25  C   UNL     1       4.486  -6.941  -5.207  0.00  0.00    +0.037 A 
ATOM     26  C   UNL     1       4.195  -8.255  -4.835  0.00  0.00    +0.013 A 
ATOM     27  C   UNL     1       4.524  -9.296  -5.677  0.00  0.00    +0.004 A 
ENDBRANCH  17  25
ENDBRANCH   1  19
BRANCH   1  28
ATOM     28  C   UNL     1       3.421  -3.635  -2.757  0.00  0.00    +0.259 C 
ATOM     29  O   UNL     1       4.485  -3.142  -2.443  0.00  0.00    -0.269 OA
ATOM     30  N   UNL     1       2.526  -2.914  -3.462  0.00  0.00    -0.308 N 
ATOM     31  H   UNL     1       1.532  -3.332  -3.679  0.00  0.00    +0.149 HD
BRANCH  30  32
ATOM     32  C   UNL     1       2.878  -1.573  -3.938  0.00  0.00    +0.067 C 
ATOM     33  C   UNL     1       3.618  -1.684  -5.272  0.00  0.00    +0.027 C 
ATOM     34  C   UNL     1       1.602  -0.750  -4.129  0.00  0.00    +0.027 C 
ENDBRANCH  30  32
ENDBRANCH   1  28
TORSDOF 7
