REMARK  Name = ZINC01128735
REMARK  10 active torsions:
REMARK  status: ('A' for Active; 'I' for Inactive)
REMARK    1  A    between atoms: C_1  and  C_2
REMARK    2  A    between atoms: C_2  and  C_3
REMARK    3  A    between atoms: C_2  and  C_4
REMARK    4  A    between atoms: C_2  and  C_5
REMARK    5  A    between atoms: C_12  and  N_18
REMARK    6  A    between atoms: C_13  and  C_14
REMARK    7  A    between atoms: C_14  and  O_16
REMARK    8  A    between atoms: O_16  and  C_17
REMARK    9  A    between atoms: C_19  and  C_21
REMARK   10  A    between atoms: C_21  and  C_22
REMARK                            x       y       z     vdW  Elec       q    Type
REMARK                         _______ _______ _______ _____ _____    ______ ____
ROOT
ATOM      1  N   UNL     1      -5.238   2.129   5.805  0.00  0.00    -0.279 N 
ATOM      2  C   UNL     1      -6.529   1.915   5.485  0.00  0.00    +0.220 C 
ATOM      3  O   UNL     1      -6.832   1.630   4.346  0.00  0.00    -0.275 OA
ATOM      4  H   UNL     1      -4.995   2.357   6.716  0.00  0.00    +0.155 HD
ENDROOT
BRANCH   1  11
ATOM      5  C   UNL     1      -0.735   2.019   1.269  0.00  0.00    -0.000 C 
ATOM      6  C   UNL     1       0.004   1.513   2.512  0.00  0.00    +0.009 C 
ATOM      7  C   UNL     1      -0.552   2.197   3.762  0.00  0.00    +0.037 C 
ATOM      8  C   UNL     1      -2.067   2.034   3.778  0.00  0.00    -0.021 A 
ATOM      9  C   UNL     1      -2.744   1.711   2.655  0.00  0.00    -0.004 A 
ATOM     10  S   UNL     1      -4.440   1.633   3.155  0.00  0.00    -0.077 S 
ATOM     11  C   UNL     1      -4.256   2.023   4.833  0.00  0.00    +0.086 A 
ATOM     12  C   UNL     1      -2.886   2.205   4.967  0.00  0.00    +0.091 A 
ATOM     13  C   UNL     1      -2.171   1.475   1.292  0.00  0.00    +0.046 C 
BRANCH   5  15
ATOM     14  C   UNL     1       0.002  -0.004   0.002  0.00  0.00    +0.011 C 
ATOM     15  C   UNL     1      -0.019   1.526   0.010  0.00  0.00    -0.035 C 
ATOM     16  C   UNL     1       1.417   2.055  -0.000  0.00  0.00    +0.011 C 
ATOM     17  C   UNL     1      -0.759   2.033  -1.229  0.00  0.00    +0.011 C 
ENDBRANCH   5  15
BRANCH  12  18
ATOM     18  C   UNL     1      -2.288   2.555   6.257  0.00  0.00    +0.342 C 
ATOM     19  O   UNL     1      -2.153   3.724   6.567  0.00  0.00    -0.245 OA
BRANCH  18  20
ATOM     20  O   UNL     1      -1.887   1.583   7.101  0.00  0.00    -0.464 OA
ATOM     21  C   UNL     1      -1.304   2.003   8.362  0.00  0.00    +0.280 C 
ENDBRANCH  18  20
ENDBRANCH  12  18
ENDBRANCH   1  11
BRANCH   2  22
ATOM     22  C   UNL     1      -7.597   2.030   6.542  0.00  0.00    +0.127 C 
BRANCH  22  23
ATOM     23  C   UNL     1      -8.964   1.741   5.920  0.00  0.00    +0.166 C 
ATOM     24  C   UNL     1     -10.020   1.746   6.997  0.00  0.00    +0.238 C 
ATOM     25  O   UNL     1     -10.303   0.712   7.564  0.00  0.00    -0.273 OA
ATOM     26  N   UNL     1     -10.651   2.885   7.335  0.00  0.00    -0.282 N 
ATOM     27  C   UNL     1     -10.449   4.062   6.606  0.00  0.00    +0.055 A 
ATOM     28  C   UNL     1     -10.927   5.275   7.077  0.00  0.00    +0.025 A 
ATOM     29  C   UNL     1     -10.700   6.432   6.355  0.00  0.00    +0.002 A 
ATOM     30  C   UNL     1      -9.998   6.387   5.164  0.00  0.00    +0.002 A 
ATOM     31  C   UNL     1      -9.521   5.180   4.684  0.00  0.00    +0.025 A 
ATOM     32  C   UNL     1      -9.749   4.018   5.400  0.00  0.00    +0.049 A 
ATOM     33  N   UNL     1      -9.284   2.780   4.931  0.00  0.00    -0.331 N 
ATOM     34  H   UNL     1     -11.254   2.890   8.095  0.00  0.00    +0.155 HD
ATOM     35  H   UNL     1      -9.177   2.615   3.981  0.00  0.00    +0.147 HD
ENDBRANCH  22  23
ENDBRANCH   2  22
TORSDOF 6
