REMARK  Name = ZINC58417631
REMARK  6 active torsions:
REMARK  status: ('A' for Active; 'I' for Inactive)
REMARK    1  A    between atoms: C_1  and  C_2
REMARK    2  A    between atoms: C_2  and  C_4
REMARK    3  A    between atoms: C_2  and  N_12
REMARK    4  A    between atoms: C_4  and  C_5
REMARK    5  A    between atoms: C_5  and  C_6
REMARK    6  A    between atoms: C_13  and  C_15
REMARK                            x       y       z     vdW  Elec       q    Type
REMARK                         _______ _______ _______ _____ _____    ______ ____
ROOT
ATOM      1  C   UNL     1       2.764  -1.086   2.364  0.00  0.00    +0.103 A 
ATOM      2  C   UNL     1       4.114  -1.237   2.475  0.00  0.00    +0.041 A 
ATOM      3  C   UNL     1       4.384  -1.724   3.767  0.00  0.00    +0.008 A 
ATOM      4  C   UNL     1       5.612  -2.079   4.479  0.00  0.00    -0.009 A 
ATOM      5  C   UNL     1       6.868  -1.965   3.876  0.00  0.00    +0.009 A 
ATOM      6  C   UNL     1       7.988  -2.308   4.577  0.00  0.00    +0.001 A 
ATOM      7  C   UNL     1       7.895  -2.770   5.886  0.00  0.00    +0.001 A 
ATOM      8  C   UNL     1       6.686  -2.894   6.502  0.00  0.00    +0.008 A 
ATOM      9  C   UNL     1       5.514  -2.550   5.809  0.00  0.00    -0.017 A 
ATOM     10  C   UNL     1       4.247  -2.665   6.416  0.00  0.00    +0.010 A 
ATOM     11  C   UNL     1       3.117  -2.333   5.747  0.00  0.00    +0.027 A 
ATOM     12  C   UNL     1       3.154  -1.861   4.427  0.00  0.00    +0.048 A 
ATOM     13  N   UNL     1       2.174  -1.460   3.554  0.00  0.00    -0.351 N 
ATOM     14  H   UNL     1       1.222  -1.445   3.741  0.00  0.00    +0.166 HD
ENDROOT
BRANCH   1  16
ATOM     15  N   UNL     1       0.711  -0.489   1.189  0.00  0.00    -0.308 N 
ATOM     16  C   UNL     1       2.054  -0.600   1.174  0.00  0.00    +0.261 C 
ATOM     17  O   UNL     1       2.678  -0.296   0.174  0.00  0.00    -0.269 OA
ATOM     18  H   UNL     1       0.213  -0.731   1.986  0.00  0.00    +0.149 HD
BRANCH  15  20
ATOM     19  C   UNL     1      -0.019   1.526   0.010  0.00  0.00    +0.028 C 
ATOM     20  C   UNL     1       0.002  -0.004   0.002  0.00  0.00    +0.070 C 
BRANCH  20  21
ATOM     21  C   UNL     1      -1.433  -0.534   0.013  0.00  0.00    +0.024 C 
BRANCH  21  22
ATOM     22  C   UNL     1      -1.416  -2.058  -0.121  0.00  0.00    +0.033 C 
BRANCH  22  23
ATOM     23  C   UNL     1      -2.851  -2.587  -0.110  0.00  0.00    +0.118 C 
ATOM     24  C   UNL     1      -2.840  -4.131  -0.123  0.00  0.00    +0.034 C 
ATOM     25  C   UNL     1      -4.025  -4.461  -1.071  0.00  0.00    +0.031 C 
ATOM     26  C   UNL     1      -3.936  -3.284  -2.075  0.00  0.00    +0.160 C 
ATOM     27  O   UNL     1      -3.540  -2.148  -1.287  0.00  0.00    -0.377 OA
ENDBRANCH  22  23
ENDBRANCH  21  22
ENDBRANCH  20  21
ENDBRANCH  15  20
ENDBRANCH   1  16
TORSDOF 5
