REMARK  Name = ZINC39583589
REMARK  6 active torsions:
REMARK  status: ('A' for Active; 'I' for Inactive)
REMARK    1  A    between atoms: C_1  and  C_2
REMARK    2  A    between atoms: C_2  and  N_3
REMARK    3  A    between atoms: C_4  and  C_22
REMARK    4  A    between atoms: C_8  and  S_10
REMARK    5  A    between atoms: S_10  and  C_11
REMARK    6  A    between atoms: C_11  and  C_12
REMARK                            x       y       z     vdW  Elec       q    Type
REMARK                         _______ _______ _______ _____ _____    ______ ____
ROOT
ATOM      1  N   UNL     1      -1.382  -0.512   0.012  0.00  0.00    -0.258 NA
ATOM      2  C   UNL     1      -1.405  -1.978  -0.238  0.00  0.00    +0.171 C 
ATOM      3  N   UNL     1      -2.697  -2.395   0.368  0.00  0.00    -0.233 NA
ATOM      4  N   UNL     1      -2.821  -1.569   1.572  0.00  0.00    -0.229 NA
ATOM      5  C   UNL     1      -1.991  -0.367   1.355  0.00  0.00    +0.200 C 
ATOM      6  H   UNL     1      -3.464  -2.228  -0.266  0.00  0.00    +0.143 HD
ATOM      7  H   UNL     1      -2.517  -2.075   2.390  0.00  0.00    +0.143 HD
ENDROOT
BRANCH   2   8
ATOM      8  C   UNL     1      -1.387  -2.268  -1.716  0.00  0.00    -0.015 A 
ATOM      9  C   UNL     1      -0.419  -3.101  -2.245  0.00  0.00    +0.006 A 
ATOM     10  C   UNL     1      -0.402  -3.367  -3.602  0.00  0.00    +0.000 A 
ATOM     11  C   UNL     1      -1.353  -2.799  -4.429  0.00  0.00    +0.000 A 
ATOM     12  C   UNL     1      -2.321  -1.967  -3.900  0.00  0.00    +0.000 A 
ATOM     13  C   UNL     1      -2.341  -1.704  -2.543  0.00  0.00    +0.006 A 
ENDBRANCH   2   8
BRANCH   1  15
ATOM     14  C   UNL     1      -0.033   1.531  -0.013  0.00  0.00    +0.020 C 
ATOM     15  C   UNL     1      -0.006   0.002   0.001  0.00  0.00    +0.085 C 
ENDBRANCH   1  15
BRANCH   5  16
ATOM     16  S   UNL     1      -3.027   1.121   1.409  0.00  0.00    -0.117 S 
BRANCH  16  17
ATOM     17  C   UNL     1      -4.277   0.834   0.126  0.00  0.00    +0.146 C 
BRANCH  17  18
ATOM     18  C   UNL     1      -5.215   2.011   0.065  0.00  0.00    +0.118 A 
ATOM     19  N   UNL     1      -6.358   2.135   0.791  0.00  0.00    -0.341 N 
ATOM     20  H   UNL     1      -6.707   1.492   1.428  0.00  0.00    +0.167 HD
ATOM     21  C   UNL     1      -6.930   3.346   0.454  0.00  0.00    +0.066 A 
ATOM     22  C   UNL     1      -8.079   4.016   0.851  0.00  0.00    +0.028 A 
ATOM     23  C   UNL     1      -8.373   5.248   0.306  0.00  0.00    +0.002 A 
ATOM     24  C   UNL     1      -7.529   5.821  -0.635  0.00  0.00    +0.002 A 
ATOM     25  C   UNL     1      -6.394   5.175  -1.037  0.00  0.00    +0.030 A 
ATOM     26  C   UNL     1      -6.076   3.926  -0.498  0.00  0.00    +0.089 A 
ATOM     27  N   UNL     1      -5.046   3.061  -0.685  0.00  0.00    -0.232 NA
ENDBRANCH  17  18
ENDBRANCH  16  17
ENDBRANCH   5  16
TORSDOF 5
