REMARK  Name = ZINC05673247
REMARK  5 active torsions:
REMARK  status: ('A' for Active; 'I' for Inactive)
REMARK    1  A    between atoms: C_16  and  C_18
REMARK    2  A    between atoms: C_18  and  S_19
REMARK    3  A    between atoms: S_19  and  C_20
REMARK    4  A    between atoms: C_23  and  C_27
REMARK    5  A    between atoms: C_24  and  N_26
REMARK                            x       y       z     vdW  Elec       q    Type
REMARK                         _______ _______ _______ _____ _____    ______ ____
ROOT
ATOM      1  C   UNL     1       2.504   1.361  -4.104  0.00  0.00    +0.000 A 
ATOM      2  C   UNL     1       2.855   1.602  -2.788  0.00  0.00    +0.002 A 
ATOM      3  C   UNL     1       2.192   0.931  -1.782  0.00  0.00    +0.024 A 
ATOM      4  C   UNL     1       1.175   0.025  -2.087  0.00  0.00    +0.044 A 
ATOM      5  C   UNL     1       0.790  -0.192  -3.395  0.00  0.00    -0.025 A 
ATOM      6  C   UNL     1       1.488   0.482  -4.401  0.00  0.00    +0.005 A 
ATOM      7  C   UNL     1      -0.332  -1.077  -3.890  0.00  0.00    +0.042 C 
ATOM      8  C   UNL     1      -1.093  -1.760  -2.766  0.00  0.00    +0.042 C 
ATOM      9  C   UNL     1      -0.199  -2.674  -1.966  0.00  0.00    -0.025 A 
ATOM     10  C   UNL     1      -0.206  -4.042  -2.114  0.00  0.00    +0.005 A 
ATOM     11  C   UNL     1       0.613  -4.804  -1.293  0.00  0.00    +0.000 A 
ATOM     12  C   UNL     1       1.419  -4.196  -0.349  0.00  0.00    +0.002 A 
ATOM     13  C   UNL     1       1.431  -2.817  -0.219  0.00  0.00    +0.024 A 
ATOM     14  C   UNL     1       0.618  -2.066  -1.051  0.00  0.00    +0.044 A 
ATOM     15  N   UNL     1       0.585  -0.664  -1.018  0.00  0.00    -0.239 N 
ATOM     16  C   UNL     1       0.002  -0.004   0.002  0.00  0.00    +0.234 C 
ATOM     17  O   UNL     1      -0.506  -0.623   0.913  0.00  0.00    -0.274 OA
ENDROOT
BRANCH  16  18
ATOM     18  C   UNL     1      -0.018   1.503   0.010  0.00  0.00    +0.174 C 
BRANCH  18  19
ATOM     19  S   UNL     1      -0.866   2.087   1.500  0.00  0.00    -0.077 S 
BRANCH  19  20
ATOM     20  C   UNL     1      -0.747   3.828   1.257  0.00  0.00    +0.190 A 
ATOM     21  N   UNL     1      -0.133   4.285   0.172  0.00  0.00    -0.229 NA
ATOM     22  C   UNL     1      -0.024   5.582  -0.055  0.00  0.00    +0.136 A 
ATOM     23  C   UNL     1      -0.558   6.482   0.874  0.00  0.00    +0.109 A 
ATOM     24  C   UNL     1      -1.199   5.957   2.018  0.00  0.00    +0.138 A 
ATOM     25  N   UNL     1      -1.268   4.640   2.165  0.00  0.00    -0.206 NA
BRANCH  24  26
ATOM     26  N   UNL     1      -1.744   6.800   2.966  0.00  0.00    -0.342 N 
ATOM     27  H   UNL     1      -2.182   6.430   3.748  0.00  0.00    +0.144 HD
ATOM     28  H   UNL     1      -1.688   7.761   2.849  0.00  0.00    +0.144 HD
ENDBRANCH  24  26
BRANCH  23  29
ATOM     29  C   UNL     1      -0.457   7.896   0.670  0.00  0.00    +0.104 C 
ATOM     30  N   UNL     1      -0.377   9.017   0.509  0.00  0.00    -0.191 NA
ENDBRANCH  23  29
ENDBRANCH  19  20
ENDBRANCH  18  19
ENDBRANCH  16  18
TORSDOF 5
