REMARK  Name = ZINC40820908
REMARK  7 active torsions:
REMARK  status: ('A' for Active; 'I' for Inactive)
REMARK    1  A    between atoms: C_1  and  C_2
REMARK    2  A    between atoms: C_2  and  N_3
REMARK    3  A    between atoms: C_5  and  C_14
REMARK    4  A    between atoms: C_10  and  O_12
REMARK    5  A    between atoms: O_12  and  C_13
REMARK    6  A    between atoms: C_20  and  C_22
REMARK    7  A    between atoms: C_24  and  N_28
REMARK                            x       y       z     vdW  Elec       q    Type
REMARK                         _______ _______ _______ _____ _____    ______ ____
ROOT
ATOM      1  C   UNL     1       0.614  -1.671  -4.451  0.00  0.00    +0.109 C 
ATOM      2  C   UNL     1       0.426  -3.192  -4.264  0.00  0.00    +0.029 C 
ATOM      3  C   UNL     1      -0.758  -3.515  -5.213  0.00  0.00    +0.021 C 
ATOM      4  C   UNL     1      -1.625  -2.239  -5.074  0.00  0.00    +0.109 C 
ATOM      5  N   UNL     1      -0.654  -1.131  -4.962  0.00  0.00    -0.290 N 
ATOM      6  C   UNL     1      -0.889   0.159  -5.275  0.00  0.00    +0.249 C 
ATOM      7  O   UNL     1      -0.031   0.997  -5.079  0.00  0.00    -0.270 OA
ENDROOT
BRANCH   1  10
ATOM      8  N   UNL     1       0.749   0.015  -1.181  0.00  0.00    -0.347 N 
ATOM      9  C   UNL     1       0.082  -0.459  -2.276  0.00  0.00    +0.092 A 
ATOM     10  C   UNL     1       0.948  -1.030  -3.128  0.00  0.00    -0.002 A 
ATOM     11  C   UNL     1       2.280  -0.912  -2.529  0.00  0.00    +0.008 A 
ATOM     12  C   UNL     1       2.098  -0.241  -1.307  0.00  0.00    +0.050 A 
ATOM     13  C   UNL     1       3.200   0.027  -0.501  0.00  0.00    +0.030 A 
ATOM     14  C   UNL     1       4.458  -0.362  -0.905  0.00  0.00    +0.047 A 
ATOM     15  C   UNL     1       4.642  -1.023  -2.116  0.00  0.00    +0.121 A 
ATOM     16  C   UNL     1       3.559  -1.306  -2.926  0.00  0.00    +0.056 A 
BRANCH   8  18
ATOM     17  C   UNL     1       0.197   2.212  -0.259  0.00  0.00    +0.027 C 
ATOM     18  C   UNL     1       0.124   0.699  -0.045  0.00  0.00    +0.118 C 
ENDBRANCH   8  18
BRANCH  15  19
ATOM     19  O   UNL     1       5.891  -1.400  -2.500  0.00  0.00    -0.495 OA
ATOM     20  C   UNL     1       6.965  -1.084  -1.612  0.00  0.00    +0.277 C 
ENDBRANCH  15  19
ENDBRANCH   1  10
BRANCH   6  21
ATOM     21  C   UNL     1      -2.190   0.553  -5.855  0.00  0.00    +0.057 A 
ATOM     22  C   UNL     1      -3.337  -0.210  -5.612  0.00  0.00    +0.038 A 
ATOM     23  C   UNL     1      -4.536   0.205  -6.181  0.00  0.00    +0.044 A 
ATOM     24  C   UNL     1      -4.552   1.354  -6.964  0.00  0.00    +0.133 A 
ATOM     25  N   UNL     1      -3.451   2.049  -7.172  0.00  0.00    -0.261 NA
ATOM     26  C   UNL     1      -2.295   1.696  -6.649  0.00  0.00    +0.123 A 
BRANCH  23  27
ATOM     27  N   UNL     1      -5.710  -0.523  -5.969  0.00  0.00    -0.357 N 
ATOM     28  H   UNL     1      -5.691  -1.324  -5.422  0.00  0.00    +0.142 HD
ATOM     29  H   UNL     1      -6.543  -0.228  -6.369  0.00  0.00    +0.142 HD
ENDBRANCH  23  27
ENDBRANCH   6  21
TORSDOF 5
