REMARK  Name = ZINC43252856
REMARK  9 active torsions:
REMARK  status: ('A' for Active; 'I' for Inactive)
REMARK    1  A    between atoms: C_1  and  C_2
REMARK    2  A    between atoms: C_2  and  C_3
REMARK    3  A    between atoms: C_3  and  C_5
REMARK    4  A    between atoms: C_3  and  N_22
REMARK    5  A    between atoms: C_5  and  C_7
REMARK    6  A    between atoms: C_5  and  N_13
REMARK    7  A    between atoms: C_16  and  N_19
REMARK    8  A    between atoms: N_19  and  C_20
REMARK    9  A    between atoms: N_19  and  C_21
REMARK                            x       y       z     vdW  Elec       q    Type
REMARK                         _______ _______ _______ _____ _____    ______ ____
ROOT
ATOM      1  C   UNL     1       0.872  -2.034   1.171  0.00  0.00    +0.079 C 
ENDROOT
BRANCH   1   2
ATOM      2  C   UNL     1       1.266  -2.808   2.402  0.00  0.00    +0.007 A 
ATOM      3  C   UNL     1       0.488  -3.236   3.426  0.00  0.00    +0.014 A 
ATOM      4  C   UNL     1       1.073  -3.938   4.465  0.00  0.00    +0.028 A 
ATOM      5  C   UNL     1       2.408  -4.177   4.426  0.00  0.00    +0.078 A 
ATOM      6  S   UNL     1       2.877  -3.406   2.886  0.00  0.00    -0.080 S 
ATOM      7 CL   UNL     1       3.400  -5.021   5.574  0.00  0.00    -0.076 Cl
ENDBRANCH   1   2
BRANCH   1   8
ATOM      8  N   UNL     1       1.418  -2.697  -0.021  0.00  0.00    -0.297 NA
ATOM      9  C   UNL     1       2.885  -2.621  -0.039  0.00  0.00    +0.083 C 
ATOM     10  C   UNL     1       3.410  -3.190  -1.359  0.00  0.00    +0.000 C 
ATOM     11  C   UNL     1       2.954  -4.646  -1.499  0.00  0.00    -0.067 C 
ATOM     12  C   UNL     1       1.425  -4.702  -1.427  0.00  0.00    +0.000 C 
ATOM     13  C   UNL     1       0.958  -4.089  -0.105  0.00  0.00    +0.083 C 
BRANCH  11  14
ATOM     14  N   UNL     1       3.405  -5.180  -2.790  0.00  0.00    +0.378 N 
ATOM     15  C   UNL     1       4.871  -5.117  -2.861  0.00  0.00    -0.096 C 
ATOM     16  C   UNL     1       2.968  -6.576  -2.923  0.00  0.00    -0.096 C 
ATOM     17  H   UNL     1       3.009  -4.630  -3.538  0.00  0.00    -0.082 HD
ENDBRANCH  11  14
ENDBRANCH   1   8
BRANCH   1  18
ATOM     18  C   UNL     1       1.428  -0.612   1.263  0.00  0.00    -0.053 C 
BRANCH  18  19
ATOM     19  N   UNL     1       0.882   0.052   2.454  0.00  0.00    +0.381 N 
ATOM     20  H   UNL     1      -0.124   0.088   2.387  0.00  0.00    -0.090 HD
ATOM     21  H   UNL     1       1.146  -0.467   3.279  0.00  0.00    -0.090 HD
ATOM     22  H   UNL     1       1.249   0.990   2.515  0.00  0.00    -0.090 HD
ENDBRANCH  18  19
BRANCH  18  24
ATOM     23  C   UNL     1       1.687   1.555   0.046  0.00  0.00    +0.002 C 
ATOM     24  C   UNL     1       1.028   0.175   0.013  0.00  0.00    -0.018 C 
ENDBRANCH  18  24
ENDBRANCH   1  18
TORSDOF 6
