REMARK  Name = ZINC27528762
REMARK  7 active torsions:
REMARK  status: ('A' for Active; 'I' for Inactive)
REMARK    1  A    between atoms: C_3  and  N_16
REMARK    2  A    between atoms: C_6  and  C_7
REMARK    3  A    between atoms: C_7  and  C_8
REMARK    4  A    between atoms: C_8  and  N_9
REMARK    5  A    between atoms: N_9  and  C_10
REMARK    6  A    between atoms: N_16  and  C_17
REMARK    7  A    between atoms: C_17  and  C_18
REMARK                            x       y       z     vdW  Elec       q    Type
REMARK                         _______ _______ _______ _____ _____    ______ ____
ROOT
ATOM      1  C   UNL     1      -0.013   1.076   0.008  0.00  0.00    +0.005 A 
ATOM      2  C   UNL     1      -1.218   1.749   0.017  0.00  0.00    +0.023 A 
ATOM      3  C   UNL     1      -1.236   3.138   0.031  0.00  0.00    +0.027 A 
ATOM      4  C   UNL     1      -0.040   3.845   0.023  0.00  0.00    +0.023 A 
ATOM      5  C   UNL     1       1.162   3.166   0.008  0.00  0.00    +0.005 A 
ATOM      6  C   UNL     1       1.176   1.783   0.000  0.00  0.00    -0.049 A 
ENDROOT
BRANCH   3   7
ATOM      7  N   UNL     1      -2.454   3.822   0.046  0.00  0.00    -0.343 N 
ATOM      8  H   UNL     1      -2.466   4.922   0.053  0.00  0.00    +0.146 HD
BRANCH   7   9
ATOM      9  C   UNL     1      -3.714   3.075   0.054  0.00  0.00    +0.109 C 
BRANCH   9  10
ATOM     10  C   UNL     1      -4.888   4.056   0.071  0.00  0.00    +0.060 C 
ATOM     11  C   UNL     1      -4.955   4.860  -1.247  0.00  0.00    +0.129 C 
ATOM     12  C   UNL     1      -6.083   4.224  -2.032  0.00  0.00    +0.308 C 
ATOM     13  O   UNL     1      -6.473   4.598  -3.112  0.00  0.00    -0.251 OA
ATOM     14  O   UNL     1      -6.583   3.184  -1.348  0.00  0.00    -0.458 OA
ATOM     15  C   UNL     1      -6.234   3.304   0.058  0.00  0.00    +0.118 C 
ATOM     16  C   UNL     1      -7.289   4.111   0.806  0.00  0.00    +0.048 C 
ATOM     17  C   UNL     1      -8.623   3.361   0.775  0.00  0.00    +0.004 C 
ATOM     18  C   UNL     1      -8.451   1.988   1.428  0.00  0.00    +0.000 C 
ATOM     19  C   UNL     1      -7.404   1.182   0.656  0.00  0.00    +0.004 C 
ATOM     20  C   UNL     1      -6.066   1.924   0.687  0.00  0.00    +0.048 C 
ENDBRANCH   9  10
ENDBRANCH   7   9
ENDBRANCH   3   7
BRANCH   6  21
ATOM     21  C   UNL     1       2.490   1.044  -0.017  0.00  0.00    +0.016 C 
BRANCH  21  22
ATOM     22  C   UNL     1       2.920   0.803  -1.465  0.00  0.00    -0.078 C 
BRANCH  22  23
ATOM     23  N   UNL     1       4.201   0.083  -1.481  0.00  0.00    +0.381 N 
ATOM     24  H   UNL     1       4.965   0.683  -0.967  0.00  0.00    -0.086 HD
ATOM     25  H   UNL     1       4.085  -0.882  -0.967  0.00  0.00    -0.086 HD
BRANCH  23  26
ATOM     26  C   UNL     1       4.646  -0.167  -2.859  0.00  0.00    -0.072 C 
ATOM     27  C   UNL     1       3.994  -1.449  -3.381  0.00  0.00    -0.016 C 
ATOM     28  C   UNL     1       4.458  -1.709  -4.815  0.00  0.00    -0.002 C 
ATOM     29  C   UNL     1       5.980  -1.865  -4.839  0.00  0.00    -0.000 C 
ATOM     30  C   UNL     1       6.632  -0.583  -4.316  0.00  0.00    -0.002 C 
ATOM     31  C   UNL     1       6.168  -0.323  -2.882  0.00  0.00    -0.016 C 
ENDBRANCH  23  26
ENDBRANCH  22  23
ENDBRANCH  21  22
ENDBRANCH   6  21
TORSDOF 7
