REMARK  Name = ZINC13496804
REMARK  8 active torsions:
REMARK  status: ('A' for Active; 'I' for Inactive)
REMARK    1  A    between atoms: C_4  and  C_7
REMARK    2  A    between atoms: C_7  and  C_8
REMARK    3  A    between atoms: C_8  and  N_9
REMARK    4  A    between atoms: N_9  and  C_10
REMARK    5  A    between atoms: C_10  and  N_12
REMARK    6  A    between atoms: N_12  and  C_13
REMARK    7  A    between atoms: C_16  and  S_19
REMARK    8  A    between atoms: S_19  and  N_22
REMARK                            x       y       z     vdW  Elec       q    Type
REMARK                         _______ _______ _______ _____ _____    ______ ____
ROOT
ATOM      1  N   UNL     1       7.226  -2.671   2.526  0.00  0.00    -0.297 N 
ATOM      2  H   UNL     1       7.707  -2.699   1.683  0.00  0.00    +0.154 HD
ENDROOT
BRANCH   1   3
ATOM      3  C   UNL     1       7.901  -2.926   3.724  0.00  0.00    +0.033 A 
ATOM      4  C   UNL     1       7.340  -3.773   4.672  0.00  0.00    +0.025 A 
ATOM      5  C   UNL     1       8.009  -4.023   5.854  0.00  0.00    +0.030 A 
ATOM      6  C   UNL     1       9.235  -3.432   6.095  0.00  0.00    +0.105 A 
ATOM      7  C   UNL     1       9.797  -2.589   5.153  0.00  0.00    +0.030 A 
ATOM      8  C   UNL     1       9.136  -2.339   3.967  0.00  0.00    +0.025 A 
BRANCH   6   9
ATOM      9  S   UNL     1      10.085  -3.753   7.605  0.00  0.00    +0.056 S 
ATOM     10  O   UNL     1      10.957  -2.652   7.822  0.00  0.00    -0.153 OA
ATOM     11  O   UNL     1       9.098  -4.142   8.551  0.00  0.00    -0.153 OA
BRANCH   9  12
ATOM     12  N   UNL     1      11.048  -5.077   7.353  0.00  0.00    -0.204 NA
ATOM     13  H   UNL     1      11.879  -5.172   7.843  0.00  0.00    +0.144 HD
ATOM     14  H   UNL     1      10.780  -5.757   6.715  0.00  0.00    +0.144 HD
ENDBRANCH   9  12
ENDBRANCH   6   9
ENDBRANCH   1   3
BRANCH   1  15
ATOM     15  C   UNL     1       5.909  -2.387   2.541  0.00  0.00    +0.135 C 
ATOM     16  S   UNL     1       5.038  -2.445   4.014  0.00  0.00    -0.019 S 
BRANCH  15  17
ATOM     17  N   UNL     1       5.277  -2.057   1.397  0.00  0.00    -0.326 N 
ATOM     18  H   UNL     1       5.771  -2.025   0.563  0.00  0.00    +0.148 HD
BRANCH  17  19
ATOM     19  C   UNL     1       3.845  -1.748   1.414  0.00  0.00    +0.108 C 
BRANCH  19  20
ATOM     20  C   UNL     1       3.380  -1.409  -0.004  0.00  0.00    +0.054 C 
BRANCH  20  24
ATOM     21  C   UNL     1      -0.795  -0.508   0.043  0.00  0.00    +0.000 A 
ATOM     22  C   UNL     1       0.132   0.500   0.231  0.00  0.00    +0.000 A 
ATOM     23  C   UNL     1       1.483   0.209   0.216  0.00  0.00    +0.004 A 
ATOM     24  C   UNL     1       1.907  -1.091   0.014  0.00  0.00    -0.046 A 
ATOM     25  C   UNL     1       0.980  -2.100  -0.173  0.00  0.00    +0.004 A 
ATOM     26  C   UNL     1      -0.371  -1.808  -0.159  0.00  0.00    +0.000 A 
ENDBRANCH  20  24
ENDBRANCH  19  20
ENDBRANCH  17  19
ENDBRANCH  15  17
ENDBRANCH   1  15
TORSDOF 8
