REMARK  Name = ZINC40170110
REMARK  7 active torsions:
REMARK  status: ('A' for Active; 'I' for Inactive)
REMARK    1  A    between atoms: C_1  and  C_2
REMARK    2  A    between atoms: C_2  and  C_3
REMARK    3  A    between atoms: C_3  and  C_5
REMARK    4  A    between atoms: C_3  and  S_14
REMARK    5  A    between atoms: C_10  and  C_13
REMARK    6  A    between atoms: S_14  and  C_15
REMARK    7  A    between atoms: C_26  and  C_28
REMARK                            x       y       z     vdW  Elec       q    Type
REMARK                         _______ _______ _______ _____ _____    ______ ____
ROOT
ATOM      1  S   UNL     1      -2.236   0.074  -1.365  0.00  0.00    -0.073 S 
ENDROOT
BRANCH   1   2
ATOM      2  C   UNL     1      -2.066   1.826  -1.281  0.00  0.00    +0.197 A 
ATOM      3  N   UNL     1      -1.500   2.510  -0.311  0.00  0.00    -0.122 NA
ATOM      4  N   UNL     1      -1.547   3.768  -0.569  0.00  0.00    -0.129 NA
ATOM      5  C   UNL     1      -2.149   3.967  -1.727  0.00  0.00    +0.162 A 
ATOM      6  N   UNL     1      -2.492   2.726  -2.214  0.00  0.00    -0.270 N 
ATOM      7  C   UNL     1      -3.142   2.596  -3.429  0.00  0.00    +0.058 A 
ATOM      8  C   UNL     1      -3.492   1.346  -3.922  0.00  0.00    +0.027 A 
ATOM      9  C   UNL     1      -4.139   1.240  -5.136  0.00  0.00    +0.002 A 
ATOM     10  C   UNL     1      -4.446   2.374  -5.874  0.00  0.00    +0.001 A 
ATOM     11  C   UNL     1      -4.108   3.623  -5.404  0.00  0.00    +0.010 A 
ATOM     12  C   UNL     1      -3.452   3.746  -4.176  0.00  0.00    +0.002 A 
ATOM     13  C   UNL     1      -3.079   5.063  -3.650  0.00  0.00    -0.038 A 
ATOM     14  C   UNL     1      -2.452   5.142  -2.454  0.00  0.00    +0.052 A 
ATOM     15  C   UNL     1      -3.398   6.314  -4.428  0.00  0.00    +0.044 C 
ENDBRANCH   1   2
BRANCH   1  16
ATOM     16  C   UNL     1      -1.360  -0.522   0.108  0.00  0.00    +0.140 C 
BRANCH  16  17
ATOM     17  C   UNL     1      -2.113  -0.103   1.344  0.00  0.00    +0.232 C 
ATOM     18  O   UNL     1      -3.304   0.113   1.284  0.00  0.00    -0.274 OA
ATOM     19  N   UNL     1      -1.462   0.031   2.517  0.00  0.00    -0.264 N 
ATOM     20  C   UNL     1      -2.156   0.417   3.657  0.00  0.00    +0.165 A 
ATOM     21  N   UNL     1      -1.692   0.603   4.874  0.00  0.00    -0.230 NA
ATOM     22  C   UNL     1      -2.488   0.973   5.859  0.00  0.00    +0.047 A 
ATOM     23  C   UNL     1      -3.798   1.152   5.559  0.00  0.00    +0.071 A 
ATOM     24  S   UNL     1      -3.795   0.768   3.815  0.00  0.00    -0.060 S 
ATOM     25  C   UNL     1      -1.965   1.187   7.256  0.00  0.00    +0.066 C 
ATOM     26  H   UNL     1      -0.508  -0.142   2.565  0.00  0.00    +0.157 HD
ENDBRANCH  16  17
BRANCH  16  28
ATOM     27  C   UNL     1      -0.382  -2.468  -1.116  0.00  0.00    +0.005 C 
ATOM     28  C   UNL     1      -1.264  -2.048   0.061  0.00  0.00    +0.020 C 
ENDBRANCH  16  28
ENDBRANCH   1  16
TORSDOF 4
