REMARK  Name = ZINC35450110
REMARK  8 active torsions:
REMARK  status: ('A' for Active; 'I' for Inactive)
REMARK    1  A    between atoms: C_1  and  C_2
REMARK    2  A    between atoms: C_2  and  C_3
REMARK    3  A    between atoms: C_3  and  C_5
REMARK    4  A    between atoms: C_3  and  S_6
REMARK    5  A    between atoms: S_6  and  C_7
REMARK    6  A    between atoms: C_14  and  C_26
REMARK    7  A    between atoms: C_20  and  C_24
REMARK    8  A    between atoms: C_20  and  C_25
REMARK                            x       y       z     vdW  Elec       q    Type
REMARK                         _______ _______ _______ _____ _____    ______ ____
ROOT
ATOM      1  C   UNL     1       3.102  -0.498  -2.760  0.00  0.00    +0.171 A 
ATOM      2  N   UNL     1       2.304  -1.089  -3.626  0.00  0.00    -0.208 NA
ATOM      3  C   UNL     1       2.754  -1.486  -4.820  0.00  0.00    +0.135 A 
ATOM      4  C   UNL     1       4.080  -1.280  -5.160  0.00  0.00    +0.069 A 
ATOM      5  C   UNL     1       4.924  -0.651  -4.237  0.00  0.00    +0.258 A 
ATOM      6  O   UNL     1       6.098  -0.451  -4.503  0.00  0.00    -0.267 OA
ATOM      7  N   UNL     1       4.413  -0.265  -3.049  0.00  0.00    -0.302 N 
ATOM      8  C   UNL     1       4.610  -1.726  -6.490  0.00  0.00    +0.092 C 
ATOM      9  C   UNL     1       3.491  -1.975  -7.470  0.00  0.00    +0.024 C 
ATOM     10  C   UNL     1       2.221  -2.154  -7.051  0.00  0.00    +0.017 C 
ATOM     11  N   UNL     1       1.905  -2.099  -5.721  0.00  0.00    -0.302 N 
ATOM     12  C   UNL     1       1.110  -2.426  -8.035  0.00  0.00    +0.058 C 
ATOM     13  C   UNL     1       1.416  -1.728  -9.362  0.00  0.00    -0.023 C 
ATOM     14  C   UNL     1       2.759  -2.247  -9.884  0.00  0.00    +0.086 C 
ATOM     15  C   UNL     1       3.814  -2.014  -8.838  0.00  0.00    +0.162 C 
ATOM     16  O   UNL     1       4.969  -1.855  -9.182  0.00  0.00    -0.292 OA
ATOM     17  C   UNL     1       0.313  -2.042 -10.376  0.00  0.00    +0.011 C 
ATOM     18  C   UNL     1       1.498  -0.216  -9.142  0.00  0.00    +0.011 C 
ATOM     19  H   UNL     1       1.077  -2.493  -5.407  0.00  0.00    +0.153 HD
ATOM     20  H   UNL     1       4.981   0.176  -2.398  0.00  0.00    +0.171 HD
ENDROOT
BRANCH   8  21
ATOM     21  C   UNL     1       5.397  -2.998  -6.307  0.00  0.00    -0.034 A 
ATOM     22  C   UNL     1       4.779  -4.125  -5.798  0.00  0.00    +0.004 A 
ATOM     23  C   UNL     1       5.500  -5.293  -5.630  0.00  0.00    +0.002 A 
ATOM     24  C   UNL     1       6.839  -5.333  -5.970  0.00  0.00    +0.020 A 
ATOM     25  C   UNL     1       7.458  -4.205  -6.479  0.00  0.00    +0.041 A 
ATOM     26  C   UNL     1       6.734  -3.039  -6.653  0.00  0.00    +0.024 A 
ATOM     27 CL   UNL     1       9.139  -4.256  -6.907  0.00  0.00    -0.084 Cl
ENDBRANCH   8  21
BRANCH   1  28
ATOM     28  S   UNL     1       2.460   0.006  -1.198  0.00  0.00    -0.085 S 
BRANCH  28  29
ATOM     29  C   UNL     1       0.718  -0.497  -1.257  0.00  0.00    +0.051 C 
ATOM     30  C   UNL     1       0.630  -2.023  -1.329  0.00  0.00    +0.019 C 
BRANCH  29  32
ATOM     31  C   UNL     1      -0.019   1.526   0.010  0.00  0.00    +0.005 C 
ATOM     32  C   UNL     1       0.002  -0.004   0.002  0.00  0.00    +0.011 C 
ENDBRANCH  29  32
ENDBRANCH  28  29
ENDBRANCH   1  28
TORSDOF 4
