REMARK  Name = ZINC28052111
REMARK  3 active torsions:
REMARK  status: ('A' for Active; 'I' for Inactive)
REMARK    1  A    between atoms: C_1  and  C_2
REMARK    2  A    between atoms: C_10  and  C_12
REMARK    3  A    between atoms: C_23  and  C_26
REMARK                            x       y       z     vdW  Elec       q    Type
REMARK                         _______ _______ _______ _____ _____    ______ ____
ROOT
ATOM      1  C   UNL     1       6.879   2.599  -1.558  0.00  0.00    +0.069 C 
ATOM      2  C   UNL     1       6.032   1.392  -1.871  0.00  0.00    +0.087 A 
ATOM      3  C   UNL     1       4.749   1.126  -1.401  0.00  0.00    +0.049 A 
ATOM      4  C   UNL     1       4.418  -0.078  -1.967  0.00  0.00    +0.226 A 
ATOM      5  O   UNL     1       5.464  -0.444  -2.700  0.00  0.00    -0.339 OA
ATOM      6  N   UNL     1       6.355   0.382  -2.639  0.00  0.00    -0.081 NA
ATOM      7  N   UNL     1       3.194  -0.667  -1.728  0.00  0.00    -0.286 N 
ATOM      8  C   UNL     1       2.199   0.092  -1.159  0.00  0.00    +0.019 C 
ATOM      9  C   UNL     1       2.441   1.284  -0.573  0.00  0.00    +0.024 C 
ATOM     10  C   UNL     1       3.832   1.879  -0.490  0.00  0.00    +0.093 C 
ATOM     11  C   UNL     1       1.397   2.034  -0.000  0.00  0.00    +0.162 C 
ATOM     12  O   UNL     1       1.645   3.115   0.496  0.00  0.00    -0.292 OA
ATOM     13  C   UNL     1      -0.019   1.528   0.010  0.00  0.00    +0.088 C 
ATOM     14  C   UNL     1       0.002  -0.004   0.002  0.00  0.00    +0.032 C 
ATOM     15  C   UNL     1       0.796  -0.467  -1.221  0.00  0.00    +0.059 C 
ATOM     16  H   UNL     1       3.031  -1.722  -1.991  0.00  0.00    +0.155 HD
ENDROOT
BRANCH  10  17
ATOM     17  C   UNL     1       4.338   1.781   0.926  0.00  0.00    +0.001 A 
ATOM     18  C   UNL     1       4.466   0.544   1.530  0.00  0.00    +0.022 A 
ATOM     19  C   UNL     1       4.931   0.454   2.829  0.00  0.00    +0.018 A 
ATOM     20  C   UNL     1       5.268   1.601   3.526  0.00  0.00    +0.018 A 
ATOM     21  C   UNL     1       5.140   2.838   2.923  0.00  0.00    +0.040 A 
ATOM     22  C   UNL     1       4.679   2.929   1.620  0.00  0.00    +0.128 A 
ATOM     23  F   UNL     1       4.559   4.137   1.029  0.00  0.00    -0.205 F 
ATOM     24 BR   UNL     1       5.107  -1.239   3.654  0.00  0.00    -0.050 Br
ENDBRANCH  10  17
BRANCH  14  25
ATOM     25  C   UNL     1      -1.408  -0.531  -0.077  0.00  0.00    -0.043 A 
ATOM     26  C   UNL     1      -2.209  -0.200  -1.154  0.00  0.00    +0.005 A 
ATOM     27  C   UNL     1      -3.500  -0.688  -1.230  0.00  0.00    +0.020 A 
ATOM     28  C   UNL     1      -3.994  -1.497  -0.223  0.00  0.00    +0.041 A 
ATOM     29  C   UNL     1      -3.193  -1.823   0.858  0.00  0.00    +0.020 A 
ATOM     30  C   UNL     1      -1.901  -1.340   0.930  0.00  0.00    +0.005 A 
ATOM     31 CL   UNL     1      -5.618  -2.103  -0.314  0.00  0.00    -0.084 Cl
ENDBRANCH  14  25
TORSDOF 2
