REMARK  Name = ZINC03005882
REMARK  8 active torsions:
REMARK  status: ('A' for Active; 'I' for Inactive)
REMARK    1  A    between atoms: C_1  and  C_2
REMARK    2  A    between atoms: C_2  and  C_3
REMARK    3  A    between atoms: C_6  and  N_9
REMARK    4  A    between atoms: N_12  and  C_13
REMARK    5  A    between atoms: N_12  and  C_19
REMARK    6  A    between atoms: C_13  and  C_14
REMARK    7  A    between atoms: C_19  and  C_21
REMARK    8  A    between atoms: C_19  and  C_22
REMARK                            x       y       z     vdW  Elec       q    Type
REMARK                         _______ _______ _______ _____ _____    ______ ____
ROOT
ATOM      1  N   UNL     1      -5.990  -1.580  -2.638  0.00  0.00    -0.269 N 
ATOM      2  C   UNL     1      -6.351  -1.949  -1.392  0.00  0.00    +0.307 C 
ATOM      3  O   UNL     1      -5.707  -1.566  -0.435  0.00  0.00    -0.252 OA
ATOM      4  N   UNL     1      -7.425  -2.742  -1.209  0.00  0.00    -0.271 N 
ATOM      5  H   UNL     1      -6.539  -1.833  -3.396  0.00  0.00    +0.156 HD
ENDROOT
BRANCH   1   9
ATOM      6  C   UNL     1      -2.518   0.645  -3.229  0.00  0.00    -0.048 A 
ATOM      7  C   UNL     1      -2.919  -0.274  -4.181  0.00  0.00    +0.005 A 
ATOM      8  C   UNL     1      -4.069  -1.014  -3.988  0.00  0.00    +0.023 A 
ATOM      9  C   UNL     1      -4.824  -0.833  -2.836  0.00  0.00    +0.035 A 
ATOM     10  C   UNL     1      -4.418   0.091  -1.882  0.00  0.00    +0.023 A 
ATOM     11  C   UNL     1      -3.264   0.823  -2.078  0.00  0.00    +0.005 A 
BRANCH   6  13
ATOM     12  C   UNL     1      -0.066   0.695  -2.857  0.00  0.00    +0.009 C 
ATOM     13  C   UNL     1      -1.262   1.450  -3.443  0.00  0.00    +0.032 C 
ENDBRANCH   6  13
ENDBRANCH   1   9
BRANCH   4  14
ATOM     14  C   UNL     1      -7.837  -3.115   0.147  0.00  0.00    +0.112 C 
ATOM     15  C   UNL     1      -7.922  -1.859   1.017  0.00  0.00    +0.034 C 
BRANCH  14  16
ATOM     16  C   UNL     1      -6.827  -4.066   0.735  0.00  0.00    +0.010 A 
ATOM     17  C   UNL     1      -7.037  -5.200   1.448  0.00  0.00    +0.013 A 
ATOM     18  C   UNL     1      -5.946  -5.924   1.892  0.00  0.00    +0.008 A 
ATOM     19  C   UNL     1      -4.699  -5.479   1.602  0.00  0.00    +0.045 A 
ATOM     20  S   UNL     1      -5.044  -3.997   0.667  0.00  0.00    -0.100 S 
ENDBRANCH  14  16
ENDBRANCH   4  14
BRANCH   4  21
ATOM     21  C   UNL     1      -8.180  -3.232  -2.365  0.00  0.00    +0.184 C 
BRANCH  21  22
ATOM     22  C   UNL     1      -7.602  -4.547  -2.822  0.00  0.00    +0.122 A 
ATOM     23  C   UNL     1      -7.983  -5.764  -2.396  0.00  0.00    +0.046 A 
ATOM     24  C   UNL     1      -7.183  -6.707  -3.081  0.00  0.00    +0.041 A 
ATOM     25  C   UNL     1      -6.360  -6.010  -3.885  0.00  0.00    +0.195 A 
ATOM     26  O   UNL     1      -6.623  -4.702  -3.728  0.00  0.00    -0.466 OA
ENDBRANCH  21  22
ENDBRANCH   4  21
TORSDOF 6
