REMARK  Name = ZINC39667640
REMARK  6 active torsions:
REMARK  status: ('A' for Active; 'I' for Inactive)
REMARK    1  A    between atoms: C_1  and  C_2
REMARK    2  A    between atoms: C_6  and  C_9
REMARK    3  A    between atoms: C_7  and  C_8
REMARK    4  A    between atoms: C_9  and  N_10
REMARK    5  A    between atoms: C_11  and  C_13
REMARK    6  A    between atoms: C_24  and  C_26
REMARK                            x       y       z     vdW  Elec       q    Type
REMARK                         _______ _______ _______ _____ _____    ______ ____
ROOT
ATOM      1  C   UNL     1      -3.740  -3.928   4.349  0.00  0.00    +0.100 C 
ATOM      2  C   UNL     1      -3.701  -2.527   5.000  0.00  0.00    +0.121 C 
ATOM      3  N   UNL     1      -4.450  -2.683   6.269  0.00  0.00    -0.300 N 
ATOM      4  C   UNL     1      -4.041  -4.014   6.778  0.00  0.00    +0.115 C 
ATOM      5  C   UNL     1      -3.962  -4.901   5.519  0.00  0.00    -0.004 C 
ATOM      6  C   UNL     1      -2.790  -5.871   5.631  0.00  0.00    -0.010 C 
ATOM      7  C   UNL     1      -3.062  -6.865   6.763  0.00  0.00    -0.082 C 
ATOM      8  N   UNL     1      -4.304  -7.597   6.488  0.00  0.00    +0.379 N 
ATOM      9  C   UNL     1      -5.440  -6.668   6.475  0.00  0.00    -0.082 C 
ATOM     10  C   UNL     1      -5.269  -5.665   5.330  0.00  0.00    -0.010 C 
ATOM     11  C   UNL     1      -5.309  -1.811   6.833  0.00  0.00    +0.219 C 
ATOM     12  O   UNL     1      -5.605  -0.789   6.252  0.00  0.00    -0.275 OA
ATOM     13  H   UNL     1      -4.232  -8.052   5.590  0.00  0.00    -0.086 HD
ATOM     14  H   UNL     1      -4.448  -8.293   7.204  0.00  0.00    -0.086 HD
ENDROOT
BRANCH  11  15
ATOM     15  C   UNL     1      -5.903  -2.107   8.186  0.00  0.00    +0.079 C 
ATOM     16  C   UNL     1      -7.245  -1.377   8.332  0.00  0.00    +0.017 C 
ATOM     17  C   UNL     1      -7.906  -1.835   9.633  0.00  0.00    +0.027 C 
ATOM     18  C   UNL     1      -6.928  -1.747  10.768  0.00  0.00    -0.031 C 
ATOM     19  C   UNL     1      -5.646  -1.653  10.616  0.00  0.00    -0.030 C 
ATOM     20  C   UNL     1      -4.957  -1.613   9.282  0.00  0.00    +0.039 C 
ENDBRANCH  11  15
BRANCH   1  22
ATOM     21  N   UNL     1      -2.400  -5.061   2.606  0.00  0.00    -0.311 N 
ATOM     22  C   UNL     1      -2.432  -4.224   3.662  0.00  0.00    +0.218 C 
ATOM     23  O   UNL     1      -1.408  -3.711   4.060  0.00  0.00    -0.275 OA
ATOM     24  H   UNL     1      -3.219  -5.472   2.288  0.00  0.00    +0.149 HD
BRANCH  21  25
ATOM     25  C   UNL     1      -1.128  -5.348   1.938  0.00  0.00    +0.139 C 
BRANCH  25  31
ATOM     26  C   UNL     1      -2.603  -6.197  -2.768  0.00  0.00    +0.044 C 
ATOM     27  C   UNL     1      -2.071  -6.710  -1.455  0.00  0.00    -0.047 A 
ATOM     28  C   UNL     1      -1.801  -8.056  -1.297  0.00  0.00    +0.003 A 
ATOM     29  C   UNL     1      -1.313  -8.527  -0.092  0.00  0.00    +0.001 A 
ATOM     30  C   UNL     1      -1.095  -7.650   0.955  0.00  0.00    +0.005 A 
ATOM     31  C   UNL     1      -1.365  -6.304   0.797  0.00  0.00    -0.027 A 
ATOM     32  C   UNL     1      -1.849  -5.833  -0.410  0.00  0.00    -0.043 A 
ATOM     33  C   UNL     1      -2.138  -4.364  -0.584  0.00  0.00    +0.044 C 
ENDBRANCH  25  31
ENDBRANCH  21  25
ENDBRANCH   1  22
TORSDOF 4
