REMARK  Name = ZINC38686316
REMARK  9 active torsions:
REMARK  status: ('A' for Active; 'I' for Inactive)
REMARK    1  A    between atoms: C_4  and  C_7
REMARK    2  A    between atoms: C_7  and  O_9
REMARK    3  A    between atoms: O_9  and  C_10
REMARK    4  A    between atoms: C_17  and  N_38
REMARK    5  A    between atoms: C_18  and  C_36
REMARK    6  A    between atoms: C_19  and  C_21
REMARK    7  A    between atoms: C_24  and  O_27
REMARK    8  A    between atoms: O_27  and  C_28
REMARK    9  A    between atoms: C_28  and  C_29
REMARK                            x       y       z     vdW  Elec       q    Type
REMARK                         _______ _______ _______ _____ _____    ______ ____
ROOT
ATOM      1  C   UNL     1       4.878  -2.735  -0.094  0.00  0.00    +0.135 A 
ATOM      2  C   UNL     1       6.096  -2.071  -0.060  0.00  0.00    +0.047 A 
ATOM      3  C   UNL     1       7.275  -2.788  -0.110  0.00  0.00    +0.012 A 
ATOM      4  C   UNL     1       7.248  -4.169  -0.194  0.00  0.00    +0.008 A 
ATOM      5  C   UNL     1       6.034  -4.838  -0.229  0.00  0.00    +0.138 A 
ATOM      6  C   UNL     1       4.847  -4.118  -0.173  0.00  0.00    +0.093 A 
ATOM      7  O   UNL     1       5.987  -6.190  -0.312  0.00  0.00    -0.441 OA
ATOM      8  C   UNL     1       7.065  -6.920   0.021  0.00  0.00    +0.199 C 
ATOM      9  C   UNL     1       8.307  -6.383   0.070  0.00  0.00    +0.098 C 
ATOM     10  C   UNL     1       8.544  -4.933  -0.248  0.00  0.00    +0.098 C 
ENDROOT
BRANCH  10  11
ATOM     11  C   UNL     1       9.136  -4.815  -1.629  0.00  0.00    -0.034 A 
ATOM     12  C   UNL     1       8.426  -5.270  -2.725  0.00  0.00    +0.008 A 
ATOM     13  C   UNL     1       8.966  -5.164  -3.992  0.00  0.00    +0.046 A 
ATOM     14  C   UNL     1      10.222  -4.600  -4.165  0.00  0.00    +0.121 A 
ATOM     15  C   UNL     1      10.932  -4.144  -3.063  0.00  0.00    +0.046 A 
ATOM     16  C   UNL     1      10.385  -4.248  -1.799  0.00  0.00    +0.008 A 
BRANCH  14  17
ATOM     17  O   UNL     1      10.755  -4.494  -5.410  0.00  0.00    -0.487 OA
BRANCH  17  18
ATOM     18  C   UNL     1      12.052  -3.903  -5.512  0.00  0.00    +0.266 C 
BRANCH  18  19
ATOM     19  C   UNL     1      12.477  -3.871  -6.957  0.00  0.00    +0.008 A 
ATOM     20  C   UNL     1      11.637  -4.368  -7.936  0.00  0.00    +0.008 A 
ATOM     21  C   UNL     1      12.027  -4.339  -9.262  0.00  0.00    +0.000 A 
ATOM     22  C   UNL     1      13.258  -3.813  -9.610  0.00  0.00    +0.001 A 
ATOM     23  C   UNL     1      14.098  -3.316  -8.632  0.00  0.00    +0.020 A 
ATOM     24  C   UNL     1      13.706  -3.340  -7.305  0.00  0.00    +0.047 A 
ATOM     25 CL   UNL     1      14.759  -2.710  -6.077  0.00  0.00    -0.083 Cl
ENDBRANCH  18  19
ENDBRANCH  17  18
ENDBRANCH  14  17
ENDBRANCH  10  11
BRANCH   8  26
ATOM     26  N   UNL     1       6.902  -8.250   0.320  0.00  0.00    -0.328 N 
ATOM     27  H   UNL     1       6.019  -8.649   0.289  0.00  0.00    +0.145 HD
ATOM     28  H   UNL     1       7.671  -8.790   0.562  0.00  0.00    +0.145 HD
ENDBRANCH   8  26
BRANCH   9  29
ATOM     29  C   UNL     1       9.416  -7.212   0.432  0.00  0.00    +0.101 C 
ATOM     30  N   UNL     1      10.297  -7.870   0.720  0.00  0.00    -0.191 NA
ENDBRANCH   9  29
BRANCH   1  31
ATOM     31  O   UNL     1       3.716  -2.031  -0.045  0.00  0.00    -0.422 OA
BRANCH  31  32
ATOM     32  C   UNL     1       3.307  -1.407  -1.167  0.00  0.00    +0.344 C 
ATOM     33  O   UNL     1       4.014  -1.409  -2.155  0.00  0.00    -0.245 OA
BRANCH  32  37
ATOM     34  C   UNL     1      -0.452   0.566  -1.248  0.00  0.00    +0.000 A 
ATOM     35  C   UNL     1       0.350   0.566  -2.376  0.00  0.00    +0.001 A 
ATOM     36  C   UNL     1       1.573  -0.073  -2.356  0.00  0.00    +0.015 A 
ATOM     37  C   UNL     1       2.000  -0.720  -1.195  0.00  0.00    +0.059 A 
ATOM     38  C   UNL     1       1.185  -0.716  -0.061  0.00  0.00    +0.015 A 
ATOM     39  C   UNL     1      -0.035  -0.073  -0.094  0.00  0.00    +0.001 A 
ENDBRANCH  32  37
ENDBRANCH  31  32
ENDBRANCH   1  31
TORSDOF 9
