REMARK  Name = ZINC21975721
REMARK  6 active torsions:
REMARK  status: ('A' for Active; 'I' for Inactive)
REMARK    1  A    between atoms: C_1  and  O_2
REMARK    2  A    between atoms: O_2  and  C_3
REMARK    3  A    between atoms: C_3  and  C_4
REMARK    4  A    between atoms: C_12  and  C_13
REMARK    5  A    between atoms: C_23  and  O_25
REMARK    6  A    between atoms: O_25  and  C_26
REMARK                            x       y       z     vdW  Elec       q    Type
REMARK                         _______ _______ _______ _____ _____    ______ ____
ROOT
ATOM      1  C   UNL     1      -2.392   1.384  -0.250  0.00  0.00    +0.287 C 
ATOM      2  O   UNL     1      -2.349   0.174  -0.370  0.00  0.00    -0.266 OA
ATOM      3  N   UNL     1      -1.249   2.099  -0.227  0.00  0.00    -0.265 N 
ATOM      4  C   UNL     1      -1.287   3.568  -0.238  0.00  0.00    +0.114 C 
ATOM      5  C   UNL     1      -0.237   4.056  -1.244  0.00  0.00    +0.024 C 
ATOM      6  C   UNL     1       1.148   3.626  -0.762  0.00  0.00    +0.038 C 
ATOM      7  C   UNL     1       1.164   2.152  -0.452  0.00  0.00    -0.022 A 
ATOM      8  C   UNL     1      -0.004   1.454  -0.193  0.00  0.00    +0.040 A 
ATOM      9  C   UNL     1       0.045   0.096   0.102  0.00  0.00    +0.027 A 
ATOM     10  C   UNL     1       1.258  -0.562   0.132  0.00  0.00    +0.047 A 
ATOM     11  C   UNL     1       2.428   0.134  -0.132  0.00  0.00    +0.120 A 
ATOM     12  C   UNL     1       2.379   1.489  -0.423  0.00  0.00    +0.051 A 
ENDROOT
BRANCH   1  21
ATOM     13  C   UNL     1      -4.900   1.473  -0.285  0.00  0.00    +0.036 A 
ATOM     14  C   UNL     1      -5.895   2.524  -0.074  0.00  0.00    +0.026 A 
ATOM     15  C   UNL     1      -7.291   2.561  -0.093  0.00  0.00    +0.012 A 
ATOM     16  C   UNL     1      -7.941   3.739   0.146  0.00  0.00    +0.001 A 
ATOM     17  C   UNL     1      -7.222   4.898   0.407  0.00  0.00    +0.004 A 
ATOM     18  C   UNL     1      -5.844   4.883   0.430  0.00  0.00    +0.047 A 
ATOM     19  C   UNL     1      -5.161   3.696   0.190  0.00  0.00    +0.136 A 
ATOM     20  O   UNL     1      -3.853   3.376   0.147  0.00  0.00    -0.450 OA
ATOM     21  C   UNL     1      -3.688   2.066  -0.129  0.00  0.00    +0.196 A 
BRANCH  13  22
ATOM     22  C   UNL     1      -5.166   0.025  -0.607  0.00  0.00    +0.199 C 
BRANCH  22  24
ATOM     23  C   UNL     1      -5.533  -2.113   0.412  0.00  0.00    +0.194 C 
ATOM     24  O   UNL     1      -5.279  -0.720   0.607  0.00  0.00    -0.378 OA
ENDBRANCH  22  24
ENDBRANCH  13  22
ENDBRANCH   1  21
BRANCH  11  25
ATOM     25  O   UNL     1       3.624  -0.512  -0.105  0.00  0.00    -0.495 OA
ATOM     26  C   UNL     1       3.601  -1.907   0.202  0.00  0.00    +0.277 C 
ENDBRANCH  11  25
TORSDOF 4
