REMARK  Name = ZINC39896568
REMARK  11 active torsions:
REMARK  status: ('A' for Active; 'I' for Inactive)
REMARK    1  A    between atoms: C_1  and  C_2
REMARK    2  A    between atoms: C_2  and  C_3
REMARK    3  A    between atoms: C_6  and  N_9
REMARK    4  A    between atoms: C_12  and  C_31
REMARK    5  A    between atoms: C_16  and  C_17
REMARK    6  A    between atoms: C_16  and  C_19
REMARK    7  A    between atoms: N_21  and  C_22
REMARK    8  A    between atoms: C_22  and  C_24
REMARK    9  A    between atoms: C_22  and  C_25
REMARK   10  A    between atoms: C_31  and  C_32
REMARK   11  A    between atoms: C_37  and  C_38
REMARK                            x       y       z     vdW  Elec       q    Type
REMARK                         _______ _______ _______ _____ _____    ______ ____
ROOT
ATOM      1  N   UNL     1      -5.017  -1.895  -0.623  0.00  0.00    -0.232 N 
ATOM      2  C   UNL     1      -5.760  -2.171   0.435  0.00  0.00    +0.238 C 
ATOM      3  O   UNL     1      -5.428  -1.853   1.557  0.00  0.00    -0.274 OA
ATOM      4  C   UNL     1      -7.059  -2.911   0.155  0.00  0.00    +0.143 C 
ATOM      5  S   UNL     1      -6.953  -3.076  -1.675  0.00  0.00    -0.095 S 
ATOM      6  C   UNL     1      -5.387  -2.246  -1.899  0.00  0.00    +0.098 C 
ATOM      7  C   UNL     1      -4.699  -2.010  -3.091  0.00  0.00    +0.141 C 
ENDROOT
BRANCH   1  11
ATOM      8  C   UNL     1      -1.417   0.131  -0.070  0.00  0.00    -0.048 A 
ATOM      9  C   UNL     1      -1.482  -1.233   0.147  0.00  0.00    +0.005 A 
ATOM     10  C   UNL     1      -2.673  -1.907  -0.036  0.00  0.00    +0.024 A 
ATOM     11  C   UNL     1      -3.807  -1.214  -0.437  0.00  0.00    +0.042 A 
ATOM     12  C   UNL     1      -3.740   0.156  -0.653  0.00  0.00    +0.024 A 
ATOM     13  C   UNL     1      -2.546   0.825  -0.464  0.00  0.00    +0.005 A 
BRANCH   8  15
ATOM     14  C   UNL     1      -0.074   1.455   1.541  0.00  0.00    +0.009 C 
ATOM     15  C   UNL     1      -0.116   0.864   0.130  0.00  0.00    +0.032 C 
ENDBRANCH   8  15
ENDBRANCH   1  11
BRANCH   7  16
ATOM     16  C   UNL     1      -3.344  -1.463  -3.057  0.00  0.00    +0.257 C 
ATOM     17  O   UNL     1      -3.171  -0.260  -3.133  0.00  0.00    -0.269 OA
ATOM     18  N   UNL     1      -2.286  -2.289  -2.941  0.00  0.00    -0.304 N 
ATOM     19  H   UNL     1      -2.419  -3.250  -2.936  0.00  0.00    +0.150 HD
BRANCH  18  20
ATOM     20  C   UNL     1      -0.934  -1.737  -2.825  0.00  0.00    +0.100 C 
ATOM     21  C   UNL     1      -0.461  -1.251  -4.196  0.00  0.00    +0.033 C 
BRANCH  20  22
ATOM     22  C   UNL     1       0.003  -2.804  -2.319  0.00  0.00    -0.027 A 
ATOM     23  C   UNL     1      -0.127  -4.105  -2.766  0.00  0.00    +0.005 A 
ATOM     24  C   UNL     1       0.733  -5.084  -2.303  0.00  0.00    +0.000 A 
ATOM     25  C   UNL     1       1.722  -4.761  -1.393  0.00  0.00    +0.000 A 
ATOM     26  C   UNL     1       1.852  -3.459  -0.947  0.00  0.00    +0.000 A 
ATOM     27  C   UNL     1       0.995  -2.480  -1.413  0.00  0.00    +0.005 A 
ENDBRANCH  20  22
ENDBRANCH  18  20
ENDBRANCH   7  16
BRANCH   7  28
ATOM     28  C   UNL     1      -5.322  -2.305  -4.346  0.00  0.00    +0.107 C 
ATOM     29  N   UNL     1      -5.815  -2.539  -5.343  0.00  0.00    -0.191 NA
ENDBRANCH   7  28
BRANCH   4  30
ATOM     30  C   UNL     1      -7.075  -4.281   0.837  0.00  0.00    +0.059 C 
BRANCH  30  31
ATOM     31  C   UNL     1      -8.425  -4.922   0.644  0.00  0.00    -0.043 A 
ATOM     32  C   UNL     1      -8.593  -5.902  -0.316  0.00  0.00    +0.004 A 
ATOM     33  C   UNL     1      -9.831  -6.491  -0.493  0.00  0.00    +0.000 A 
ATOM     34  C   UNL     1     -10.901  -6.100   0.291  0.00  0.00    +0.000 A 
ATOM     35  C   UNL     1     -10.732  -5.120   1.252  0.00  0.00    +0.003 A 
ATOM     36  C   UNL     1      -9.493  -4.535   1.431  0.00  0.00    -0.047 A 
ATOM     37  C   UNL     1      -9.307  -3.471   2.482  0.00  0.00    +0.044 C 
ENDBRANCH  30  31
ENDBRANCH   4  30
TORSDOF 8
