REMARK  Name = ZINC02284475
REMARK  4 active torsions:
REMARK  status: ('A' for Active; 'I' for Inactive)
REMARK    1  A    between atoms: C_1  and  C_2
REMARK    2  A    between atoms: C_5  and  C_8
REMARK    3  A    between atoms: N_14  and  N_15
REMARK    4  A    between atoms: C_16  and  C_17
REMARK                            x       y       z     vdW  Elec       q    Type
REMARK                         _______ _______ _______ _____ _____    ______ ____
ROOT
ATOM      1  C   UNL     1      -2.503   1.006   0.019  0.00  0.00    +0.184 A 
ATOM      2  N   UNL     1      -2.638  -0.263   0.287  0.00  0.00    -0.152 NA
ATOM      3  N   UNL     1      -3.998  -0.587   0.182  0.00  0.00    -0.253 N 
ATOM      4  H   UNL     1      -4.334  -1.617   0.370  0.00  0.00    +0.191 HD
ATOM      5  C   UNL     1      -4.658   0.539  -0.158  0.00  0.00    +0.197 A 
ATOM      6  S   UNL     1      -6.345   0.682  -0.412  0.00  0.00    -0.010 S 
ATOM      7  N   UNL     1      -3.752   1.531  -0.257  0.00  0.00    -0.188 N 
ENDROOT
BRANCH   1  12
ATOM      8  C   UNL     1       2.452   3.933   0.000  0.00  0.00    +0.044 C 
ATOM      9  C   UNL     1       1.155   3.167   0.008  0.00  0.00    -0.050 A 
ATOM     10  C   UNL     1       1.172   1.783   0.000  0.00  0.00    +0.004 A 
ATOM     11  C   UNL     1      -0.013   1.076   0.008  0.00  0.00    +0.012 A 
ATOM     12  C   UNL     1      -1.229   1.758   0.017  0.00  0.00    +0.021 A 
ATOM     13  C   UNL     1      -1.240   3.154   0.029  0.00  0.00    +0.012 A 
ATOM     14  C   UNL     1      -0.048   3.849   0.022  0.00  0.00    +0.004 A 
ENDBRANCH   1  12
BRANCH   7  15
ATOM     15  N   UNL     1      -4.027   2.865  -0.586  0.00  0.00    -0.170 NA
ATOM     16  C   UNL     1      -4.014   3.242  -1.828  0.00  0.00    +0.142 C 
BRANCH  16  17
ATOM     17  C   UNL     1      -4.304   4.645  -2.175  0.00  0.00    +0.014 A 
ATOM     18  C   UNL     1      -4.291   5.055  -3.511  0.00  0.00    +0.011 A 
ATOM     19  C   UNL     1      -4.563   6.369  -3.829  0.00  0.00    +0.002 A 
ATOM     20  C   UNL     1      -4.849   7.283  -2.829  0.00  0.00    +0.021 A 
ATOM     21  C   UNL     1      -4.864   6.886  -1.503  0.00  0.00    +0.060 A 
ATOM     22  C   UNL     1      -4.598   5.571  -1.170  0.00  0.00    +0.068 A 
ATOM     23 CL   UNL     1      -4.623   5.072   0.493  0.00  0.00    -0.081 Cl
ATOM     24 CL   UNL     1      -5.223   8.040  -0.257  0.00  0.00    -0.082 Cl
ENDBRANCH  16  17
ENDBRANCH   7  15
TORSDOF 3
