REMARK  Name = ZINC02383571
REMARK  9 active torsions:
REMARK  status: ('A' for Active; 'I' for Inactive)
REMARK    1  A    between atoms: C_3  and  N_10
REMARK    2  A    between atoms: C_5  and  N_7
REMARK    3  A    between atoms: N_10  and  C_11
REMARK    4  A    between atoms: C_11  and  C_12
REMARK    5  A    between atoms: N_14  and  N_15
REMARK    6  A    between atoms: C_16  and  C_17
REMARK    7  A    between atoms: C_20  and  O_23
REMARK    8  A    between atoms: O_23  and  C_24
REMARK    9  A    between atoms: C_24  and  C_25
REMARK                            x       y       z     vdW  Elec       q    Type
REMARK                         _______ _______ _______ _____ _____    ______ ____
ROOT
ATOM      1  N   UNL     1       1.632   9.730   0.034  0.00  0.00    -0.188 NA
ATOM      2  C   UNL     1       2.607  10.587   0.029  0.00  0.00    +0.138 C 
ENDROOT
BRANCH   2   3
ATOM      3  C   UNL     1       2.318  12.032   0.038  0.00  0.00    -0.005 A 
ATOM      4  C   UNL     1       0.995  12.482   0.047  0.00  0.00    +0.013 A 
ATOM      5  C   UNL     1       0.730  13.835   0.061  0.00  0.00    +0.046 A 
ATOM      6  C   UNL     1       1.774  14.750   0.056  0.00  0.00    +0.121 A 
ATOM      7  C   UNL     1       3.091  14.307   0.041  0.00  0.00    +0.046 A 
ATOM      8  C   UNL     1       3.366  12.957   0.033  0.00  0.00    +0.013 A 
BRANCH   6   9
ATOM      9  O   UNL     1       1.508  16.082   0.065  0.00  0.00    -0.487 OA
BRANCH   9  10
ATOM     10  C   UNL     1       0.132  16.468   0.079  0.00  0.00    +0.266 C 
BRANCH  10  11
ATOM     11  C   UNL     1       0.033  17.972   0.087  0.00  0.00    +0.008 A 
ATOM     12  C   UNL     1       1.182  18.740   0.080  0.00  0.00    +0.010 A 
ATOM     13  C   UNL     1       1.092  20.119   0.087  0.00  0.00    +0.020 A 
ATOM     14  C   UNL     1      -0.149  20.732   0.101  0.00  0.00    +0.042 A 
ATOM     15  C   UNL     1      -1.299  19.963   0.108  0.00  0.00    +0.040 A 
ATOM     16  C   UNL     1      -1.208  18.583   0.096  0.00  0.00    +0.049 A 
ATOM     17 CL   UNL     1      -2.651  17.618   0.099  0.00  0.00    -0.083 Cl
ATOM     18 CL   UNL     1      -0.262  22.464   0.110  0.00  0.00    -0.083 Cl
ENDBRANCH  10  11
ENDBRANCH   9  10
ENDBRANCH   6   9
ENDBRANCH   2   3
BRANCH   1  21
ATOM     19  C   UNL     1       0.894   7.467   0.030  0.00  0.00    +0.249 C 
ATOM     20  O   UNL     1      -0.255   7.855   0.043  0.00  0.00    -0.272 OA
ATOM     21  N   UNL     1       1.907   8.356   0.025  0.00  0.00    -0.206 N 
ATOM     22  H   UNL     1       2.825   8.045   0.015  0.00  0.00    +0.177 HD
BRANCH  19  23
ATOM     23  C   UNL     1       1.190   5.989   0.021  0.00  0.00    +0.199 C 
BRANCH  23  24
ATOM     24  N   UNL     1      -0.069   5.239   0.029  0.00  0.00    -0.335 N 
ATOM     25  H   UNL     1      -0.916   5.713   0.039  0.00  0.00    +0.147 HD
BRANCH  24  28
ATOM     26  C   UNL     1       1.176   1.782   0.000  0.00  0.00    +0.004 A 
ATOM     27  C   UNL     1       1.161   3.163   0.007  0.00  0.00    +0.023 A 
ATOM     28  C   UNL     1      -0.050   3.842   0.022  0.00  0.00    +0.030 A 
ATOM     29  C   UNL     1      -1.243   3.130   0.030  0.00  0.00    +0.055 A 
ATOM     30  C   UNL     1      -1.220   1.749   0.017  0.00  0.00    +0.128 A 
ATOM     31  C   UNL     1      -0.013   1.076   0.008  0.00  0.00    +0.033 A 
BRANCH  30  32
ATOM     32  N   UNL     1      -2.491   0.990   0.020  0.00  0.00    +0.056 N 
ATOM     33  O   UNL     1      -2.472  -0.228   0.013  0.00  0.00    -0.126 OA
ATOM     34  O   UNL     1      -3.555   1.582   0.028  0.00  0.00    -0.126 OA
ENDBRANCH  30  32
ENDBRANCH  24  28
ENDBRANCH  23  24
ENDBRANCH  19  23
ENDBRANCH   1  21
TORSDOF 9
