REMARK  Name = ZINC19850276
REMARK  7 active torsions:
REMARK  status: ('A' for Active; 'I' for Inactive)
REMARK    1  A    between atoms: C_4  and  C_7
REMARK    2  A    between atoms: N_10  and  C_19
REMARK    3  A    between atoms: C_19  and  C_20
REMARK    4  A    between atoms: C_20  and  N_21
REMARK    5  A    between atoms: C_22  and  C_24
REMARK    6  A    between atoms: C_24  and  C_25
REMARK    7  A    between atoms: C_25  and  C_26
REMARK                            x       y       z     vdW  Elec       q    Type
REMARK                         _______ _______ _______ _____ _____    ______ ____
ROOT
ATOM      1  C   UNL     1       5.681  -1.935   2.921  0.00  0.00    -0.059 C 
ENDROOT
BRANCH   1   4
ATOM      2  C   UNL     1       3.791  -0.621  -0.052  0.00  0.00    +0.187 C 
ATOM      3  C   UNL     1       4.099  -1.074   1.357  0.00  0.00    -0.028 C 
ATOM      4  N   UNL     1       5.380  -1.759   1.494  0.00  0.00    +0.386 N 
ATOM      5  C   UNL     1       5.351  -3.074   0.844  0.00  0.00    -0.039 C 
ATOM      6  C   UNL     1       5.670  -2.897  -0.628  0.00  0.00    -0.022 A 
ATOM      7  C   UNL     1       6.858  -3.376  -1.141  0.00  0.00    +0.005 A 
ATOM      8  C   UNL     1       7.133  -3.224  -2.488  0.00  0.00    +0.000 A 
ATOM      9  C   UNL     1       6.221  -2.597  -3.317  0.00  0.00    +0.004 A 
ATOM     10  C   UNL     1       5.033  -2.113  -2.802  0.00  0.00    +0.046 A 
ATOM     11  C   UNL     1       4.761  -2.258  -1.449  0.00  0.00    +0.123 A 
ATOM     12  O   UNL     1       3.614  -1.746  -0.922  0.00  0.00    -0.486 OA
ATOM     13  H   UNL     1       6.103  -1.197   1.071  0.00  0.00    -0.081 HD
BRANCH   2  17
ATOM     14  C   UNL     1       0.213   1.712  -0.031  0.00  0.00    +0.000 A 
ATOM     15  C   UNL     1       1.446   2.338  -0.051  0.00  0.00    +0.000 A 
ATOM     16  C   UNL     1       2.603   1.583  -0.058  0.00  0.00    +0.007 A 
ATOM     17  C   UNL     1       2.529   0.202  -0.044  0.00  0.00    -0.009 A 
ATOM     18  C   UNL     1       1.296  -0.423  -0.023  0.00  0.00    +0.007 A 
ATOM     19  C   UNL     1       0.138   0.332  -0.018  0.00  0.00    +0.000 A 
ENDBRANCH   2  17
ENDBRANCH   1   4
BRANCH   1  20
ATOM     20  C   UNL     1       5.907  -0.566   3.567  0.00  0.00    +0.085 C 
BRANCH  20  21
ATOM     21  N   UNL     1       6.333  -0.746   4.957  0.00  0.00    -0.317 N 
ATOM     22  C   UNL     1       6.592   0.330   5.727  0.00  0.00    +0.213 C 
ATOM     23  O   UNL     1       6.473   1.446   5.269  0.00  0.00    -0.276 OA
ATOM     24  H   UNL     1       6.429  -1.639   5.323  0.00  0.00    +0.149 HD
BRANCH  22  25
ATOM     25  C   UNL     1       7.030   0.144   7.157  0.00  0.00    +0.103 C 
BRANCH  25  26
ATOM     26  C   UNL     1       7.257   1.513   7.802  0.00  0.00    +0.083 C 
BRANCH  26  27
ATOM     27  C   UNL     1       7.695   1.328   9.232  0.00  0.00    +0.109 A 
ATOM     28  N   UNL     1       8.826   1.854   9.775  0.00  0.00    -0.342 N 
ATOM     29  H   UNL     1       9.481   2.405   9.318  0.00  0.00    +0.167 HD
ATOM     30  C   UNL     1       8.869   1.459  11.097  0.00  0.00    +0.069 A 
ATOM     31  C   UNL     1       9.758   1.675  12.142  0.00  0.00    +0.066 A 
ATOM     32  C   UNL     1       9.503   1.122  13.381  0.00  0.00    +0.125 A 
ATOM     33  C   UNL     1       8.364   0.352  13.587  0.00  0.00    +0.040 A 
ATOM     34  C   UNL     1       7.481   0.130  12.569  0.00  0.00    +0.032 A 
ATOM     35  C   UNL     1       7.718   0.681  11.307  0.00  0.00    +0.089 A 
ATOM     36  N   UNL     1       7.044   0.646  10.129  0.00  0.00    -0.232 NA
ATOM     37  F   UNL     1      10.366   1.330  14.399  0.00  0.00    -0.205 F 
ENDBRANCH  26  27
ENDBRANCH  25  26
ENDBRANCH  22  25
ENDBRANCH  20  21
ENDBRANCH   1  20
TORSDOF 7
