REMARK  Name = ZINC21352109
REMARK  6 active torsions:
REMARK  status: ('A' for Active; 'I' for Inactive)
REMARK    1  A    between atoms: C_1  and  C_2
REMARK    2  A    between atoms: C_5  and  O_8
REMARK    3  A    between atoms: O_8  and  C_9
REMARK    4  A    between atoms: C_14  and  N_15
REMARK    5  A    between atoms: C_16  and  C_18
REMARK    6  A    between atoms: C_18  and  N_19
REMARK                            x       y       z     vdW  Elec       q    Type
REMARK                         _______ _______ _______ _____ _____    ______ ____
ROOT
ATOM      1  C   UNL     1      -5.490  -1.194   3.190  0.00  0.00    +0.150 A 
ATOM      2  C   UNL     1      -5.903  -1.494   4.478  0.00  0.00    +0.049 A 
ATOM      3  C   UNL     1      -5.174  -1.040   5.561  0.00  0.00    +0.024 A 
ATOM      4  C   UNL     1      -4.028  -0.289   5.363  0.00  0.00    +0.043 A 
ATOM      5  C   UNL     1      -3.607   0.010   4.080  0.00  0.00    +0.047 A 
ATOM      6  C   UNL     1      -4.334  -0.443   2.989  0.00  0.00    +0.078 A 
ATOM      7 CL   UNL     1      -3.117   0.278   6.728  0.00  0.00    -0.083 Cl
ENDROOT
BRANCH   6   8
ATOM      8  N   UNL     1      -3.910  -0.141   1.688  0.00  0.00    -0.281 N 
ATOM      9  C   UNL     1      -2.594  -0.061   1.410  0.00  0.00    +0.237 C 
ATOM     10  O   UNL     1      -1.778  -0.181   2.299  0.00  0.00    -0.274 OA
ATOM     11  H   UNL     1      -4.652   0.032   0.894  0.00  0.00    +0.155 HD
BRANCH   9  12
ATOM     12  C   UNL     1      -2.136   0.177  -0.006  0.00  0.00    +0.222 C 
BRANCH  12  13
ATOM     13  N   UNL     1      -0.672   0.222  -0.045  0.00  0.00    -0.290 N 
ATOM     14  C   UNL     1       0.024  -0.926  -0.249  0.00  0.00    +0.203 A 
ATOM     15  N   UNL     1       1.329  -0.926  -0.295  0.00  0.00    -0.230 NA
ATOM     16  C   UNL     1       2.020   0.199  -0.139  0.00  0.00    +0.115 A 
ATOM     17  C   UNL     1       1.388   1.436   0.083  0.00  0.00    +0.072 A 
ATOM     18  C   UNL     1      -0.044   1.400   0.127  0.00  0.00    +0.263 A 
ATOM     19  O   UNL     1      -0.684   2.421   0.315  0.00  0.00    -0.267 OA
ATOM     20  C   UNL     1       2.285   2.566   0.233  0.00  0.00    +0.023 A 
ATOM     21  C   UNL     1       3.611   2.365   0.154  0.00  0.00    +0.048 A 
ATOM     22  S   UNL     1       3.746   0.611  -0.133  0.00  0.00    -0.077 S 
ENDBRANCH  12  13
ENDBRANCH   9  12
ENDBRANCH   6   8
BRANCH   1  23
ATOM     23  O   UNL     1      -6.209  -1.636   2.124  0.00  0.00    -0.454 OA
BRANCH  23  28
ATOM     24  C   UNL     1      -4.723  -6.536  -0.222  0.00  0.00    +0.044 C 
ATOM     25  C   UNL     1      -5.120  -5.225   0.405  0.00  0.00    -0.050 A 
ATOM     26  C   UNL     1      -6.251  -4.563  -0.037  0.00  0.00    +0.007 A 
ATOM     27  C   UNL     1      -6.618  -3.361   0.537  0.00  0.00    +0.046 A 
ATOM     28  C   UNL     1      -5.851  -2.818   1.558  0.00  0.00    +0.129 A 
ATOM     29  C   UNL     1      -4.713  -3.482   1.996  0.00  0.00    +0.046 A 
ATOM     30  C   UNL     1      -4.354  -4.686   1.422  0.00  0.00    +0.007 A 
ENDBRANCH  23  28
ENDBRANCH   1  23
TORSDOF 5
