REMARK  Name = ZINC20357077
REMARK  7 active torsions:
REMARK  status: ('A' for Active; 'I' for Inactive)
REMARK    1  A    between atoms: C_1  and  C_2
REMARK    2  A    between atoms: C_5  and  S_9
REMARK    3  A    between atoms: C_6  and  C_8
REMARK    4  A    between atoms: S_9  and  N_12
REMARK    5  A    between atoms: N_12  and  C_13
REMARK    6  A    between atoms: C_22  and  O_23
REMARK    7  A    between atoms: N_24  and  C_25
REMARK                            x       y       z     vdW  Elec       q    Type
REMARK                         _______ _______ _______ _____ _____    ______ ____
ROOT
ATOM      1  C   UNL     1       3.901   3.563  -0.185  0.00  0.00    +0.152 A 
ATOM      2  C   UNL     1       2.665   4.177  -0.270  0.00  0.00    +0.076 A 
ATOM      3  C   UNL     1       1.487   3.324  -0.494  0.00  0.00    +0.042 A 
ATOM      4  C   UNL     1       0.208   3.875  -0.590  0.00  0.00    +0.013 A 
ATOM      5  C   UNL     1      -0.875   3.050  -0.799  0.00  0.00    +0.001 A 
ATOM      6  C   UNL     1      -0.698   1.680  -0.920  0.00  0.00    +0.004 A 
ATOM      7  C   UNL     1       0.559   1.122  -0.821  0.00  0.00    +0.047 A 
ATOM      8  C   UNL     1       1.665   1.936  -0.610  0.00  0.00    +0.141 A 
ATOM      9  O   UNL     1       2.903   1.403  -0.516  0.00  0.00    -0.424 OA
ATOM     10  C   UNL     1       3.989   2.165  -0.313  0.00  0.00    +0.310 A 
ATOM     11  N   UNL     1       2.540   5.550  -0.150  0.00  0.00    -0.380 N 
ATOM     12  H   UNL     1       2.431   6.173  -1.050  0.00  0.00    +0.160 HD
ENDROOT
BRANCH  11  13
ATOM     13  C   UNL     1       2.577   5.960   1.260  0.00  0.00    +0.079 C 
ATOM     14  C   UNL     1       1.167   5.858   1.878  0.00  0.00    +0.024 C 
ATOM     15  C   UNL     1       1.083   7.074   2.833  0.00  0.00    +0.002 C 
ATOM     16  C   UNL     1       1.831   8.180   2.048  0.00  0.00    +0.002 C 
ATOM     17  C   UNL     1       2.999   7.436   1.369  0.00  0.00    +0.024 C 
ENDBRANCH  11  13
BRANCH   1  18
ATOM     18  N   UNL     1       5.061   4.330   0.028  0.00  0.00    -0.208 N 
ATOM     19  H   UNL     1       5.170   4.917   0.952  0.00  0.00    +0.174 HD
BRANCH  18  20
ATOM     20  S   UNL     1       6.261   4.350  -1.113  0.00  0.00    +0.073 S 
ATOM     21  O   UNL     1       5.621   4.501  -2.373  0.00  0.00    -0.150 OA
ATOM     22  O   UNL     1       7.250   5.258  -0.647  0.00  0.00    -0.150 OA
BRANCH  20  27
ATOM     23  C   UNL     1       8.810  -1.119  -1.119  0.00  0.00    +0.044 C 
ATOM     24  C   UNL     1       8.173   0.247  -1.117  0.00  0.00    -0.050 A 
ATOM     25  C   UNL     1       7.513   0.703  -2.243  0.00  0.00    +0.005 A 
ATOM     26  C   UNL     1       6.929   1.956  -2.242  0.00  0.00    +0.029 A 
ATOM     27  C   UNL     1       7.005   2.753  -1.115  0.00  0.00    +0.111 A 
ATOM     28  C   UNL     1       7.670   2.299   0.009  0.00  0.00    -0.024 A 
ATOM     29  C   UNL     1       8.250   1.044   0.010  0.00  0.00    +0.008 A 
ATOM     30  C   UNL     1       7.758   3.171   1.235  0.00  0.00    +0.046 C 
ENDBRANCH  20  27
ENDBRANCH  18  20
ENDBRANCH   1  18
BRANCH  10  31
ATOM     31  O   UNL     1       5.082   1.630  -0.237  0.00  0.00    -0.479 OA
ATOM     32  H   UNL     1       5.168   0.538  -0.334  0.00  0.00    +0.295 HD
ENDBRANCH  10  31
TORSDOF 5
