REMARK  Name = ZINC20219021
REMARK  8 active torsions:
REMARK  status: ('A' for Active; 'I' for Inactive)
REMARK    1  A    between atoms: C_1  and  O_2
REMARK    2  A    between atoms: O_2  and  C_3
REMARK    3  A    between atoms: C_8  and  O_9
REMARK    4  A    between atoms: O_9  and  C_10
REMARK    5  A    between atoms: N_14  and  C_17
REMARK    6  A    between atoms: C_15  and  N_16
REMARK    7  A    between atoms: C_17  and  C_18
REMARK    8  A    between atoms: C_22  and  C_24
REMARK                            x       y       z     vdW  Elec       q    Type
REMARK                         _______ _______ _______ _____ _____    ______ ____
ROOT
ATOM      1  C   UNL     1       0.606  -0.608  -1.057  0.00  0.00    +0.162 A 
ATOM      2  C   UNL     1       1.162   0.156  -2.043  0.00  0.00    +0.062 A 
ATOM      3  C   UNL     1       1.785  -0.465  -3.135  0.00  0.00    +0.042 A 
ATOM      4  C   UNL     1       1.835  -1.882  -3.209  0.00  0.00    +0.081 A 
ATOM      5  C   UNL     1       1.259  -2.643  -2.187  0.00  0.00    +0.078 A 
ATOM      6  C   UNL     1       0.657  -2.007  -1.121  0.00  0.00    +0.164 A 
ATOM      7  N   UNL     1       2.436  -2.463  -4.261  0.00  0.00    -0.222 NA
ATOM      8  C   UNL     1       2.978  -1.732  -5.222  0.00  0.00    +0.182 A 
ATOM      9  S   UNL     1       3.729  -2.527  -6.538  0.00  0.00    -0.011 S 
ATOM     10  N   UNL     1       2.959  -0.389  -5.202  0.00  0.00    -0.303 N 
ATOM     11  C   UNL     1       2.372   0.284  -4.175  0.00  0.00    +0.108 A 
ENDROOT
BRANCH  11  12
ATOM     12  N   UNL     1       2.351   1.645  -4.153  0.00  0.00    -0.344 N 
ATOM     13  H   UNL     1       1.929   2.112  -3.415  0.00  0.00    +0.144 HD
ATOM     14  H   UNL     1       2.759   2.148  -4.875  0.00  0.00    +0.144 HD
ENDBRANCH  11  12
BRANCH   1  16
ATOM     15  C   UNL     1      -0.017   1.425   0.010  0.00  0.00    +0.277 C 
ATOM     16  O   UNL     1       0.002  -0.004   0.002  0.00  0.00    -0.491 OA
ENDBRANCH   1  16
BRANCH   6  17
ATOM     17  O   UNL     1       0.103  -2.745  -0.125  0.00  0.00    -0.491 OA
ATOM     18  C   UNL     1       0.187  -4.167  -0.247  0.00  0.00    +0.277 C 
ENDBRANCH   6  17
BRANCH  10  19
ATOM     19  C   UNL     1       3.578   0.360  -6.298  0.00  0.00    +0.160 C 
BRANCH  19  20
ATOM     20  C   UNL     1       2.555   0.610  -7.376  0.00  0.00    -0.027 A 
ATOM     21  C   UNL     1       2.389  -0.307  -8.398  0.00  0.00    +0.005 A 
ATOM     22  C   UNL     1       1.451  -0.078  -9.386  0.00  0.00    +0.001 A 
ATOM     23  C   UNL     1       0.679   1.068  -9.354  0.00  0.00    +0.012 A 
ATOM     24  C   UNL     1       0.844   1.984  -8.333  0.00  0.00    +0.055 A 
ATOM     25  C   UNL     1       1.780   1.753  -7.341  0.00  0.00    +0.017 A 
BRANCH  24  26
ATOM     26  C   UNL     1       0.003   3.234  -8.298  0.00  0.00    +0.417 C 
ATOM     27  F   UNL     1      -0.866   3.242  -9.395  0.00  0.00    -0.166 F 
ATOM     28  F   UNL     1      -0.742   3.262  -7.114  0.00  0.00    -0.166 F 
ATOM     29  F   UNL     1       0.834   4.358  -8.353  0.00  0.00    -0.166 F 
ENDBRANCH  24  26
ENDBRANCH  19  20
ENDBRANCH  10  19
TORSDOF 6
