REMARK  Name = ZINC51606997
REMARK  9 active torsions:
REMARK  status: ('A' for Active; 'I' for Inactive)
REMARK    1  A    between atoms: C_1  and  C_2
REMARK    2  A    between atoms: C_5  and  C_7
REMARK    3  A    between atoms: C_7  and  C_9
REMARK    4  A    between atoms: C_7  and  S_13
REMARK    5  A    between atoms: C_9  and  C_11
REMARK    6  A    between atoms: C_9  and  N_12
REMARK    7  A    between atoms: S_13  and  C_14
REMARK    8  A    between atoms: C_16  and  C_21
REMARK    9  A    between atoms: C_18  and  C_20
REMARK                            x       y       z     vdW  Elec       q    Type
REMARK                         _______ _______ _______ _____ _____    ______ ____
ROOT
ATOM      1  C   UNL     1       1.708  -3.323  -0.071  0.00  0.00    +0.105 C 
ENDROOT
BRANCH   1   6
ATOM      2  C   UNL     1       0.053   1.385   0.660  0.00  0.00    +0.086 C 
ATOM      3  C   UNL     1       0.062  -0.112   0.491  0.00  0.00    +0.102 A 
ATOM      4  C   UNL     1      -1.016  -0.915   0.532  0.00  0.00    +0.044 A 
ATOM      5  C   UNL     1      -0.552  -2.235   0.327  0.00  0.00    +0.046 A 
ATOM      6  C   UNL     1       0.782  -2.159   0.172  0.00  0.00    +0.117 A 
ATOM      7  O   UNL     1       1.148  -0.871   0.267  0.00  0.00    -0.464 OA
ENDBRANCH   1   6
BRANCH   1   8
ATOM      8  C   UNL     1       2.433  -3.127  -1.404  0.00  0.00    -0.057 C 
ATOM      9  C   UNL     1       1.415  -3.153  -2.547  0.00  0.00    -0.013 C 
BRANCH   8  10
ATOM     10  N   UNL     1       3.409  -4.209  -1.594  0.00  0.00    +0.381 N 
ATOM     11  H   UNL     1       2.925  -5.091  -1.663  0.00  0.00    -0.090 HD
ATOM     12  H   UNL     1       3.932  -4.045  -2.441  0.00  0.00    -0.090 HD
ATOM     13  H   UNL     1       4.041  -4.233  -0.808  0.00  0.00    -0.090 HD
ENDBRANCH   8  10
ENDBRANCH   1   8
BRANCH   1  14
ATOM     14  S   UNL     1       2.925  -3.418   1.271  0.00  0.00    -0.076 S 
BRANCH  14  15
ATOM     15  C   UNL     1       1.971  -3.876   2.680  0.00  0.00    +0.189 A 
ATOM     16  N   UNL     1       0.654  -3.977   2.565  0.00  0.00    -0.227 NA
ATOM     17  C   UNL     1      -0.091  -4.319   3.603  0.00  0.00    +0.043 A 
ATOM     18  C   UNL     1       0.522  -4.573   4.820  0.00  0.00    +0.046 A 
ATOM     19  C   UNL     1       1.901  -4.459   4.905  0.00  0.00    +0.043 A 
ATOM     20  N   UNL     1       2.588  -4.118   3.828  0.00  0.00    -0.227 NA
ATOM     21  C   UNL     1       2.609  -4.726   6.209  0.00  0.00    +0.066 C 
ATOM     22  C   UNL     1      -1.587  -4.430   3.464  0.00  0.00    +0.066 C 
ENDBRANCH  14  15
ENDBRANCH   1  14
TORSDOF 5
