REMARK  Name = ZINC44163774
REMARK  7 active torsions:
REMARK  status: ('A' for Active; 'I' for Inactive)
REMARK    1  A    between atoms: C_1  and  C_2
REMARK    2  A    between atoms: C_2  and  C_4
REMARK    3  A    between atoms: C_2  and  C_28
REMARK    4  A    between atoms: C_4  and  N_5
REMARK    5  A    between atoms: C_6  and  C_8
REMARK    6  A    between atoms: C_13  and  C_16
REMARK    7  A    between atoms: C_19  and  C_22
REMARK                            x       y       z     vdW  Elec       q    Type
REMARK                         _______ _______ _______ _____ _____    ______ ____
ROOT
ATOM      1  C   UNL     1      -4.078  -0.112  -2.723  0.00  0.00    +0.027 C 
ATOM      2  C   UNL     1      -4.094   1.417  -2.841  0.00  0.00    +0.062 C 
ATOM      3  S   UNL     1      -4.874   1.859  -4.425  0.00  0.00    -0.163 S 
ATOM      4  C   UNL     1      -6.407   0.877  -4.401  0.00  0.00    +0.058 C 
ATOM      5  C   UNL     1      -6.045  -0.571  -4.050  0.00  0.00    -0.030 C 
ATOM      6  N   UNL     1      -5.450  -0.623  -2.712  0.00  0.00    +0.392 N 
ATOM      7  H   UNL     1      -5.445  -1.579  -2.391  0.00  0.00    -0.084 HD
ATOM      8  H   UNL     1      -6.006  -0.065  -2.080  0.00  0.00    -0.084 HD
ENDROOT
BRANCH   5   9
ATOM      9  C   UNL     1      -7.290  -1.418  -4.076  0.00  0.00    -0.061 A 
ATOM     10  C   UNL     1      -8.158  -1.402  -2.999  0.00  0.00    +0.002 A 
ATOM     11  C   UNL     1      -9.300  -2.177  -3.018  0.00  0.00    +0.009 A 
ATOM     12  C   UNL     1      -9.579  -2.976  -4.125  0.00  0.00    -0.018 A 
ATOM     13  C   UNL     1      -8.701  -2.988  -5.207  0.00  0.00    +0.009 A 
ATOM     14  C   UNL     1      -7.565  -2.205  -5.180  0.00  0.00    +0.002 A 
BRANCH  12  15
ATOM     15  C   UNL     1     -10.805  -3.811  -4.150  0.00  0.00    -0.018 A 
ATOM     16  C   UNL     1     -11.685  -3.795  -3.070  0.00  0.00    +0.008 A 
ATOM     17  C   UNL     1     -12.824  -4.573  -3.099  0.00  0.00    +0.001 A 
ATOM     18  C   UNL     1     -13.093  -5.369  -4.198  0.00  0.00    +0.000 A 
ATOM     19  C   UNL     1     -12.223  -5.389  -5.273  0.00  0.00    +0.001 A 
ATOM     20  C   UNL     1     -11.084  -4.610  -5.257  0.00  0.00    +0.008 A 
ENDBRANCH  12  15
ENDBRANCH   5   9
BRANCH   1  22
ATOM     21  N   UNL     1      -2.105  -0.148  -1.230  0.00  0.00    -0.316 N 
ATOM     22  C   UNL     1      -3.387  -0.508  -1.443  0.00  0.00    +0.200 C 
ATOM     23  O   UNL     1      -3.983  -1.151  -0.606  0.00  0.00    -0.278 OA
ATOM     24  H   UNL     1      -1.628   0.366  -1.901  0.00  0.00    +0.149 HD
BRANCH  21  25
ATOM     25  C   UNL     1      -1.433  -0.534   0.013  0.00  0.00    +0.112 C 
BRANCH  25  27
ATOM     26  C   UNL     1      -0.019   1.526   0.010  0.00  0.00    +0.014 C 
ATOM     27  C   UNL     1       0.002  -0.004   0.002  0.00  0.00    +0.033 C 
BRANCH  27  28
ATOM     28  C   UNL     1       0.731  -0.503   1.223  0.00  0.00    -0.043 A 
ATOM     29  C   UNL     1       0.263  -0.187   2.485  0.00  0.00    +0.004 A 
ATOM     30  C   UNL     1       0.931  -0.645   3.605  0.00  0.00    +0.000 A 
ATOM     31  C   UNL     1       2.068  -1.419   3.463  0.00  0.00    +0.000 A 
ATOM     32  C   UNL     1       2.535  -1.736   2.201  0.00  0.00    +0.000 A 
ATOM     33  C   UNL     1       1.864  -1.282   1.081  0.00  0.00    +0.004 A 
ENDBRANCH  27  28
ENDBRANCH  25  27
ENDBRANCH  21  25
ENDBRANCH   1  22
TORSDOF 6
