REMARK  Name = ZINC39431692
REMARK  8 active torsions:
REMARK  status: ('A' for Active; 'I' for Inactive)
REMARK    1  A    between atoms: C_1  and  C_2
REMARK    2  A    between atoms: C_2  and  C_3
REMARK    3  A    between atoms: C_3  and  N_4
REMARK    4  A    between atoms: N_4  and  C_5
REMARK    5  A    between atoms: C_5  and  C_6
REMARK    6  A    between atoms: C_19  and  C_21
REMARK    7  A    between atoms: C_24  and  C_36
REMARK    8  A    between atoms: N_26  and  C_30
REMARK                            x       y       z     vdW  Elec       q    Type
REMARK                         _______ _______ _______ _____ _____    ______ ____
ROOT
ATOM      1  N   UNL     1       0.839  -2.117  -1.192  0.00  0.00    -0.290 N 
ATOM      2  C   UNL     1       2.026  -2.541  -0.713  0.00  0.00    +0.253 C 
ATOM      3  O   UNL     1       2.820  -1.738  -0.257  0.00  0.00    -0.269 OA
ENDROOT
BRANCH   2   4
ATOM      4  C   UNL     1       2.349  -3.921  -0.741  0.00  0.00    +0.072 C 
ATOM      5  C   UNL     1       3.519  -4.521  -0.368  0.00  0.00    +0.028 C 
ATOM      6  C   UNL     1       3.667  -5.904  -0.435  0.00  0.00    +0.004 C 
ATOM      7  C   UNL     1       4.319  -6.993   0.037  0.00  0.00    +0.025 C 
ATOM      8  N   UNL     1       3.573  -8.130  -0.156  0.00  0.00    -0.267 N 
ATOM      9  N   UNL     1       2.341  -7.786  -0.760  0.00  0.00    -0.236 N 
ATOM     10  C   UNL     1       2.666  -6.524  -1.433  0.00  0.00    +0.188 C 
ATOM     11  S   UNL     1       1.318  -5.289  -1.265  0.00  0.00    -0.091 S 
ATOM     12  C   UNL     1       5.678  -6.961   0.687  0.00  0.00    +0.062 C 
ATOM     13  H   UNL     1       3.849  -9.029   0.084  0.00  0.00    +0.170 HD
BRANCH   9  14
ATOM     14  C   UNL     1       1.125  -8.473  -0.726  0.00  0.00    +0.049 A 
ATOM     15  C   UNL     1       0.020  -7.966  -1.397  0.00  0.00    +0.025 A 
ATOM     16  C   UNL     1      -1.180  -8.649  -1.361  0.00  0.00    +0.002 A 
ATOM     17  C   UNL     1      -1.283  -9.834  -0.657  0.00  0.00    +0.000 A 
ATOM     18  C   UNL     1      -0.184 -10.341   0.013  0.00  0.00    +0.002 A 
ATOM     19  C   UNL     1       1.021  -9.667  -0.024  0.00  0.00    +0.025 A 
ENDBRANCH   9  14
ENDBRANCH   2   4
BRANCH   1  20
ATOM     20  C   UNL     1       0.556  -0.683  -1.284  0.00  0.00    +0.108 C 
BRANCH  20  22
ATOM     21  C   UNL     1      -0.494   1.268  -0.130  0.00  0.00    +0.005 C 
ATOM     22  C   UNL     1      -0.199  -0.230  -0.033  0.00  0.00    +0.016 C 
ENDBRANCH  20  22
ENDBRANCH   1  20
BRANCH   1  23
ATOM     23  C   UNL     1      -0.168  -3.091  -1.619  0.00  0.00    +0.182 C 
BRANCH  23  24
ATOM     24  C   UNL     1       0.126  -3.531  -3.030  0.00  0.00    +0.128 A 
ATOM     25  N   UNL     1      -0.707  -4.435  -3.610  0.00  0.00    -0.309 N 
ATOM     26  H   UNL     1      -1.466  -4.777  -3.113  0.00  0.00    +0.170 HD
ATOM     27  C   UNL     1      -0.487  -4.862  -4.876  0.00  0.00    +0.259 A 
ATOM     28  O   UNL     1      -1.225  -5.671  -5.407  0.00  0.00    -0.267 OA
ATOM     29  C   UNL     1       0.678  -4.310  -5.583  0.00  0.00    +0.065 A 
ATOM     30  C   UNL     1       0.992  -4.683  -6.888  0.00  0.00    +0.017 A 
ATOM     31  C   UNL     1       2.087  -4.140  -7.502  0.00  0.00    +0.021 A 
ATOM     32  C   UNL     1       2.889  -3.220  -6.838  0.00  0.00    +0.043 A 
ATOM     33  C   UNL     1       2.600  -2.834  -5.546  0.00  0.00    +0.048 A 
ATOM     34  C   UNL     1       1.487  -3.375  -4.900  0.00  0.00    +0.080 A 
ATOM     35  N   UNL     1       1.158  -3.022  -3.632  0.00  0.00    -0.232 NA
ATOM     36 CL   UNL     1       4.272  -2.548  -7.644  0.00  0.00    -0.083 Cl
ENDBRANCH  23  24
ENDBRANCH   1  23
TORSDOF 6
