REMARK  Name = ZINC12428465
REMARK  6 active torsions:
REMARK  status: ('A' for Active; 'I' for Inactive)
REMARK    1  A    between atoms: C_4  and  N_11
REMARK    2  A    between atoms: C_6  and  C_7
REMARK    3  A    between atoms: C_14  and  C_21
REMARK    4  A    between atoms: C_16  and  C_19
REMARK    5  A    between atoms: C_17  and  N_18
REMARK    6  A    between atoms: C_24  and  N_26
REMARK                            x       y       z     vdW  Elec       q    Type
REMARK                         _______ _______ _______ _____ _____    ______ ____
ROOT
ATOM      1  N   UNL     1      -3.626   1.256   0.073  0.00  0.00    -0.259 N 
ATOM      2  C   UNL     1      -3.153   1.772   1.251  0.00  0.00    +0.025 C 
ATOM      3  C   UNL     1      -2.006   2.483   1.280  0.00  0.00    +0.026 C 
ATOM      4  C   UNL     1      -1.206   2.714   0.023  0.00  0.00    +0.104 C 
ATOM      5  C   UNL     1      -2.037   2.468  -1.202  0.00  0.00    +0.077 C 
ATOM      6  C   UNL     1      -3.193   1.758  -1.134  0.00  0.00    +0.107 C 
ATOM      7  C   UNL     1      -1.523   3.031   2.481  0.00  0.00    +0.162 C 
ATOM      8  O   UNL     1      -0.484   3.661   2.474  0.00  0.00    -0.292 OA
ATOM      9  C   UNL     1      -2.269   2.854   3.775  0.00  0.00    +0.080 C 
ATOM     10  C   UNL     1      -3.763   2.699   3.473  0.00  0.00    +0.014 C 
ATOM     11  C   UNL     1      -3.944   1.523   2.511  0.00  0.00    +0.052 C 
ENDROOT
BRANCH   1  15
ATOM     12  C   UNL     1      -6.393  -1.859   0.143  0.00  0.00    +0.014 A 
ATOM     13  C   UNL     1      -6.832  -0.547   0.142  0.00  0.00    +0.022 A 
ATOM     14  C   UNL     1      -5.917   0.488   0.124  0.00  0.00    +0.063 A 
ATOM     15  C   UNL     1      -4.555   0.210   0.096  0.00  0.00    +0.058 A 
ATOM     16  C   UNL     1      -4.119  -1.108   0.098  0.00  0.00    +0.037 A 
ATOM     17  C   UNL     1      -5.039  -2.139   0.121  0.00  0.00    +0.057 A 
ATOM     18 CL   UNL     1      -6.468   2.135   0.130  0.00  0.00    -0.082 Cl
BRANCH  17  19
ATOM     19  C   UNL     1      -4.566  -3.570   0.123  0.00  0.00    +0.417 C 
ATOM     20  F   UNL     1      -4.397  -4.003   1.443  0.00  0.00    -0.166 F 
ATOM     21  F   UNL     1      -5.516  -4.375  -0.514  0.00  0.00    -0.166 F 
ATOM     22  F   UNL     1      -3.347  -3.659  -0.557  0.00  0.00    -0.166 F 
ENDBRANCH  17  19
ENDBRANCH   1  15
BRANCH   4  23
ATOM     23  C   UNL     1      -0.022   1.781   0.012  0.00  0.00    +0.005 A 
ATOM     24  C   UNL     1       1.300   2.079   0.001  0.00  0.00    +0.014 A 
ATOM     25  C   UNL     1       2.220   1.048  -0.013  0.00  0.00    +0.041 A 
ATOM     26  C   UNL     1       1.773  -0.232  -0.016  0.00  0.00    +0.164 A 
ATOM     27  S   UNL     1       0.002  -0.004   0.002  0.00  0.00    -0.068 S 
BRANCH  26  28
ATOM     28  N   UNL     1       2.551  -1.491  -0.030  0.00  0.00    +0.063 N 
ATOM     29  O   UNL     1       3.768  -1.455  -0.041  0.00  0.00    -0.126 OA
ATOM     30  O   UNL     1       1.973  -2.564  -0.031  0.00  0.00    -0.126 OA
ENDBRANCH  26  28
ENDBRANCH   4  23
BRANCH   6  31
ATOM     31  N   UNL     1      -3.932   1.541  -2.272  0.00  0.00    -0.345 N 
ATOM     32  H   UNL     1      -3.628   1.894  -3.123  0.00  0.00    +0.144 HD
ATOM     33  H   UNL     1      -4.758   1.034  -2.224  0.00  0.00    +0.144 HD
ENDBRANCH   6  31
BRANCH   5  34
ATOM     34  C   UNL     1      -1.605   2.991  -2.463  0.00  0.00    +0.099 C 
ATOM     35  N   UNL     1      -1.262   3.405  -3.463  0.00  0.00    -0.191 NA
ENDBRANCH   5  34
TORSDOF 6
