REMARK  Name = ZINC15955788
REMARK  11 active torsions:
REMARK  status: ('A' for Active; 'I' for Inactive)
REMARK    1  A    between atoms: CD1_1  and  CG1_2
REMARK    2  A    between atoms: CG1_2  and  CB_3
REMARK    3  A    between atoms: CB_3  and  CG2_5
REMARK    4  A    between atoms: CB_3  and  CA_6
REMARK    5  A    between atoms: CA_6  and  C_8
REMARK    6  A    between atoms: CA_6  and  N_10
REMARK    7  A    between atoms: C_11  and  C_13
REMARK    8  A    between atoms: C_13  and  C_14
REMARK    9  A    between atoms: C_15  and  C_36
REMARK   10  A    between atoms: C_19  and  C_29
REMARK   11  A    between atoms: C_23  and  C_28
REMARK                            x       y       z     vdW  Elec       q    Type
REMARK                         _______ _______ _______ _____ _____    ______ ____
ROOT
ATOM      1  C   UNK A   0      -0.742   1.585  -1.213  0.00  0.00    +0.049 A 
ATOM      2  C   UNK A   0      -1.732   0.840  -1.766  0.00  0.00    -0.029 A 
ATOM      3  C   UNK A   0      -2.416   1.367  -2.951  0.00  0.00    +0.022 A 
ATOM      4  C   UNK A   0      -3.445   0.648  -3.561  0.00  0.00    +0.024 A 
ATOM      5  C   UNK A   0      -4.068   1.173  -4.682  0.00  0.00    +0.029 A 
ATOM      6  C   UNK A   0      -5.159   0.708  -5.560  0.00  0.00    +0.028 A 
ATOM      7  C   UNK A   0      -5.317   1.671  -6.495  0.00  0.00    +0.204 A 
ATOM      8  O   UNK A   0      -4.442   2.669  -6.282  0.00  0.00    -0.462 OA
ATOM      9  C   UNK A   0      -3.670   2.418  -5.205  0.00  0.00    +0.142 A 
ATOM     10  C   UNK A   0      -2.646   3.128  -4.594  0.00  0.00    +0.035 A 
ATOM     11  C   UNK A   0      -2.017   2.614  -3.473  0.00  0.00    +0.146 A 
ATOM     12  O   UNK A   0      -1.018   3.302  -2.874  0.00  0.00    -0.422 OA
ATOM     13  C   UNK A   0      -0.393   2.826  -1.787  0.00  0.00    +0.341 A 
ATOM     14  O   UNK A   0       0.501   3.482  -1.283  0.00  0.00    -0.245 OA
ATOM     15  C   UNK A   0      -2.218   4.461  -5.152  0.00  0.00    +0.051 C 
ATOM     16  C   UNK A   0      -2.121  -0.491  -1.176  0.00  0.00    +0.045 C 
ENDROOT
BRANCH   6  17
ATOM     17  C   UNK A   0      -5.924  -0.557  -5.442  0.00  0.00    -0.014 A 
ATOM     18  C   UNK A   0      -5.252  -1.771  -5.308  0.00  0.00    +0.011 A 
ATOM     19  C   UNK A   0      -5.968  -2.945  -5.194  0.00  0.00    +0.039 A 
ATOM     20  C   UNK A   0      -7.353  -2.919  -5.222  0.00  0.00    +0.123 A 
ATOM     21  C   UNK A   0      -8.025  -1.715  -5.360  0.00  0.00    +0.039 A 
ATOM     22  C   UNK A   0      -7.318  -0.536  -5.470  0.00  0.00    +0.011 A 
ATOM     23  F   UNK A   0      -8.050  -4.071  -5.115  0.00  0.00    -0.205 F 
ENDBRANCH   6  17
BRANCH   1  24
ATOM     24  C   UNK A   0      -0.013   1.086   0.008  0.00  0.00    +0.138 C 
BRANCH  24  26
ATOM     25  N   ILE A   1      -0.242   1.246   2.466  0.00  0.00    -0.302 N 
ATOM     26  C   UNK A   0      -0.718   1.572   1.248  0.00  0.00    +0.218 C 
ATOM     27  O   UNK A   0      -1.714   2.256   1.150  0.00  0.00    -0.275 OA
ATOM     28  H   ILE A   1       0.555   0.699   2.544  0.00  0.00    +0.150 HD
BRANCH  25  29
ATOM     29  CA  ILE A   1      -0.927   1.718   3.671  0.00  0.00    +0.189 C 
BRANCH  29  30
ATOM     30  C   ILE A   1      -0.445   3.105   4.013  0.00  0.00    +0.376 C 
ATOM     31  O   ILE A   1       0.386   3.643   3.320  0.00  0.00    -0.244 OA
ATOM     32  OXT ILE A   1      -0.939   3.742   5.086  0.00  0.00    -0.244 OA
ENDBRANCH  29  30
BRANCH  29  33
ATOM     33  CB  ILE A   1      -0.624   0.772   4.834  0.00  0.00    +0.017 C 
ATOM     34  CG2 ILE A   1       0.868   0.834   5.167  0.00  0.00    +0.010 C 
BRANCH  33  36
ATOM     35  CD1 ILE A   1      -1.231   0.176   7.184  0.00  0.00    +0.004 C 
ATOM     36  CG1 ILE A   1      -1.438   1.193   6.060  0.00  0.00    +0.002 C 
ENDBRANCH  33  36
ENDBRANCH  29  33
ENDBRANCH  25  29
ENDBRANCH  24  26
ENDBRANCH   1  24
TORSDOF 7
