REMARK  Name = ZINC41169149
REMARK  8 active torsions:
REMARK  status: ('A' for Active; 'I' for Inactive)
REMARK    1  A    between atoms: C_1  and  C_2
REMARK    2  A    between atoms: C_5  and  S_7
REMARK    3  A    between atoms: S_7  and  N_10
REMARK    4  A    between atoms: N_10  and  C_11
REMARK    5  A    between atoms: C_11  and  C_12
REMARK    6  A    between atoms: C_16  and  C_24
REMARK    7  A    between atoms: C_24  and  C_25
REMARK    8  A    between atoms: C_24  and  C_26
REMARK                            x       y       z     vdW  Elec       q    Type
REMARK                         _______ _______ _______ _____ _____    ______ ____
ROOT
ATOM      1  C   UNL     1       2.493  -4.867  -3.724  0.00  0.00    +0.033 A 
ATOM      2  C   UNL     1       1.789  -4.585  -4.848  0.00  0.00    +0.020 A 
ATOM      3  C   UNL     1       2.033  -5.388  -6.047  0.00  0.00    -0.001 A 
ATOM      4  C   UNL     1       1.338  -5.145  -7.236  0.00  0.00    +0.013 A 
ATOM      5  C   UNL     1       1.589  -5.912  -8.337  0.00  0.00    -0.044 A 
ATOM      6  C   UNL     1       2.529  -6.933  -8.287  0.00  0.00    +0.006 A 
ATOM      7  C   UNL     1       3.226  -7.191  -7.127  0.00  0.00    +0.026 A 
ATOM      8  C   UNL     1       2.987  -6.422  -5.992  0.00  0.00    +0.049 A 
ATOM      9  N   UNL     1       3.670  -6.658  -4.818  0.00  0.00    -0.322 N 
ATOM     10  H   UNL     1       4.327  -7.370  -4.783  0.00  0.00    +0.169 HD
ATOM     11  C   UNL     1       3.443  -5.911  -3.724  0.00  0.00    +0.254 A 
ATOM     12  O   UNL     1       4.069  -6.144  -2.704  0.00  0.00    -0.268 OA
ENDROOT
BRANCH   5  13
ATOM     13  C   UNL     1       0.840  -5.650  -9.618  0.00  0.00    +0.013 C 
ATOM     14  C   UNL     1       1.833  -5.297 -10.727  0.00  0.00    +0.012 C 
ATOM     15  C   UNL     1       0.055  -6.901 -10.015  0.00  0.00    +0.012 C 
ENDBRANCH   5  13
BRANCH   1  16
ATOM     16  C   UNL     1       2.266  -4.058  -2.473  0.00  0.00    +0.146 C 
BRANCH  16  17
ATOM     17  N   UNL     1       1.300  -4.748  -1.614  0.00  0.00    -0.185 NA
ATOM     18  H   UNL     1       0.759  -5.468  -1.974  0.00  0.00    +0.148 HD
BRANCH  17  19
ATOM     19  S   UNL     1       1.134  -4.300  -0.029  0.00  0.00    +0.065 S 
ATOM     20  O   UNL     1       2.445  -4.240   0.516  0.00  0.00    -0.153 OA
ATOM     21  O   UNL     1       0.117  -5.126   0.522  0.00  0.00    -0.153 OA
BRANCH  19  26
ATOM     22  C   UNL     1      -0.018   1.503   0.010  0.00  0.00    +0.051 C 
ATOM     23  C   UNL     1       0.002  -0.004   0.002  0.00  0.00    -0.011 A 
ATOM     24  C   UNL     1      -1.039  -0.872   0.002  0.00  0.00    +0.013 A 
ATOM     25  C   UNL     1      -0.780  -2.230  -0.007  0.00  0.00    +0.036 A 
ATOM     26  C   UNL     1       0.507  -2.653  -0.016  0.00  0.00    +0.143 A 
ATOM     27  S   UNL     1       1.404  -1.109  -0.018  0.00  0.00    -0.074 S 
ENDBRANCH  19  26
ENDBRANCH  17  19
ENDBRANCH  16  17
ENDBRANCH   1  16
TORSDOF 5
