REMARK  Name = ZINC60241765
REMARK  4 active torsions:
REMARK  status: ('A' for Active; 'I' for Inactive)
REMARK    1  A    between atoms: C_1  and  C_2
REMARK    2  A    between atoms: C_3  and  C_13
REMARK    3  A    between atoms: C_5  and  C_7
REMARK    4  A    between atoms: C_23  and  C_25
REMARK                            x       y       z     vdW  Elec       q    Type
REMARK                         _______ _______ _______ _____ _____    ______ ____
ROOT
ATOM      1  C   UNL     1      -0.007  -0.258  -2.570  0.00  0.00    +0.260 C 
ATOM      2  O   UNL     1      -0.052   0.936  -2.805  0.00  0.00    -0.269 OA
ATOM      3  N   UNL     1       0.101  -1.140  -3.583  0.00  0.00    -0.255 N 
ATOM      4  C   UNL     1       0.206  -0.799  -4.934  0.00  0.00    +0.041 A 
ATOM      5  C   UNL     1       0.222   0.464  -5.530  0.00  0.00    +0.024 A 
ATOM      6  C   UNL     1       0.334   0.586  -6.898  0.00  0.00    +0.002 A 
ATOM      7  C   UNL     1       0.431  -0.542  -7.692  0.00  0.00    +0.000 A 
ATOM      8  C   UNL     1       0.416  -1.796  -7.110  0.00  0.00    +0.005 A 
ATOM      9  C   UNL     1       0.304  -1.923  -5.739  0.00  0.00    -0.024 A 
ATOM     10  C   UNL     1       0.262  -3.151  -4.857  0.00  0.00    +0.069 C 
ATOM     11  C   UNL     1       0.134  -2.597  -3.429  0.00  0.00    +0.171 C 
ENDROOT
BRANCH   1  14
ATOM     12  C   UNL     1       0.074   1.484   0.021  0.00  0.00    +0.067 C 
ATOM     13  C   UNL     1      -0.041  -0.018   0.003  0.00  0.00    +0.058 A 
ATOM     14  C   UNL     1      -0.072  -0.736  -1.186  0.00  0.00    +0.097 A 
ATOM     15  S   UNL     1      -0.213  -2.402  -0.560  0.00  0.00    -0.062 S 
ATOM     16  C   UNL     1      -0.218  -2.035   1.082  0.00  0.00    +0.109 A 
ATOM     17  N   UNL     1      -0.112  -0.717   1.105  0.00  0.00    -0.243 NA
BRANCH  16  18
ATOM     18  C   UNL     1      -0.313  -2.965   2.227  0.00  0.00    +0.007 A 
ATOM     19  C   UNL     1      -0.408  -4.340   2.007  0.00  0.00    +0.010 A 
ATOM     20  C   UNL     1      -0.495  -5.203   3.080  0.00  0.00    +0.001 A 
ATOM     21  C   UNL     1      -0.489  -4.708   4.372  0.00  0.00    +0.000 A 
ATOM     22  C   UNL     1      -0.395  -3.346   4.597  0.00  0.00    +0.001 A 
ATOM     23  C   UNL     1      -0.301  -2.473   3.533  0.00  0.00    +0.010 A 
ENDBRANCH  16  18
ENDBRANCH   1  14
BRANCH  11  24
ATOM     24  C   UNL     1       1.321  -3.008  -2.596  0.00  0.00    +0.232 C 
ATOM     25  O   UNL     1       2.080  -2.166  -2.165  0.00  0.00    -0.274 OA
ATOM     26  N   UNL     1       1.539  -4.311  -2.332  0.00  0.00    -0.328 N 
ATOM     27  H   UNL     1       0.932  -4.985  -2.676  0.00  0.00    +0.145 HD
ATOM     28  H   UNL     1       2.303  -4.576  -1.796  0.00  0.00    +0.145 HD
ENDBRANCH  11  24
TORSDOF 3
