REMARK  Name = ZINC12782330
REMARK  13 active torsions:
REMARK  status: ('A' for Active; 'I' for Inactive)
REMARK    1  A    between atoms: C_1  and  C_2
REMARK    2  A    between atoms: C_2  and  C_3
REMARK    3  A    between atoms: C_3  and  C_4
REMARK    4  A    between atoms: C_3  and  C_6
REMARK    5  A    between atoms: C_4  and  C_5
REMARK    6  A    between atoms: C_6  and  C_8
REMARK    7  A    between atoms: C_6  and  N_57
REMARK    8  A    between atoms: C_8  and  N_9
REMARK    9  A    between atoms: N_9  and  C_10
REMARK   10  A    between atoms: C_13  and  S_19
REMARK   11  A    between atoms: C_15  and  N_16
REMARK   12  A    between atoms: S_19  and  N_22
REMARK   13  A    between atoms: N_22  and  C_23
REMARK                            x       y       z     vdW  Elec       q    Type
REMARK                         _______ _______ _______ _____ _____    ______ ____
ROOT
ATOM      1  N   UNL     1      -1.300   6.898  -4.181  0.00  0.00    -0.344 N 
ATOM      2  H   UNL     1      -1.941   7.622  -4.258  0.00  0.00    +0.146 HD
ENDROOT
BRANCH   1   3
ATOM      3  C   UNL     1      -0.659   6.661  -2.963  0.00  0.00    +0.058 A 
ATOM      4  C   UNL     1       0.349   5.707  -2.880  0.00  0.00    +0.027 A 
ATOM      5  C   UNL     1       0.984   5.479  -1.676  0.00  0.00    +0.030 A 
ATOM      6  C   UNL     1       0.611   6.190  -0.550  0.00  0.00    +0.108 A 
ATOM      7  C   UNL     1      -0.391   7.139  -0.628  0.00  0.00    +0.063 A 
ATOM      8  C   UNL     1      -1.027   7.377  -1.831  0.00  0.00    +0.149 A 
BRANCH   8   9
ATOM      9  N   UNL     1      -2.100   8.393  -1.914  0.00  0.00    +0.058 N 
ATOM     10  O   UNL     1      -2.498   8.942  -0.902  0.00  0.00    -0.126 OA
ATOM     11  O   UNL     1      -2.585   8.680  -2.994  0.00  0.00    -0.126 OA
ENDBRANCH   8   9
BRANCH   6  12
ATOM     12  S   UNL     1       1.420   5.890   0.987  0.00  0.00    +0.058 S 
ATOM     13  O   UNL     1       1.268   7.071   1.763  0.00  0.00    -0.153 OA
ATOM     14  O   UNL     1       2.693   5.342   0.675  0.00  0.00    -0.153 OA
BRANCH  12  15
ATOM     15  N   UNL     1       0.569   4.701   1.764  0.00  0.00    -0.193 NA
ATOM     16  C   UNL     1       0.503   3.354   1.191  0.00  0.00    +0.127 C 
ATOM     17  H   UNL     1       0.111   4.897   2.596  0.00  0.00    +0.148 HD
ENDBRANCH  12  15
ENDBRANCH   6  12
ENDBRANCH   1   3
BRANCH   1  18
ATOM     18  C   UNL     1      -1.004   6.054  -5.341  0.00  0.00    +0.086 C 
BRANCH  18  19
ATOM     19  C   UNL     1      -1.740   6.597  -6.567  0.00  0.00    -0.048 C 
BRANCH  19  24
ATOM     20  C   UNL     1      -0.238   5.010  -7.642  0.00  0.00    -0.078 C 
ATOM     21  C   UNL     1      -0.432   3.749  -8.520  0.00  0.00    -0.020 C 
ATOM     22  C   UNL     1      -1.875   3.309  -8.179  0.00  0.00    -0.020 C 
ATOM     23  C   UNL     1      -2.562   4.574  -7.632  0.00  0.00    -0.078 C 
ATOM     24  N   UNL     1      -1.565   5.643  -7.703  0.00  0.00    +0.383 N 
ATOM     25  H   UNL     1      -1.666   6.152  -8.589  0.00  0.00    -0.081 HD
ENDBRANCH  19  24
BRANCH  19  26
ATOM     26  C   UNL     1      -1.165   7.964  -6.943  0.00  0.00    -0.024 C 
BRANCH  26  28
ATOM     27  C   UNL     1       0.943   9.216  -7.426  0.00  0.00    +0.004 C 
ATOM     28  C   UNL     1       0.332   7.827  -7.228  0.00  0.00    -0.002 C 
ENDBRANCH  26  28
BRANCH  26  29
ATOM     29  C   UNL     1      -1.875   8.491  -8.192  0.00  0.00    -0.002 C 
ATOM     30  C   UNL     1      -3.352   8.731  -7.875  0.00  0.00    +0.004 C 
ENDBRANCH  26  29
ENDBRANCH  19  26
ENDBRANCH  18  19
ENDBRANCH   1  18
TORSDOF 10
