REMARK  Name = ZINC63820742
REMARK  3 active torsions:
REMARK  status: ('A' for Active; 'I' for Inactive)
REMARK    1  A    between atoms: C_1  and  C_2
REMARK    2  A    between atoms: N_10  and  C_14
REMARK    3  A    between atoms: C_16  and  C_26
REMARK                            x       y       z     vdW  Elec       q    Type
REMARK                         _______ _______ _______ _____ _____    ______ ____
ROOT
ATOM      1  C   UNL     1      -1.516  -5.834   2.790  0.00  0.00    +0.203 C 
ATOM      2  C   UNL     1      -0.761  -6.037   4.090  0.00  0.00    -0.002 C 
ATOM      3  C   UNL     1      -1.509  -6.429   5.204  0.00  0.00    +0.002 A 
ATOM      4  C   UNL     1      -0.887  -6.639   6.453  0.00  0.00    +0.010 A 
ATOM      5  C   UNL     1      -1.639  -7.019   7.521  0.00  0.00    +0.001 A 
ATOM      6  C   UNL     1      -3.014  -7.207   7.408  0.00  0.00    +0.002 A 
ATOM      7  C   UNL     1      -3.671  -7.020   6.230  0.00  0.00    +0.024 A 
ATOM      8  C   UNL     1      -2.958  -6.625   5.084  0.00  0.00    +0.041 A 
ATOM      9  N   UNL     1      -3.604  -6.442   3.927  0.00  0.00    -0.283 N 
ATOM     10  C   UNL     1      -3.009  -6.072   2.811  0.00  0.00    +0.243 C 
ATOM     11  O   UNL     1      -3.662  -5.923   1.795  0.00  0.00    -0.273 OA
ATOM     12  H   UNL     1      -4.563  -6.587   3.910  0.00  0.00    +0.155 HD
ENDROOT
BRANCH   1  22
ATOM     13  C   UNL     1      -0.006   1.475  -0.080  0.00  0.00    +0.007 C 
ATOM     14  C   UNL     1       0.013  -0.055  -0.070  0.00  0.00    -0.014 C 
ATOM     15  C   UNL     1      -1.422  -0.583  -0.058  0.00  0.00    +0.006 C 
ATOM     16  C   UNL     1      -1.402  -2.114  -0.058  0.00  0.00    +0.035 C 
ATOM     17  C   UNL     1      -0.648  -2.614   1.169  0.00  0.00    +0.113 C 
ATOM     18  C   UNL     1       0.779  -2.078   1.181  0.00  0.00    +0.035 C 
ATOM     19  C   UNL     1       0.751  -0.547   1.177  0.00  0.00    +0.006 C 
ATOM     20  C   UNL     1      -0.644  -4.124   1.208  0.00  0.00    +0.247 C 
ATOM     21  O   UNL     1      -0.167  -4.878   0.388  0.00  0.00    -0.273 OA
ATOM     22  N   UNL     1      -1.286  -4.457   2.347  0.00  0.00    -0.208 N 
ATOM     23  C   UNL     1      -1.687  -3.373   3.022  0.00  0.00    +0.310 C 
ATOM     24  O   UNL     1      -2.286  -3.417   4.078  0.00  0.00    -0.252 OA
ATOM     25  N   UNL     1      -1.352  -2.227   2.398  0.00  0.00    -0.285 N 
ATOM     26  H   UNL     1      -1.540  -1.325   2.701  0.00  0.00    +0.151 HD
ENDBRANCH   1  22
BRANCH   2  27
ATOM     27  C   UNL     1       0.640  -5.839   4.172  0.00  0.00    -0.019 A 
ATOM     28  C   UNL     1       1.514  -6.658   3.438  0.00  0.00    +0.008 A 
ATOM     29  C   UNL     1       2.874  -6.457   3.524  0.00  0.00    +0.001 A 
ATOM     30  C   UNL     1       3.381  -5.451   4.331  0.00  0.00    +0.000 A 
ATOM     31  C   UNL     1       2.527  -4.637   5.059  0.00  0.00    +0.001 A 
ATOM     32  C   UNL     1       1.164  -4.818   4.982  0.00  0.00    +0.008 A 
ENDBRANCH   2  27
TORSDOF 2
