REMARK  Name = ZINC12850256
REMARK  12 active torsions:
REMARK  status: ('A' for Active; 'I' for Inactive)
REMARK    1  A    between atoms: C_1  and  C_2
REMARK    2  A    between atoms: C_2  and  C_3
REMARK    3  A    between atoms: C_3  and  C_4
REMARK    4  A    between atoms: C_4  and  N_5
REMARK    5  A    between atoms: N_5  and  C_6
REMARK    6  A    between atoms: C_7  and  N_22
REMARK    7  A    between atoms: N_8  and  C_15
REMARK    8  A    between atoms: C_15  and  C_16
REMARK    9  A    between atoms: C_23  and  C_25
REMARK   10  A    between atoms: C_25  and  C_27
REMARK   11  A    between atoms: C_25  and  O_28
REMARK   12  A    between atoms: O_28  and  C_29
REMARK                            x       y       z     vdW  Elec       q    Type
REMARK                         _______ _______ _______ _____ _____    ______ ____
ROOT
ATOM      1  C   UNL     1       0.304  -2.437   3.673  0.00  0.00    +0.140 A 
ATOM      2  C   UNL     1      -0.987  -2.889   3.491  0.00  0.00    +0.128 A 
ATOM      3  N   UNL     1      -1.741  -3.227   4.591  0.00  0.00    -0.276 N 
ATOM      4  C   UNL     1      -1.227  -3.116   5.829  0.00  0.00    +0.331 A 
ATOM      5  O   UNL     1      -1.910  -3.419   6.788  0.00  0.00    -0.246 OA
ATOM      6  N   UNL     1       0.029  -2.677   6.026  0.00  0.00    -0.273 N 
ATOM      7  H   UNL     1       0.377  -2.607   6.928  0.00  0.00    +0.173 HD
ATOM      8  C   UNL     1       0.812  -2.339   4.982  0.00  0.00    +0.277 A 
ATOM      9  O   UNL     1       1.951  -1.947   5.171  0.00  0.00    -0.266 OA
ENDROOT
BRANCH   1  10
ATOM     10  N   UNL     1       1.103  -2.083   2.565  0.00  0.00    -0.261 N 
ATOM     11  C   UNL     1       2.199  -2.810   2.264  0.00  0.00    +0.260 C 
ATOM     12  O   UNL     1       2.450  -3.817   2.892  0.00  0.00    -0.271 OA
BRANCH  11  13
ATOM     13  C   UNL     1       3.111  -2.372   1.147  0.00  0.00    +0.256 C 
ATOM     14  C   UNL     1       2.474  -2.723  -0.199  0.00  0.00    +0.062 C 
BRANCH  13  15
ATOM     15  O   UNL     1       4.368  -3.040   1.269  0.00  0.00    -0.480 OA
BRANCH  15  16
ATOM     16  C   UNL     1       5.445  -2.438   0.698  0.00  0.00    +0.122 A 
ATOM     17  C   UNL     1       5.277  -1.288  -0.059  0.00  0.00    +0.047 A 
ATOM     18  C   UNL     1       6.372  -0.677  -0.639  0.00  0.00    +0.019 A 
ATOM     19  C   UNL     1       7.636  -1.212  -0.464  0.00  0.00    +0.018 A 
ATOM     20  C   UNL     1       7.806  -2.358   0.291  0.00  0.00    +0.019 A 
ATOM     21  C   UNL     1       6.714  -2.969   0.877  0.00  0.00    +0.047 A 
ATOM     22 BR   UNL     1       9.134  -0.374  -1.258  0.00  0.00    -0.050 Br
ENDBRANCH  15  16
ENDBRANCH  13  15
ENDBRANCH  11  13
BRANCH  10  23
ATOM     23  C   UNL     1       0.743  -0.925   1.742  0.00  0.00    +0.114 C 
BRANCH  23  24
ATOM     24  C   UNL     1       1.318   0.346   2.371  0.00  0.00    +0.019 C 
BRANCH  24  26
ATOM     25  C   UNL     1       1.517   2.826   2.139  0.00  0.00    +0.004 C 
ATOM     26  C   UNL     1       0.942   1.554   1.511  0.00  0.00    -0.002 C 
ENDBRANCH  24  26
ENDBRANCH  23  24
ENDBRANCH  10  23
ENDBRANCH   1  10
BRANCH   2  27
ATOM     27  N   UNL     1      -1.512  -3.002   2.227  0.00  0.00    -0.343 N 
ATOM     28  H   UNL     1      -0.983  -2.742   1.456  0.00  0.00    +0.144 HD
ATOM     29  H   UNL     1      -2.413  -3.341   2.104  0.00  0.00    +0.144 HD
ENDBRANCH   2  27
BRANCH   3  30
ATOM     30  C   UNL     1      -3.113  -3.709   4.413  0.00  0.00    +0.163 C 
BRANCH  30  31
ATOM     31  C   UNL     1      -3.103  -5.209   4.271  0.00  0.00    -0.028 A 
ATOM     32  C   UNL     1      -2.979  -5.785   3.021  0.00  0.00    +0.005 A 
ATOM     33  C   UNL     1      -2.970  -7.161   2.891  0.00  0.00    +0.000 A 
ATOM     34  C   UNL     1      -3.086  -7.962   4.011  0.00  0.00    +0.000 A 
ATOM     35  C   UNL     1      -3.209  -7.386   5.262  0.00  0.00    +0.000 A 
ATOM     36  C   UNL     1      -3.214  -6.010   5.393  0.00  0.00    +0.005 A 
ENDBRANCH  30  31
ENDBRANCH   3  30
TORSDOF 10
