REMARK  Name = ZINC43565003
REMARK  5 active torsions:
REMARK  status: ('A' for Active; 'I' for Inactive)
REMARK    1  A    between atoms: C_1  and  O_2
REMARK    2  A    between atoms: O_2  and  C_3
REMARK    3  A    between atoms: C_8  and  C_9
REMARK    4  A    between atoms: C_9  and  C_11
REMARK    5  A    between atoms: C_9  and  N_21
REMARK                            x       y       z     vdW  Elec       q    Type
REMARK                         _______ _______ _______ _____ _____    ______ ____
ROOT
ATOM      1  C   UNL     1       0.019  -2.828  -0.013  0.00  0.00    -0.010 C 
ENDROOT
BRANCH   1   2
ATOM      2  C   UNL     1       0.562  -2.881  -1.418  0.00  0.00    -0.054 A 
ATOM      3  C   UNL     1       0.024  -3.767  -2.333  0.00  0.00    +0.006 A 
ATOM      4  C   UNL     1       0.520  -3.818  -3.622  0.00  0.00    +0.049 A 
ATOM      5  C   UNL     1       1.559  -2.981  -4.001  0.00  0.00    +0.162 A 
ATOM      6  C   UNL     1       2.098  -2.089  -3.082  0.00  0.00    +0.162 A 
ATOM      7  C   UNL     1       1.593  -2.039  -1.791  0.00  0.00    +0.051 A 
ATOM      8  O   UNL     1       3.112  -1.253  -3.435  0.00  0.00    -0.485 OA
ATOM      9  C   UNL     1       3.837  -1.586  -4.624  0.00  0.00    +0.270 C 
ATOM     10  C   UNL     1       2.823  -1.935  -5.722  0.00  0.00    +0.270 C 
ATOM     11  O   UNL     1       2.040  -3.046  -5.272  0.00  0.00    -0.485 OA
ENDBRANCH   1   2
BRANCH   1  17
ATOM     12  C   UNL     1      -1.200  -0.637   0.010  0.00  0.00    +0.123 A 
ATOM     13  C   UNL     1      -2.374   0.101   0.019  0.00  0.00    +0.065 A 
ATOM     14  C   UNL     1      -3.596  -0.546   0.028  0.00  0.00    +0.044 A 
ATOM     15  C   UNL     1      -3.648  -1.929   0.027  0.00  0.00    +0.020 A 
ATOM     16  C   UNL     1      -2.478  -2.666   0.018  0.00  0.00    +0.007 A 
ATOM     17  C   UNL     1      -1.255  -2.023   0.003  0.00  0.00    -0.016 A 
ATOM     18 CL   UNL     1      -5.066   0.377   0.040  0.00  0.00    -0.083 Cl
BRANCH  12  20
ATOM     19  C   UNL     1      -0.017   1.425   0.010  0.00  0.00    +0.277 C 
ATOM     20  O   UNL     1       0.002  -0.004   0.002  0.00  0.00    -0.495 OA
ENDBRANCH  12  20
ENDBRANCH   1  17
BRANCH   1  21
ATOM     21  N   UNL     1      -0.258  -4.193   0.456  0.00  0.00    +0.385 N 
ATOM     22  H   UNL     1      -0.937  -4.626  -0.152  0.00  0.00    -0.089 HD
ATOM     23  H   UNL     1       0.595  -4.732   0.445  0.00  0.00    -0.089 HD
ATOM     24  H   UNL     1      -0.622  -4.158   1.396  0.00  0.00    -0.089 HD
ENDBRANCH   1  21
TORSDOF 4
