REMARK  Name = ZINC11372913
REMARK  7 active torsions:
REMARK  status: ('A' for Active; 'I' for Inactive)
REMARK    1  A    between atoms: C_1  and  C_2
REMARK    2  A    between atoms: C_11  and  S_19
REMARK    3  A    between atoms: N_12  and  C_13
REMARK    4  A    between atoms: C_13  and  C_14
REMARK    5  A    between atoms: S_19  and  C_20
REMARK    6  A    between atoms: C_20  and  C_21
REMARK    7  A    between atoms: N_23  and  C_24
REMARK                            x       y       z     vdW  Elec       q    Type
REMARK                         _______ _______ _______ _____ _____    ______ ____
ROOT
ATOM      1  C   UNL     1     -16.161  -1.550   4.662  0.00  0.00    +0.007 C 
ATOM      2  C   UNL     1     -14.899  -1.364   3.818  0.00  0.00    -0.011 C 
ATOM      3  C   UNL     1     -14.694   0.125   3.524  0.00  0.00    +0.022 C 
ATOM      4  C   UNL     1     -13.398   0.311   2.732  0.00  0.00    +0.108 C 
ATOM      5  N   UNL     1     -12.268  -0.212   3.511  0.00  0.00    -0.300 N 
ATOM      6  C   UNL     1     -12.419  -1.651   3.764  0.00  0.00    +0.108 C 
ATOM      7  C   UNL     1     -13.686  -1.895   4.587  0.00  0.00    +0.022 C 
ATOM      8  C   UNL     1     -11.061   0.058   2.879  0.00  0.00    +0.221 A 
ATOM      9  N   UNL     1     -10.723  -0.320   1.671  0.00  0.00    -0.112 NA
ATOM     10  N   UNL     1      -9.430   0.155   1.415  0.00  0.00    -0.121 NA
ATOM     11  C   UNL     1      -9.021   0.807   2.476  0.00  0.00    +0.194 A 
ATOM     12  N   UNL     1     -10.017   0.760   3.410  0.00  0.00    -0.283 N 
ENDROOT
BRANCH  12  13
ATOM     13  C   UNL     1      -9.973   1.359   4.746  0.00  0.00    +0.201 C 
BRANCH  13  14
ATOM     14  C   UNL     1     -10.445   2.788   4.672  0.00  0.00    +0.125 A 
ATOM     15  C   UNL     1     -11.717   3.204   4.809  0.00  0.00    +0.046 A 
ATOM     16  C   UNL     1     -11.705   4.612   4.671  0.00  0.00    +0.041 A 
ATOM     17  C   UNL     1     -10.428   4.970   4.450  0.00  0.00    +0.195 A 
ATOM     18  O   UNL     1      -9.669   3.862   4.451  0.00  0.00    -0.466 OA
ENDBRANCH  13  14
ENDBRANCH  12  13
BRANCH  11  19
ATOM     19  S   UNL     1      -7.458   1.599   2.666  0.00  0.00    -0.077 S 
BRANCH  19  20
ATOM     20  C   UNL     1      -6.614   1.289   1.090  0.00  0.00    +0.173 C 
BRANCH  20  21
ATOM     21  C   UNL     1      -5.247   1.922   1.120  0.00  0.00    +0.224 C 
ATOM     22  O   UNL     1      -4.878   2.524   2.107  0.00  0.00    -0.275 OA
ATOM     23  N   UNL     1      -4.434   1.821   0.050  0.00  0.00    -0.309 N 
ATOM     24  H   UNL     1      -4.729   1.340  -0.739  0.00  0.00    +0.149 HD
BRANCH  23  25
ATOM     25  C   UNL     1      -3.105   2.436   0.078  0.00  0.00    +0.035 C 
ATOM     26  C   UNL     1      -2.393   2.174  -1.250  0.00  0.00    +0.029 C 
ATOM     27  C   UNL     1      -1.005   2.817  -1.220  0.00  0.00    -0.008 C 
ATOM     28  C   UNL     1      -0.188   2.213  -0.077  0.00  0.00    +0.007 C 
ATOM     29  C   UNL     1      -0.899   2.475   1.252  0.00  0.00    -0.008 C 
ATOM     30  C   UNL     1      -2.288   1.832   1.222  0.00  0.00    +0.029 C 
ATOM     31  C   UNL     1      -1.040   3.983   1.467  0.00  0.00    +0.007 C 
ATOM     32  C   UNL     1      -1.857   4.587   0.323  0.00  0.00    -0.008 C 
ATOM     33  C   UNL     1      -1.146   4.325  -1.006  0.00  0.00    +0.007 C 
ATOM     34  C   UNL     1      -3.246   3.944   0.293  0.00  0.00    +0.029 C 
ENDBRANCH  23  25
ENDBRANCH  20  21
ENDBRANCH  19  20
ENDBRANCH  11  19
TORSDOF 6
