REMARK  Name = ZINC51581260
REMARK  5 active torsions:
REMARK  status: ('A' for Active; 'I' for Inactive)
REMARK    1  A    between atoms: C_1  and  C_2
REMARK    2  A    between atoms: C_5  and  C_19
REMARK    3  A    between atoms: C_6  and  O_8
REMARK    4  A    between atoms: O_8  and  C_9
REMARK    5  A    between atoms: C_14  and  N_15
REMARK                            x       y       z     vdW  Elec       q    Type
REMARK                         _______ _______ _______ _____ _____    ______ ____
ROOT
ATOM      1  C   UNL     1      -0.194   1.478   0.042  0.00  0.00    +0.044 C 
ATOM      2  C   UNL     1      -0.081  -0.025   0.015  0.00  0.00    -0.047 A 
ATOM      3  C   UNL     1      -0.129  -0.697  -1.196  0.00  0.00    +0.004 A 
ATOM      4  C   UNL     1      -0.026  -2.071  -1.232  0.00  0.00    +0.015 A 
ATOM      5  C   UNL     1       0.128  -2.790  -0.045  0.00  0.00    +0.054 A 
ATOM      6  C   UNL     1       0.177  -2.106   1.177  0.00  0.00    +0.139 A 
ATOM      7  C   UNL     1       0.077  -0.723   1.195  0.00  0.00    +0.050 A 
ENDROOT
BRANCH   5   8
ATOM      8  C   UNL     1       0.238  -4.262  -0.078  0.00  0.00    +0.098 C 
ATOM      9  N   UNL     1      -0.613  -5.010   0.623  0.00  0.00    -0.387 N 
ATOM     10  N   UNL     1       1.190  -4.843  -0.808  0.00  0.00    -0.344 N 
ATOM     11  H   UNL     1      -1.350  -4.592   1.095  0.00  0.00    +0.157 HD
ATOM     12  H   UNL     1       1.810  -4.299  -1.319  0.00  0.00    +0.144 HD
ATOM     13  H   UNL     1       1.262  -5.810  -0.830  0.00  0.00    +0.144 HD
ATOM     14  H   UNL     1      -0.496  -5.972   0.661  0.00  0.00    +0.157 HD
ENDBRANCH   5   8
BRANCH   6  15
ATOM     15  O   UNL     1       0.326  -2.794   2.336  0.00  0.00    -0.453 OA
BRANCH  15  16
ATOM     16  C   UNL     1       1.587  -3.106   2.735  0.00  0.00    +0.159 A 
ATOM     17  C   UNL     1       2.679  -2.629   2.023  0.00  0.00    +0.050 A 
ATOM     18  C   UNL     1       3.960  -2.947   2.430  0.00  0.00    +0.024 A 
ATOM     19  C   UNL     1       4.155  -3.741   3.547  0.00  0.00    +0.043 A 
ATOM     20  C   UNL     1       3.068  -4.217   4.258  0.00  0.00    +0.056 A 
ATOM     21  C   UNL     1       1.785  -3.896   3.858  0.00  0.00    +0.170 A 
ATOM     22 CL   UNL     1       5.766  -4.140   4.056  0.00  0.00    -0.083 Cl
BRANCH  21  23
ATOM     23  N   UNL     1       0.623  -4.401   4.623  0.00  0.00    +0.060 N 
ATOM     24  O   UNL     1       0.791  -5.167   5.543  0.00  0.00    -0.126 OA
ATOM     25  O   UNL     1      -0.495  -4.047   4.327  0.00  0.00    -0.126 OA
ENDBRANCH  21  23
ENDBRANCH  15  16
ENDBRANCH   6  15
TORSDOF 4
