REMARK  Name = ZINC01513010
REMARK  8 active torsions:
REMARK  status: ('A' for Active; 'I' for Inactive)
REMARK    1  A    between atoms: C_1  and  C_2
REMARK    2  A    between atoms: C_2  and  O_3
REMARK    3  A    between atoms: O_3  and  C_4
REMARK    4  A    between atoms: C_4  and  C_6
REMARK    5  A    between atoms: C_10  and  N_11
REMARK    6  A    between atoms: C_13  and  C_24
REMARK    7  A    between atoms: C_19  and  O_22
REMARK    8  A    between atoms: O_22  and  C_23
REMARK                            x       y       z     vdW  Elec       q    Type
REMARK                         _______ _______ _______ _____ _____    ______ ____
ROOT
ATOM      1  N   UNL     1       0.816   6.912   1.322  0.00  0.00    -0.204 NA
ATOM      2  C   UNL     1       0.972   5.840   0.567  0.00  0.00    +0.234 A 
ATOM      3  C   UNL     1       2.313   5.293   0.295  0.00  0.00    +0.099 A 
ATOM      4  C   UNL     1       2.397   3.934   0.012  0.00  0.00    +0.030 A 
ATOM      5  C   UNL     1       1.149   3.170   0.009  0.00  0.00    +0.022 A 
ATOM      6  C   UNL     1       1.165   1.769   0.000  0.00  0.00    +0.012 A 
ATOM      7  C   UNL     1      -0.013   1.076   0.008  0.00  0.00    +0.004 A 
ATOM      8  C   UNL     1      -1.227   1.747   0.017  0.00  0.00    +0.049 A 
ATOM      9  C   UNL     1      -1.268   3.130   0.028  0.00  0.00    +0.163 A 
ATOM     10  C   UNL     1      -0.079   3.855   0.019  0.00  0.00    +0.179 A 
ATOM     11  O   UNL     1      -0.096   5.211   0.018  0.00  0.00    -0.433 OA
ENDROOT
BRANCH   1  16
ATOM     12  C   UNL     1      -0.798   8.508   2.322  0.00  0.00    +0.095 A 
ATOM     13  C   UNL     1      -2.217   8.811   2.410  0.00  0.00    -0.021 A 
ATOM     14  C   UNL     1      -3.049   7.983   1.740  0.00  0.00    -0.004 A 
ATOM     15  S   UNL     1      -1.990   6.789   0.970  0.00  0.00    -0.073 S 
ATOM     16  C   UNL     1      -0.419   7.396   1.557  0.00  0.00    +0.119 A 
ATOM     17  C   UNL     1      -4.543   8.067   1.665  0.00  0.00    +0.043 C 
ATOM     18  C   UNL     1      -5.032   9.017   2.767  0.00  0.00    +0.005 C 
ATOM     19  C   UNL     1      -4.186  10.293   2.726  0.00  0.00    +0.005 C 
ATOM     20  C   UNL     1      -2.766   9.991   3.207  0.00  0.00    +0.037 C 
BRANCH  12  21
ATOM     21  C   UNL     1       0.167   9.309   2.983  0.00  0.00    +0.342 C 
ATOM     22  O   UNL     1       0.659  10.265   2.413  0.00  0.00    -0.245 OA
BRANCH  21  23
ATOM     23  O   UNL     1       0.541   9.011   4.245  0.00  0.00    -0.461 OA
BRANCH  23  25
ATOM     24  C   UNL     1       1.812   9.369   6.269  0.00  0.00    +0.048 C 
ATOM     25  C   UNL     1       1.518   9.860   4.851  0.00  0.00    +0.229 C 
ENDBRANCH  23  25
ENDBRANCH  21  23
ENDBRANCH  12  21
ENDBRANCH   1  16
BRANCH   3  26
ATOM     26  C   UNL     1       3.513   6.148   0.322  0.00  0.00    +0.247 C 
ATOM     27  O   UNL     1       3.409   7.333   0.574  0.00  0.00    -0.270 OA
ATOM     28  N   UNL     1       4.725   5.616   0.069  0.00  0.00    -0.325 N 
ATOM     29  H   UNL     1       4.808   4.671  -0.131  0.00  0.00    +0.145 HD
ATOM     30  H   UNL     1       5.515   6.179   0.087  0.00  0.00    +0.145 HD
ENDBRANCH   3  26
BRANCH   9  31
ATOM     31  O   UNL     1      -2.463   3.778   0.042  0.00  0.00    -0.491 OA
ATOM     32  C   UNL     1      -3.640   2.968   0.050  0.00  0.00    +0.277 C 
ENDBRANCH   9  31
TORSDOF 6
