REMARK  Name = ZINC37580952
REMARK  9 active torsions:
REMARK  status: ('A' for Active; 'I' for Inactive)
REMARK    1  A    between atoms: C_1  and  O_2
REMARK    2  A    between atoms: O_2  and  C_3
REMARK    3  A    between atoms: C_3  and  C_5
REMARK    4  A    between atoms: C_5  and  N_6
REMARK    5  A    between atoms: N_6  and  S_7
REMARK    6  A    between atoms: S_7  and  C_10
REMARK    7  A    between atoms: C_13  and  C_17
REMARK    8  A    between atoms: C_18  and  C_19
REMARK    9  A    between atoms: C_19  and  N_20
REMARK                            x       y       z     vdW  Elec       q    Type
REMARK                         _______ _______ _______ _____ _____    ______ ____
ROOT
ATOM      1  C   UNL     1       0.477  -5.102  -2.561  0.00  0.00    +0.142 A 
ATOM      2  C   UNL     1      -0.030  -5.623  -1.383  0.00  0.00    +0.070 A 
ATOM      3  C   UNL     1      -1.141  -6.442  -1.409  0.00  0.00    +0.039 A 
ATOM      4  C   UNL     1      -1.754  -6.744  -2.626  0.00  0.00    +0.028 A 
ATOM      5  C   UNL     1      -1.239  -6.216  -3.810  0.00  0.00    +0.039 A 
ATOM      6  C   UNL     1      -0.130  -5.394  -3.771  0.00  0.00    +0.070 A 
ATOM      7 CL   UNL     1       0.509  -4.731  -5.243  0.00  0.00    -0.081 Cl
ATOM      8 CL   UNL     1       0.734  -5.246   0.130  0.00  0.00    -0.081 Cl
ENDROOT
BRANCH   1   9
ATOM      9  S   UNL     1       1.896  -4.058  -2.521  0.00  0.00    +0.062 S 
ATOM     10  O   UNL     1       2.495  -4.136  -3.807  0.00  0.00    -0.153 OA
ATOM     11  O   UNL     1       2.602  -4.379  -1.330  0.00  0.00    -0.153 OA
BRANCH   9  12
ATOM     12  N   UNL     1       1.354  -2.503  -2.345  0.00  0.00    -0.179 NA
ATOM     13  H   UNL     1       1.498  -1.856  -3.054  0.00  0.00    +0.149 HD
BRANCH  12  14
ATOM     14  C   UNL     1       0.657  -2.104  -1.120  0.00  0.00    +0.226 C 
BRANCH  14  15
ATOM     15  C   UNL     1       0.598  -0.600  -1.043  0.00  0.00    +0.323 C 
ATOM     16  O   UNL     1       1.088   0.070  -1.921  0.00  0.00    -0.249 OA
BRANCH  15  18
ATOM     17  C   UNL     1      -0.017   1.425   0.010  0.00  0.00    +0.280 C 
ATOM     18  O   UNL     1       0.002  -0.004   0.002  0.00  0.00    -0.467 OA
ENDBRANCH  15  18
ENDBRANCH  14  15
ENDBRANCH  12  14
ENDBRANCH   9  12
ENDBRANCH   1   9
BRANCH   4  19
ATOM     19  C   UNL     1      -2.907  -7.593  -2.659  0.00  0.00    -0.068 C 
ATOM     20  C   UNL     1      -3.852  -8.289  -2.686  0.00  0.00    -0.117 C 
BRANCH  20  21
ATOM     21  C   UNL     1      -5.037  -9.162  -2.720  0.00  0.00    +0.005 C 
BRANCH  21  22
ATOM     22  N   UNL     1      -5.487  -9.322  -4.109  0.00  0.00    +0.385 N 
ATOM     23  H   UNL     1      -5.723  -8.419  -4.492  0.00  0.00    -0.089 HD
ATOM     24  H   UNL     1      -4.747  -9.737  -4.657  0.00  0.00    -0.089 HD
ATOM     25  H   UNL     1      -6.299  -9.921  -4.133  0.00  0.00    -0.089 HD
ENDBRANCH  21  22
ENDBRANCH  20  21
ENDBRANCH   4  19
TORSDOF 8
