REMARK  Name = ZINC06099614
REMARK  5 active torsions:
REMARK  status: ('A' for Active; 'I' for Inactive)
REMARK    1  A    between atoms: C_10  and  S_11
REMARK    2  A    between atoms: S_11  and  C_12
REMARK    3  A    between atoms: C_12  and  C_13
REMARK    4  A    between atoms: N_15  and  C_16
REMARK    5  A    between atoms: C_16  and  C_21
REMARK                            x       y       z     vdW  Elec       q    Type
REMARK                         _______ _______ _______ _____ _____    ______ ____
ROOT
ATOM      1  S   UNL     1       1.675   3.454   0.004  0.00  0.00    -0.076 S 
ENDROOT
BRANCH   1  11
ATOM      2  C   UNL     1       3.194  -1.825  -0.039  0.00  0.00    +0.045 A 
ATOM      3  C   UNL     1       3.991  -0.664  -0.040  0.00  0.00    +0.059 A 
ATOM      4  C   UNL     1       3.420   0.558  -0.028  0.00  0.00    +0.115 A 
ATOM      5  N   UNL     1       2.058   0.686  -0.014  0.00  0.00    -0.275 N 
ATOM      6  C   UNL     1       1.251  -0.432  -0.012  0.00  0.00    +0.180 A 
ATOM      7  C   UNL     1       1.838  -1.714  -0.025  0.00  0.00    +0.087 A 
ATOM      8 CL   UNL     1       0.842  -3.136  -0.024  0.00  0.00    -0.080 Cl
ATOM      9  N   UNL     1       0.002  -0.004   0.002  0.00  0.00    -0.127 NA
ATOM     10  N   UNL     1      -0.015   1.282   0.009  0.00  0.00    -0.122 NA
ATOM     11  C   UNL     1       1.211   1.755  -0.000  0.00  0.00    +0.196 A 
ATOM     12 CL   UNL     1       5.721  -0.807  -0.058  0.00  0.00    -0.082 Cl
ENDBRANCH   1  11
BRANCH   1  13
ATOM     13  C   UNL     1       0.093   4.341   0.024  0.00  0.00    +0.173 C 
BRANCH  13  14
ATOM     14  C   UNL     1       0.350   5.827   0.029  0.00  0.00    +0.224 C 
ATOM     15  O   UNL     1       1.488   6.245   0.020  0.00  0.00    -0.275 OA
ATOM     16  N   UNL     1      -0.686   6.689   0.044  0.00  0.00    -0.297 N 
ATOM     17  H   UNL     1      -1.596   6.354   0.051  0.00  0.00    +0.150 HD
BRANCH  16  18
ATOM     18  C   UNL     1      -0.436   8.133   0.049  0.00  0.00    +0.121 C 
ATOM     19  C   UNL     1       0.335   8.531   1.324  0.00  0.00    +0.041 C 
ATOM     20  C   UNL     1      -0.263   9.907   1.714  0.00  0.00    +0.003 C 
ATOM     21  C   UNL     1      -1.765   9.735   1.379  0.00  0.00    +0.003 C 
ATOM     22  C   UNL     1      -1.771   8.898   0.083  0.00  0.00    +0.041 C 
BRANCH  18  23
ATOM     23  C   UNL     1       0.334   8.515  -1.146  0.00  0.00    +0.088 C 
ATOM     24  N   UNL     1       0.928   8.810  -2.068  0.00  0.00    -0.194 NA
ENDBRANCH  18  23
ENDBRANCH  16  18
ENDBRANCH  13  14
ENDBRANCH   1  13
TORSDOF 5
