REMARK  Name = ZINC36555499
REMARK  14 active torsions:
REMARK  status: ('A' for Active; 'I' for Inactive)
REMARK    1  A    between atoms: C_1  and  C_2
REMARK    2  A    between atoms: C_5  and  C_7
REMARK    3  A    between atoms: C_7  and  N_8
REMARK    4  A    between atoms: N_8  and  C_9
REMARK    5  A    between atoms: C_9  and  C_11
REMARK    6  A    between atoms: C_9  and  C_16
REMARK    7  A    between atoms: N_18  and  C_19
REMARK    8  A    between atoms: C_19  and  C_20
REMARK    9  A    between atoms: C_19  and  C_21
REMARK   10  A    between atoms: C_19  and  C_22
REMARK   11  A    between atoms: C_23  and  C_25
REMARK   12  A    between atoms: C_31  and  O_33
REMARK   13  A    between atoms: O_33  and  C_34
REMARK   14  A    between atoms: C_34  and  C_35
REMARK                            x       y       z     vdW  Elec       q    Type
REMARK                         _______ _______ _______ _____ _____    ______ ____
ROOT
ATOM      1  N   UNL     1       1.773  -3.052  -1.637  0.00  0.00    -0.275 N 
ATOM      2  C   UNL     1       1.136  -3.920  -2.447  0.00  0.00    +0.238 C 
ATOM      3  O   UNL     1       1.652  -4.268  -3.488  0.00  0.00    -0.274 OA
ENDROOT
BRANCH   2   4
ATOM      4  C   UNL     1      -0.218  -4.457  -2.060  0.00  0.00    +0.165 C 
ATOM      5  C   UNL     1      -1.252  -3.312  -2.046  0.00  0.00    +0.033 C 
ATOM      6  C   UNL     1      -2.524  -3.986  -2.627  0.00  0.00    +0.021 C 
ATOM      7  C   UNL     1      -1.913  -4.950  -3.675  0.00  0.00    +0.112 C 
ATOM      8  N   UNL     1      -0.667  -5.444  -3.054  0.00  0.00    -0.256 N 
ATOM      9  C   UNL     1      -0.043  -6.601  -3.348  0.00  0.00    +0.404 C 
ATOM     10  O   UNL     1       0.983  -6.903  -2.771  0.00  0.00    -0.226 OA
BRANCH   9  11
ATOM     11  O   UNL     1      -0.557  -7.424  -4.282  0.00  0.00    -0.445 OA
BRANCH  11  12
ATOM     12  C   UNL     1       0.156  -8.634  -4.544  0.00  0.00    +0.269 C 
BRANCH  12  13
ATOM     13  C   UNL     1      -0.563  -9.421  -5.609  0.00  0.00    -0.010 A 
ATOM     14  C   UNL     1      -1.536 -10.337  -5.254  0.00  0.00    +0.007 A 
ATOM     15  C   UNL     1      -2.195 -11.058  -6.232  0.00  0.00    +0.000 A 
ATOM     16  C   UNL     1      -1.882 -10.864  -7.564  0.00  0.00    +0.000 A 
ATOM     17  C   UNL     1      -0.910  -9.947  -7.919  0.00  0.00    +0.000 A 
ATOM     18  C   UNL     1      -0.253  -9.223  -6.942  0.00  0.00    +0.007 A 
ENDBRANCH  12  13
ENDBRANCH  11  12
ENDBRANCH   9  11
ENDBRANCH   2   4
BRANCH   1  19
ATOM     19  C   UNL     1       1.142  -2.617  -0.388  0.00  0.00    +0.183 C 
BRANCH  19  24
ATOM     20  C   UNL     1      -0.161  -6.844   2.035  0.00  0.00    +0.086 C 
ATOM     21  C   UNL     1       0.585  -5.591   1.656  0.00  0.00    +0.102 A 
ATOM     22  C   UNL     1       1.679  -5.109   2.273  0.00  0.00    +0.045 A 
ATOM     23  C   UNL     1       2.045  -3.924   1.593  0.00  0.00    +0.046 A 
ATOM     24  C   UNL     1       1.152  -3.753   0.602  0.00  0.00    +0.122 A 
ATOM     25  O   UNL     1       0.274  -4.768   0.641  0.00  0.00    -0.463 OA
ENDBRANCH  19  24
ENDBRANCH   1  19
BRANCH   1  26
ATOM     26  C   UNL     1       3.097  -2.543  -2.004  0.00  0.00    +0.229 C 
BRANCH  26  27
ATOM     27  C   UNL     1       4.045  -2.726  -0.847  0.00  0.00    +0.134 A 
ATOM     28  C   UNL     1       5.332  -3.107  -0.936  0.00  0.00    +0.047 A 
ATOM     29  C   UNL     1       5.839  -3.149   0.383  0.00  0.00    +0.041 A 
ATOM     30  C   UNL     1       4.832  -2.792   1.199  0.00  0.00    +0.195 A 
ATOM     31  O   UNL     1       3.749  -2.531   0.449  0.00  0.00    -0.465 OA
ENDBRANCH  26  27
BRANCH  26  32
ATOM     32  C   UNL     1       2.996  -1.078  -2.344  0.00  0.00    +0.242 C 
ATOM     33  O   UNL     1       1.994  -0.458  -2.059  0.00  0.00    -0.273 OA
ATOM     34  N   UNL     1       4.019  -0.459  -2.965  0.00  0.00    -0.309 N 
ATOM     35  H   UNL     1       4.821  -0.955  -3.193  0.00  0.00    +0.149 HD
BRANCH  34  36
ATOM     36  C   UNL     1       3.921   0.965  -3.295  0.00  0.00    +0.026 C 
ATOM     37  C   UNL     1       3.723   1.774  -2.011  0.00  0.00    +0.031 C 
ATOM     38  C   UNL     1       5.208   1.418  -3.989  0.00  0.00    +0.031 C 
ATOM     39  C   UNL     1       2.731   1.191  -4.229  0.00  0.00    +0.031 C 
ENDBRANCH  34  36
ENDBRANCH  26  32
ENDBRANCH   1  26
TORSDOF 10
