REMARK  Name = ZINC40399461
REMARK  5 active torsions:
REMARK  status: ('A' for Active; 'I' for Inactive)
REMARK    1  A    between atoms: C_1  and  C_2
REMARK    2  A    between atoms: C_2  and  C_4
REMARK    3  A    between atoms: C_7  and  N_10
REMARK    4  A    between atoms: C_11  and  C_13
REMARK    5  A    between atoms: N_27  and  C_28
REMARK                            x       y       z     vdW  Elec       q    Type
REMARK                         _______ _______ _______ _____ _____    ______ ____
ROOT
ATOM      1  C   UNL     1      -5.425  -4.888  -0.159  0.00  0.00    +0.122 C 
ATOM      2  C   UNL     1      -6.131  -4.518   1.146  0.00  0.00    +0.114 C 
ATOM      3  C   UNL     1      -5.526  -5.293   2.287  0.00  0.00    +0.219 C 
ATOM      4  O   UNL     1      -5.396  -4.764   3.370  0.00  0.00    -0.275 OA
ATOM      5  N   UNL     1      -5.129  -6.566   2.117  0.00  0.00    -0.270 N 
ATOM      6  C   UNL     1      -5.167  -7.162   0.868  0.00  0.00    +0.138 A 
ATOM      7  C   UNL     1      -5.320  -6.386  -0.267  0.00  0.00    +0.069 A 
ATOM      8  C   UNL     1      -5.377  -7.012  -1.516  0.00  0.00    +0.258 A 
ATOM      9  O   UNL     1      -5.524  -6.356  -2.535  0.00  0.00    -0.267 OA
ATOM     10  N   UNL     1      -5.266  -8.356  -1.572  0.00  0.00    -0.295 N 
ATOM     11  H   UNL     1      -5.318  -8.812  -2.427  0.00  0.00    +0.172 HD
ATOM     12  C   UNL     1      -5.081  -9.073  -0.429  0.00  0.00    +0.202 A 
ATOM     13  N   UNL     1      -5.030  -8.487   0.748  0.00  0.00    -0.200 NA
ATOM     14  N   UNL     1      -4.945 -10.435  -0.507  0.00  0.00    -0.285 N 
ATOM     15  H   UNL     1      -4.810  -7.074   2.880  0.00  0.00    +0.156 HD
ATOM     16  H   UNL     1      -4.903 -10.869  -1.373  0.00  0.00    +0.155 HD
ENDROOT
BRANCH  14  17
ATOM     17  C   UNL     1      -4.865 -11.197   0.663  0.00  0.00    +0.036 A 
ATOM     18  C   UNL     1      -5.568 -10.809   1.796  0.00  0.00    +0.043 A 
ATOM     19  C   UNL     1      -5.488 -11.564   2.950  0.00  0.00    +0.044 A 
ATOM     20  C   UNL     1      -4.708 -12.707   2.978  0.00  0.00    +0.040 A 
ATOM     21  C   UNL     1      -4.006 -13.096   1.851  0.00  0.00    +0.044 A 
ATOM     22  C   UNL     1      -4.087 -12.347   0.692  0.00  0.00    +0.043 A 
ATOM     23 CL   UNL     1      -3.028 -14.530   1.890  0.00  0.00    -0.083 Cl
ATOM     24 CL   UNL     1      -6.366 -11.079   4.367  0.00  0.00    -0.083 Cl
ENDBRANCH  14  17
BRANCH   1  26
ATOM     25  N   UNL     1      -3.889  -2.950  -0.085  0.00  0.00    -0.285 N 
ATOM     26  C   UNL     1      -4.043  -4.287  -0.171  0.00  0.00    +0.225 C 
ATOM     27  O   UNL     1      -3.070  -5.005  -0.258  0.00  0.00    -0.275 OA
ATOM     28  H   UNL     1      -4.663  -2.381   0.053  0.00  0.00    +0.155 HD
BRANCH  25  32
ATOM     29  C   UNL     1      -0.099  -1.267  -0.412  0.00  0.00    +0.017 A 
ATOM     30  C   UNL     1      -1.211  -0.602  -0.943  0.00  0.00    +0.013 A 
ATOM     31  C   UNL     1      -2.458  -1.160  -0.832  0.00  0.00    +0.024 A 
ATOM     32  C   UNL     1      -2.620  -2.387  -0.194  0.00  0.00    +0.033 A 
ATOM     33  C   UNL     1      -1.518  -3.052   0.335  0.00  0.00    +0.024 A 
ATOM     34  C   UNL     1      -0.266  -2.504   0.224  0.00  0.00    +0.013 A 
BRANCH  29  36
ATOM     35  C   UNL     1       1.416   0.657  -1.213  0.00  0.00    +0.091 C 
ATOM     36  C   UNL     1       1.239  -0.673  -0.528  0.00  0.00    +0.160 C 
ATOM     37  O   UNL     1       2.202  -1.254  -0.072  0.00  0.00    -0.292 OA
ENDBRANCH  29  36
ENDBRANCH  25  32
ENDBRANCH   1  26
TORSDOF 4
