REMARK  Name = ZINC39468675
REMARK  7 active torsions:
REMARK  status: ('A' for Active; 'I' for Inactive)
REMARK    1  A    between atoms: C_1  and  S_2
REMARK    2  A    between atoms: S_2  and  P_3
REMARK    3  A    between atoms: C_11  and  C_31
REMARK    4  A    between atoms: C_12  and  S_21
REMARK    5  A    between atoms: S_21  and  O_24
REMARK    6  A    between atoms: O_24  and  C_25
REMARK    7  A    between atoms: C_36  and  O_37
REMARK                            x       y       z     vdW  Elec       q    Type
REMARK                         _______ _______ _______ _____ _____    ______ ____
ROOT
ATOM      1  P   UNL     1       1.054  -0.512   1.771  0.00  0.00    +0.314 P 
ATOM      2  O   UNL     1       2.436   0.014   1.714  0.00  0.00    -0.262 OA
ATOM      3  N   UNL     1       1.070  -2.150   1.977  0.00  0.00    -0.283 NA
ATOM      4  N   UNL     1      -0.071  -2.747   2.469  0.00  0.00    +0.398 N 
ATOM      5  C   UNL     1       0.262  -4.168   2.657  0.00  0.00    -0.046 C 
ATOM      6  C   UNL     1      -0.937  -4.944   3.185  0.00  0.00    +0.005 C 
ATOM      7  C   UNL     1      -2.086  -4.864   2.215  0.00  0.00    -0.014 C 
ATOM      8  C   UNL     1      -3.337  -5.073   2.659  0.00  0.00    +0.010 C 
ATOM      9  C   UNL     1      -3.553  -5.389   4.088  0.00  0.00    +0.132 C 
ATOM     10  C   UNL     1      -2.632  -5.054   4.983  0.00  0.00    +0.008 C 
ATOM     11  C   UNL     1      -1.377  -4.351   4.527  0.00  0.00    +0.018 C 
ATOM     12  C   UNL     1      -1.678  -2.865   4.327  0.00  0.00    -0.003 C 
ATOM     13  C   UNL     1      -0.458  -2.142   3.745  0.00  0.00    -0.020 C 
ATOM     14  C   UNL     1      -0.848  -0.668   3.573  0.00  0.00    +0.157 C 
ATOM     15  O   UNL     1       0.280   0.074   3.076  0.00  0.00    -0.312 OA
ATOM     16  H   UNL     1       1.856  -2.675   1.759  0.00  0.00    +0.112 HD
ATOM     17  H   UNL     1      -0.822  -2.646   1.803  0.00  0.00    -0.055 HD
ENDROOT
BRANCH   8  18
ATOM     18  C   UNL     1      -4.488  -4.986   1.728  0.00  0.00    +0.025 A 
ATOM     19  C   UNL     1      -5.124  -6.146   1.291  0.00  0.00    +0.012 A 
ATOM     20  C   UNL     1      -6.194  -6.060   0.424  0.00  0.00    +0.001 A 
ATOM     21  C   UNL     1      -6.639  -4.825  -0.014  0.00  0.00    +0.004 A 
ATOM     22  C   UNL     1      -6.015  -3.668   0.413  0.00  0.00    +0.046 A 
ATOM     23  C   UNL     1      -4.943  -3.739   1.288  0.00  0.00    +0.125 A 
BRANCH  23  24
ATOM     24  O   UNL     1      -4.333  -2.602   1.713  0.00  0.00    -0.506 OA
ATOM     25  H   UNL     1      -3.603  -2.313   1.148  0.00  0.00    +0.292 HD
ENDBRANCH  23  24
ENDBRANCH   8  18
BRANCH   9  26
ATOM     26  S   UNL     1      -5.027  -6.208   4.599  0.00  0.00    +0.151 S 
ATOM     27  O   UNL     1      -5.034  -6.181   6.020  0.00  0.00    -0.131 OA
ATOM     28  O   UNL     1      -6.084  -5.664   3.821  0.00  0.00    -0.131 OA
BRANCH  26  29
ATOM     29  O   UNL     1      -4.895  -7.668   4.192  0.00  0.00    -0.342 OA
BRANCH  29  30
ATOM     30  C   UNL     1      -4.051  -8.387   4.979  0.00  0.00    +0.157 A 
ATOM     31  C   UNL     1      -2.703  -8.466   4.662  0.00  0.00    +0.048 A 
ATOM     32  C   UNL     1      -1.847  -9.197   5.463  0.00  0.00    +0.004 A 
ATOM     33  C   UNL     1      -2.334  -9.850   6.580  0.00  0.00    +0.000 A 
ATOM     34  C   UNL     1      -3.677  -9.773   6.898  0.00  0.00    +0.004 A 
ATOM     35  C   UNL     1      -4.536  -9.039   6.104  0.00  0.00    +0.048 A 
ENDBRANCH  29  30
ENDBRANCH  26  29
ENDBRANCH   9  26
BRANCH   1  37
ATOM     36  C   UNL     1      -0.022   1.810   0.012  0.00  0.00    +0.096 C 
ATOM     37  S   UNL     1       0.002  -0.004   0.002  0.00  0.00    -0.059 S 
ENDBRANCH   1  37
TORSDOF 6
