REMARK  Name = ZINC09296297
REMARK  9 active torsions:
REMARK  status: ('A' for Active; 'I' for Inactive)
REMARK    1  A    between atoms: C_1  and  O_2
REMARK    2  A    between atoms: O_2  and  C_3
REMARK    3  A    between atoms: C_5  and  C_20
REMARK    4  A    between atoms: C_8  and  O_9
REMARK    5  A    between atoms: O_9  and  C_10
REMARK    6  A    between atoms: C_10  and  C_11
REMARK    7  A    between atoms: C_16  and  C_17
REMARK    8  A    between atoms: N_21  and  N_22
REMARK    9  A    between atoms: C_23  and  C_29
REMARK                            x       y       z     vdW  Elec       q    Type
REMARK                         _______ _______ _______ _____ _____    ______ ____
ROOT
ATOM      1  C   UNL     1      -1.976   1.163   1.348  0.00  0.00    +0.164 A 
ATOM      2  C   UNL     1      -2.587   0.367   0.397  0.00  0.00    +0.059 A 
ATOM      3  C   UNL     1      -3.915  -0.030   0.572  0.00  0.00    -0.000 A 
ATOM      4  C   UNL     1      -4.623   0.388   1.702  0.00  0.00    +0.033 A 
ATOM      5  C   UNL     1      -4.009   1.187   2.644  0.00  0.00    +0.087 A 
ATOM      6  C   UNL     1      -2.687   1.576   2.472  0.00  0.00    +0.181 A 
ATOM      7 CL   UNL     1      -4.890   1.706   4.047  0.00  0.00    -0.080 Cl
ENDROOT
BRANCH   1   9
ATOM      8  C   UNL     1      -0.013   1.086   0.008  0.00  0.00    +0.277 C 
ATOM      9  O   UNL     1      -0.682   1.547   1.184  0.00  0.00    -0.491 OA
ENDBRANCH   1   9
BRANCH   3  10
ATOM     10  C   UNL     1      -4.569  -0.884  -0.436  0.00  0.00    +0.141 C 
ATOM     11  N   UNL     1      -5.805  -1.248  -0.275  0.00  0.00    -0.171 NA
BRANCH  11  12
ATOM     12  N   UNL     1      -6.427  -2.059  -1.233  0.00  0.00    -0.188 N 
ATOM     13  C   UNL     1      -6.446  -3.441  -1.235  0.00  0.00    +0.184 A 
ATOM     14  N   UNL     1      -7.117  -3.845  -2.278  0.00  0.00    -0.152 NA
ATOM     15  N   UNL     1      -7.551  -2.712  -2.980  0.00  0.00    -0.253 N 
ATOM     16  H   UNL     1      -8.137  -2.828  -3.903  0.00  0.00    +0.191 HD
ATOM     17  C   UNL     1      -7.115  -1.626  -2.308  0.00  0.00    +0.197 A 
ATOM     18  S   UNL     1      -7.384   0.007  -2.745  0.00  0.00    -0.010 S 
BRANCH  13  19
ATOM     19  C   UNL     1      -5.810  -4.316  -0.224  0.00  0.00    +0.021 A 
ATOM     20  C   UNL     1      -4.863  -3.794   0.657  0.00  0.00    +0.011 A 
ATOM     21  C   UNL     1      -4.278  -4.613   1.601  0.00  0.00    +0.001 A 
ATOM     22  C   UNL     1      -4.621  -5.952   1.667  0.00  0.00    +0.000 A 
ATOM     23  C   UNL     1      -5.556  -6.476   0.792  0.00  0.00    +0.001 A 
ATOM     24  C   UNL     1      -6.152  -5.666  -0.152  0.00  0.00    +0.011 A 
ENDBRANCH  13  19
ENDBRANCH  11  12
ENDBRANCH   3  10
BRANCH   6  25
ATOM     25  O   UNL     1      -2.086   2.363   3.404  0.00  0.00    -0.482 OA
BRANCH  25  26
ATOM     26  C   UNL     1      -2.186   3.777   3.221  0.00  0.00    +0.266 C 
BRANCH  26  27
ATOM     27  C   UNL     1      -1.465   4.480   4.342  0.00  0.00    +0.007 A 
ATOM     28  C   UNL     1      -0.848   3.747   5.335  0.00  0.00    +0.008 A 
ATOM     29  C   UNL     1      -0.182   4.391   6.363  0.00  0.00    +0.000 A 
ATOM     30  C   UNL     1      -0.138   5.774   6.407  0.00  0.00    +0.001 A 
ATOM     31  C   UNL     1      -0.754   6.519   5.424  0.00  0.00    +0.019 A 
ATOM     32  C   UNL     1      -1.424   5.875   4.381  0.00  0.00    +0.058 A 
BRANCH  32  33
ATOM     33  C   UNL     1      -2.066   6.643   3.357  0.00  0.00    +0.100 C 
ATOM     34  N   UNL     1      -2.576   7.251   2.544  0.00  0.00    -0.191 NA
ENDBRANCH  32  33
ENDBRANCH  26  27
ENDBRANCH  25  26
ENDBRANCH   6  25
TORSDOF 8
