REMARK  Name = ZINC08589194
REMARK  11 active torsions:
REMARK  status: ('A' for Active; 'I' for Inactive)
REMARK    1  A    between atoms: C_1  and  C_2
REMARK    2  A    between atoms: C_5  and  C_35
REMARK    3  A    between atoms: C_6  and  C_8
REMARK    4  A    between atoms: C_8  and  S_9
REMARK    5  A    between atoms: S_9  and  C_10
REMARK    6  A    between atoms: C_14  and  C_16
REMARK    7  A    between atoms: C_21  and  O_22
REMARK    8  A    between atoms: O_22  and  C_23
REMARK    9  A    between atoms: C_26  and  C_34
REMARK   10  A    between atoms: C_29  and  C_32
REMARK   11  A    between atoms: C_32  and  O_33
REMARK                            x       y       z     vdW  Elec       q    Type
REMARK                         _______ _______ _______ _____ _____    ______ ____
ROOT
ATOM      1  C   UNL     1       1.622  -4.015   4.517  0.00  0.00    +0.108 A 
ATOM      2  C   UNL     1       2.759  -4.409   5.221  0.00  0.00    +0.051 A 
ATOM      3  C   UNL     1       2.600  -5.105   6.408  0.00  0.00    +0.229 A 
ATOM      4  N   UNL     1       1.369  -5.375   6.839  0.00  0.00    -0.192 NA
ATOM      5  C   UNL     1       0.307  -4.987   6.147  0.00  0.00    +0.168 A 
ATOM      6  N   UNL     1       0.422  -4.315   5.009  0.00  0.00    -0.220 NA
ATOM      7  O   UNL     1       3.667  -5.511   7.129  0.00  0.00    -0.436 OA
ATOM      8  C   UNL     1       4.877  -4.937   6.933  0.00  0.00    +0.155 A 
ATOM      9  C   UNL     1       5.863  -5.051   7.905  0.00  0.00    +0.081 A 
ATOM     10  N   UNL     1       7.046  -4.497   7.728  0.00  0.00    -0.256 NA
ATOM     11  C   UNL     1       7.342  -3.819   6.636  0.00  0.00    +0.117 A 
ATOM     12  C   UNL     1       6.411  -3.663   5.626  0.00  0.00    +0.003 A 
ATOM     13  C   UNL     1       5.156  -4.231   5.773  0.00  0.00    +0.008 A 
ATOM     14  C   UNL     1       4.125  -4.079   4.691  0.00  0.00    +0.082 C 
ATOM     15  C   UNL     1       5.578  -5.813   9.173  0.00  0.00    +0.069 C 
ENDROOT
BRANCH   5  16
ATOM     16  C   UNL     1      -1.045  -5.308   6.661  0.00  0.00    +0.061 A 
ATOM     17  C   UNL     1      -2.176  -4.915   5.948  0.00  0.00    +0.015 A 
ATOM     18  C   UNL     1      -3.433  -5.216   6.431  0.00  0.00    +0.001 A 
ATOM     19  C   UNL     1      -3.575  -5.908   7.622  0.00  0.00    +0.004 A 
ATOM     20  C   UNL     1      -2.461  -6.302   8.337  0.00  0.00    +0.046 A 
ATOM     21  C   UNL     1      -1.192  -6.011   7.861  0.00  0.00    +0.131 A 
BRANCH  21  22
ATOM     22  O   UNL     1      -0.096  -6.402   8.560  0.00  0.00    -0.494 OA
ATOM     23  C   UNL     1      -0.323  -7.116   9.777  0.00  0.00    +0.277 C 
ENDBRANCH  21  22
ENDBRANCH   5  16
BRANCH   1  24
ATOM     24  S   UNL     1       1.770  -3.127   3.002  0.00  0.00    -0.101 S 
BRANCH  24  25
ATOM     25  C   UNL     1       0.054  -2.845   2.489  0.00  0.00    +0.111 C 
BRANCH  25  31
ATOM     26  C   UNL     1      -0.018   1.503   0.010  0.00  0.00    +0.044 C 
ATOM     27  C   UNL     1       0.002  -0.004   0.002  0.00  0.00    -0.050 A 
ATOM     28  C   UNL     1       0.006  -0.689  -1.199  0.00  0.00    +0.003 A 
ATOM     29  C   UNL     1       0.025  -2.071  -1.207  0.00  0.00    +0.004 A 
ATOM     30  C   UNL     1       0.040  -2.768  -0.013  0.00  0.00    -0.046 A 
ATOM     31  C   UNL     1       0.037  -2.084   1.188  0.00  0.00    -0.034 A 
ATOM     32  C   UNL     1       0.023  -0.702   1.195  0.00  0.00    +0.008 A 
ATOM     33  C   UNL     1       0.059  -4.275  -0.021  0.00  0.00    +0.044 C 
ENDBRANCH  25  31
ENDBRANCH  24  25
ENDBRANCH   1  24
BRANCH  12  34
ATOM     34  C   UNL     1       6.758  -2.887   4.381  0.00  0.00    +0.193 C 
BRANCH  34  35
ATOM     35  O   UNL     1       8.101  -2.410   4.476  0.00  0.00    -0.390 OA
ATOM     36  H   UNL     1       8.393  -1.900   3.708  0.00  0.00    +0.210 HD
ENDBRANCH  34  35
ENDBRANCH  12  34
TORSDOF 7
