REMARK  Name = ZINC12975702
REMARK  8 active torsions:
REMARK  status: ('A' for Active; 'I' for Inactive)
REMARK    1  A    between atoms: C_1  and  C_2
REMARK    2  A    between atoms: C_4  and  C_27
REMARK    3  A    between atoms: C_5  and  N_9
REMARK    4  A    between atoms: C_6  and  C_8
REMARK    5  A    between atoms: C_10  and  C_12
REMARK    6  A    between atoms: C_12  and  N_13
REMARK    7  A    between atoms: C_14  and  C_16
REMARK    8  A    between atoms: C_16  and  C_17
REMARK                            x       y       z     vdW  Elec       q    Type
REMARK                         _______ _______ _______ _____ _____    ______ ____
ROOT
ATOM      1  N   UNL     1      -1.540   0.302  -2.798  0.00  0.00    -0.306 N 
ATOM      2  C   UNL     1      -2.071   0.515  -1.578  0.00  0.00    +0.218 C 
ATOM      3  O   UNL     1      -2.513   1.607  -1.290  0.00  0.00    -0.275 OA
ATOM      4  H   UNL     1      -1.187  -0.572  -3.027  0.00  0.00    +0.149 HD
ENDROOT
BRANCH   1   5
ATOM      5  C   UNL     1      -1.495   1.391  -3.777  0.00  0.00    +0.200 C 
BRANCH   5   7
ATOM      6  N   UNL     1      -0.710   1.730  -6.098  0.00  0.00    -0.284 N 
ATOM      7  C   UNL     1      -0.858   0.896  -5.050  0.00  0.00    +0.234 C 
ATOM      8  O   UNL     1      -0.478  -0.253  -5.131  0.00  0.00    -0.274 OA
ATOM      9  H   UNL     1      -1.076   2.627  -6.059  0.00  0.00    +0.155 HD
BRANCH   6  14
ATOM     10  C   UNL     1       2.056  -0.007 -10.737  0.00  0.00    +0.044 C 
ATOM     11  C   UNL     1       1.321   0.455  -9.505  0.00  0.00    -0.050 A 
ATOM     12  C   UNL     1       1.909   0.320  -8.260  0.00  0.00    +0.008 A 
ATOM     13  C   UNL     1       1.238   0.742  -7.129  0.00  0.00    -0.029 A 
ATOM     14  C   UNL     1      -0.028   1.302  -7.242  0.00  0.00    +0.039 A 
ATOM     15  C   UNL     1      -0.618   1.430  -8.493  0.00  0.00    -0.029 A 
ATOM     16  C   UNL     1       0.061   1.012  -9.621  0.00  0.00    +0.008 A 
ATOM     17  C   UNL     1      -1.994   2.031  -8.620  0.00  0.00    +0.045 C 
ATOM     18  C   UNL     1       1.879   0.596  -5.773  0.00  0.00    +0.045 C 
ENDBRANCH   6  14
ENDBRANCH   5   7
ENDBRANCH   1   5
BRANCH   2  19
ATOM     19  C   UNL     1      -2.117  -0.605  -0.570  0.00  0.00    +0.131 C 
BRANCH  19  20
ATOM     20  C   UNL     1      -2.755  -0.110   0.703  0.00  0.00    -0.038 A 
ATOM     21  C   UNL     1      -1.954   0.441   1.702  0.00  0.00    +0.005 A 
ATOM     22  C   UNL     1      -2.499   0.902   2.861  0.00  0.00    +0.009 A 
ATOM     23  C   UNL     1      -3.887   0.812   3.061  0.00  0.00    -0.018 A 
ATOM     24  C   UNL     1      -4.484   1.272   4.247  0.00  0.00    +0.008 A 
ATOM     25  C   UNL     1      -5.832   1.169   4.406  0.00  0.00    +0.001 A 
ATOM     26  C   UNL     1      -6.632   0.613   3.409  0.00  0.00    +0.001 A 
ATOM     27  C   UNL     1      -6.088   0.157   2.247  0.00  0.00    +0.008 A 
ATOM     28  C   UNL     1      -4.700   0.247   2.047  0.00  0.00    -0.018 A 
ATOM     29  C   UNL     1      -4.102  -0.213   0.861  0.00  0.00    +0.012 A 
ENDBRANCH  19  20
ENDBRANCH   2  19
TORSDOF 5
