REMARK  Name = ZINC67381512
REMARK  15 active torsions:
REMARK  status: ('A' for Active; 'I' for Inactive)
REMARK    1  A    between atoms: C_1  and  C_2
REMARK    2  A    between atoms: C_2  and  C_4
REMARK    3  A    between atoms: C_2  and  N_15
REMARK    4  A    between atoms: C_8  and  S_10
REMARK    5  A    between atoms: S_10  and  N_13
REMARK    6  A    between atoms: N_13  and  C_14
REMARK    7  A    between atoms: N_18  and  C_19
REMARK    8  A    between atoms: C_19  and  C_20
REMARK    9  A    between atoms: C_20  and  N_21
REMARK   10  A    between atoms: N_21  and  C_22
REMARK   11  A    between atoms: N_21  and  C_25
REMARK   12  A    between atoms: C_22  and  C_23
REMARK   13  A    between atoms: C_22  and  C_24
REMARK   14  A    between atoms: C_25  and  C_26
REMARK   15  A    between atoms: C_25  and  C_27
REMARK                            x       y       z     vdW  Elec       q    Type
REMARK                         _______ _______ _______ _____ _____    ______ ____
ROOT
ATOM      1  N   UNL     1       2.173  -4.556   3.251  0.00  0.00    -0.293 N 
ATOM      2  C   UNL     1       1.116  -4.054   3.919  0.00  0.00    +0.300 C 
ATOM      3  O   UNL     1       0.008  -4.093   3.421  0.00  0.00    -0.253 OA
ATOM      4  N   UNL     1       1.288  -3.509   5.140  0.00  0.00    -0.301 N 
ATOM      5  H   UNL     1       3.058  -4.526   3.649  0.00  0.00    +0.151 HD
ATOM      6  H   UNL     1       2.172  -3.479   5.538  0.00  0.00    +0.150 HD
ENDROOT
BRANCH   1   8
ATOM      7  C   UNL     1       2.027  -4.047   0.864  0.00  0.00    +0.033 C 
ATOM      8  C   UNL     1       1.987  -5.149   1.924  0.00  0.00    +0.102 C 
BRANCH   8   9
ATOM      9  C   UNL     1       3.089  -6.142   1.658  0.00  0.00    -0.026 A 
ATOM     10  C   UNL     1       4.383  -5.861   2.055  0.00  0.00    +0.005 A 
ATOM     11  C   UNL     1       5.394  -6.772   1.811  0.00  0.00    +0.002 A 
ATOM     12  C   UNL     1       5.111  -7.964   1.171  0.00  0.00    +0.028 A 
ATOM     13  C   UNL     1       3.817  -8.245   0.774  0.00  0.00    +0.106 A 
ATOM     14  C   UNL     1       2.805  -7.335   1.022  0.00  0.00    +0.034 A 
BRANCH  13  15
ATOM     15  S   UNL     1       3.456  -9.763  -0.043  0.00  0.00    +0.058 S 
ATOM     16  O   UNL     1       2.271  -9.547  -0.797  0.00  0.00    -0.153 OA
ATOM     17  O   UNL     1       4.669 -10.202  -0.639  0.00  0.00    -0.153 OA
BRANCH  15  18
ATOM     18  N   UNL     1       3.076 -10.871   1.128  0.00  0.00    -0.193 NA
ATOM     19  C   UNL     1       1.878 -10.686   1.950  0.00  0.00    +0.127 C 
ATOM     20  H   UNL     1       3.647 -11.643   1.269  0.00  0.00    +0.148 HD
ENDBRANCH  15  18
ENDBRANCH  13  15
ENDBRANCH   8   9
ENDBRANCH   1   8
BRANCH   4  21
ATOM     21  C   UNL     1       0.138  -2.963   5.866  0.00  0.00    +0.087 C 
BRANCH  21  22
ATOM     22  C   UNL     1       0.603  -2.410   7.215  0.00  0.00    -0.059 C 
BRANCH  22  23
ATOM     23  N   UNL     1      -0.562  -1.956   7.986  0.00  0.00    +0.384 N 
ATOM     24  H   UNL     1      -1.308  -2.629   7.895  0.00  0.00    -0.081 HD
BRANCH  23  25
ATOM     25  C   UNL     1      -0.191  -1.823   9.401  0.00  0.00    -0.074 C 
ATOM     26  C   UNL     1      -1.351  -1.195  10.176  0.00  0.00    -0.014 C 
ATOM     27  C   UNL     1       0.119  -3.206   9.979  0.00  0.00    -0.014 C 
ENDBRANCH  23  25
BRANCH  23  28
ATOM     28  C   UNL     1      -1.011  -0.655   7.473  0.00  0.00    -0.074 C 
ATOM     29  C   UNL     1       0.189   0.286   7.349  0.00  0.00    -0.014 C 
ATOM     30  C   UNL     1      -1.656  -0.843   6.099  0.00  0.00    -0.014 C 
ENDBRANCH  23  28
ENDBRANCH  22  23
ENDBRANCH  21  22
ENDBRANCH   4  21
TORSDOF 9
