REMARK  Name = ZINC67572513
REMARK  8 active torsions:
REMARK  status: ('A' for Active; 'I' for Inactive)
REMARK    1  A    between atoms: C_1  and  C_2
REMARK    2  A    between atoms: N_8  and  C_9
REMARK    3  A    between atoms: C_14  and  N_15
REMARK    4  A    between atoms: N_18  and  C_19
REMARK    5  A    between atoms: N_18  and  C_20
REMARK    6  A    between atoms: C_20  and  C_22
REMARK    7  A    between atoms: C_20  and  C_23
REMARK    8  A    between atoms: C_27  and  O_29
REMARK                            x       y       z     vdW  Elec       q    Type
REMARK                         _______ _______ _______ _____ _____    ______ ____
ROOT
ATOM      1  N   UNL     1       2.420   0.208   2.664  0.00  0.00    -0.267 N 
ATOM      2  C   UNL     1       3.679   0.361   3.119  0.00  0.00    +0.307 C 
ATOM      3  O   UNL     1       3.878   0.929   4.176  0.00  0.00    -0.252 OA
ATOM      4  N   UNL     1       4.717  -0.115   2.404  0.00  0.00    -0.282 N 
ATOM      5  C   UNL     1       4.476  -0.799   1.131  0.00  0.00    +0.134 C 
ATOM      6  H   UNL     1       2.255  -0.302   1.856  0.00  0.00    +0.156 HD
ENDROOT
BRANCH   1  12
ATOM      7  C   UNL     1       0.188   1.149   2.676  0.00  0.00    +0.072 A 
ATOM      8  C   UNL     1      -0.871   1.715   3.369  0.00  0.00    +0.028 A 
ATOM      9  C   UNL     1      -0.772   1.924   4.732  0.00  0.00    +0.002 A 
ATOM     10  C   UNL     1       0.382   1.570   5.408  0.00  0.00    +0.002 A 
ATOM     11  C   UNL     1       1.442   1.005   4.724  0.00  0.00    +0.025 A 
ATOM     12  C   UNL     1       1.349   0.786   3.358  0.00  0.00    +0.059 A 
BRANCH   7  20
ATOM     13  C   UNL     1       1.042   3.207   0.520  0.00  0.00    +0.065 C 
ATOM     14  C   UNL     1       0.461   1.833   0.301  0.00  0.00    +0.042 A 
ATOM     15  C   UNL     1       0.220   1.264  -0.875  0.00  0.00    +0.109 A 
ATOM     16  N   UNL     1      -0.311   0.005  -0.639  0.00  0.00    -0.312 N 
ATOM     17  H   UNL     1      -0.582  -0.635  -1.316  0.00  0.00    +0.170 HD
ATOM     18  C   UNL     1      -0.386  -0.173   0.694  0.00  0.00    +0.331 A 
ATOM     19  O   UNL     1      -0.805  -1.167   1.260  0.00  0.00    -0.246 OA
ATOM     20  N   UNL     1       0.090   0.936   1.293  0.00  0.00    -0.264 N 
ENDBRANCH   7  20
ENDBRANCH   1  12
BRANCH   4  21
ATOM     21  C   UNL     1       6.085   0.051   2.899  0.00  0.00    +0.104 C 
ATOM     22  C   UNL     1       6.781  -1.311   2.943  0.00  0.00    +0.033 C 
BRANCH  21  23
ATOM     23  C   UNL     1       6.844   0.973   1.979  0.00  0.00    -0.024 A 
ATOM     24  C   UNL     1       7.416   2.129   2.478  0.00  0.00    +0.006 A 
ATOM     25  C   UNL     1       8.113   2.977   1.636  0.00  0.00    +0.004 A 
ATOM     26  C   UNL     1       8.238   2.671   0.295  0.00  0.00    +0.045 A 
ATOM     27  C   UNL     1       7.665   1.512  -0.208  0.00  0.00    +0.117 A 
ATOM     28  C   UNL     1       6.971   0.660   0.640  0.00  0.00    +0.050 A 
BRANCH  27  29
ATOM     29  O   UNL     1       7.786   1.209  -1.527  0.00  0.00    -0.507 OA
ATOM     30  H   UNL     1       8.567   0.679  -1.738  0.00  0.00    +0.292 HD
ENDBRANCH  27  29
ENDBRANCH  21  23
ENDBRANCH   4  21
TORSDOF 5
