REMARK  Name = ZINC08969965
REMARK  7 active torsions:
REMARK  status: ('A' for Active; 'I' for Inactive)
REMARK    1  A    between atoms: C_1  and  O_2
REMARK    2  A    between atoms: O_2  and  C_3
REMARK    3  A    between atoms: C_6  and  C_11
REMARK    4  A    between atoms: C_8  and  O_9
REMARK    5  A    between atoms: O_9  and  C_10
REMARK    6  A    between atoms: N_17  and  N_18
REMARK    7  A    between atoms: N_18  and  C_19
REMARK                            x       y       z     vdW  Elec       q    Type
REMARK                         _______ _______ _______ _____ _____    ______ ____
ROOT
ATOM      1  C   UNL     1      -4.957  -2.611   0.037  0.00  0.00    +0.028 C 
ATOM      2  C   UNL     1      -6.101  -1.888   0.149  0.00  0.00    +0.078 C 
ATOM      3  C   UNL     1      -6.283  -0.424   0.168  0.00  0.00    +0.256 C 
ATOM      4  O   UNL     1      -5.336   0.335   0.074  0.00  0.00    -0.269 OA
ATOM      5  N   UNL     1      -7.520   0.027   0.289  0.00  0.00    -0.259 N 
ATOM      6  C   UNL     1      -8.583  -0.860   0.393  0.00  0.00    +0.183 C 
ATOM      7  N   UNL     1      -9.852  -0.593   0.518  0.00  0.00    -0.159 NA
ATOM      8  S   UNL     1      -7.788  -2.456   0.307  0.00  0.00    -0.048 S 
ATOM      9  H   UNL     1      -7.686   0.983   0.305  0.00  0.00    +0.157 HD
ENDROOT
BRANCH   1  13
ATOM     10  C   UNL     1      -1.192  -0.662   0.227  0.00  0.00    +0.162 A 
ATOM     11  C   UNL     1      -2.224  -0.258   1.062  0.00  0.00    +0.050 A 
ATOM     12  C   UNL     1      -3.449  -0.888   1.004  0.00  0.00    +0.012 A 
ATOM     13  C   UNL     1      -3.654  -1.937   0.101  0.00  0.00    -0.020 A 
ATOM     14  C   UNL     1      -2.611  -2.343  -0.742  0.00  0.00    +0.057 A 
ATOM     15  C   UNL     1      -1.389  -1.702  -0.680  0.00  0.00    +0.162 A 
BRANCH  10  17
ATOM     16  C   UNL     1       0.147   1.020   1.240  0.00  0.00    +0.277 C 
ATOM     17  O   UNL     1       0.013  -0.037   0.289  0.00  0.00    -0.491 OA
ENDBRANCH  10  17
BRANCH  15  18
ATOM     18  O   UNL     1      -0.377  -2.090  -1.501  0.00  0.00    -0.491 OA
ATOM     19  C   UNL     1      -0.648  -3.163  -2.405  0.00  0.00    +0.277 C 
ENDBRANCH  15  18
ENDBRANCH   1  13
BRANCH   7  20
ATOM     20  N   UNL     1     -10.782  -1.637   0.609  0.00  0.00    -0.236 N 
ATOM     21  H   UNL     1     -10.481  -2.559   0.580  0.00  0.00    +0.174 HD
BRANCH  20  22
ATOM     22  C   UNL     1     -12.139  -1.352   0.743  0.00  0.00    +0.048 A 
ATOM     23  C   UNL     1     -12.573  -0.031   0.780  0.00  0.00    +0.025 A 
ATOM     24  C   UNL     1     -13.918   0.248   0.912  0.00  0.00    +0.002 A 
ATOM     25  C   UNL     1     -14.834  -0.785   1.008  0.00  0.00    +0.000 A 
ATOM     26  C   UNL     1     -14.406  -2.099   0.972  0.00  0.00    +0.002 A 
ATOM     27  C   UNL     1     -13.063  -2.387   0.834  0.00  0.00    +0.025 A 
ENDBRANCH  20  22
ENDBRANCH   7  20
TORSDOF 5
