REMARK  Name = ZINC08324773
REMARK  6 active torsions:
REMARK  status: ('A' for Active; 'I' for Inactive)
REMARK    1  A    between atoms: C_7  and  C_28
REMARK    2  A    between atoms: N_9  and  C_12
REMARK    3  A    between atoms: C_12  and  C_13
REMARK    4  A    between atoms: N_15  and  C_16
REMARK    5  A    between atoms: C_16  and  C_17
REMARK    6  A    between atoms: C_17  and  C_18
REMARK                            x       y       z     vdW  Elec       q    Type
REMARK                         _______ _______ _______ _____ _____    ______ ____
ROOT
ATOM      1  C   UNL     1      -4.735   4.568   2.650  0.00  0.00    +0.243 C 
ENDROOT
BRANCH   1  10
ATOM      2  C   UNL     1      -6.114   6.196   8.712  0.00  0.00    +0.001 A 
ATOM      3  C   UNL     1      -5.195   7.114   8.220  0.00  0.00    +0.001 A 
ATOM      4  C   UNL     1      -4.716   7.010   6.931  0.00  0.00    +0.014 A 
ATOM      5  C   UNL     1      -5.162   5.972   6.120  0.00  0.00    +0.050 A 
ATOM      6  C   UNL     1      -6.097   5.036   6.620  0.00  0.00    +0.020 A 
ATOM      7  C   UNL     1      -6.567   5.159   7.923  0.00  0.00    +0.011 A 
ATOM      8  C   UNL     1      -6.530   3.961   5.715  0.00  0.00    +0.153 A 
ATOM      9  N   UNL     1      -6.041   3.911   4.499  0.00  0.00    -0.162 NA
ATOM     10  N   UNL     1      -5.195   4.748   4.029  0.00  0.00    -0.219 N 
ATOM     11  C   UNL     1      -4.700   5.784   4.737  0.00  0.00    +0.275 A 
ATOM     12  O   UNL     1      -3.892   6.548   4.242  0.00  0.00    -0.266 OA
BRANCH   8  13
ATOM     13  C   UNL     1      -7.505   2.949   6.169  0.00  0.00    +0.262 C 
ATOM     14  O   UNL     1      -7.954   3.001   7.297  0.00  0.00    -0.269 OA
ATOM     15  N   UNL     1      -7.896   1.967   5.332  0.00  0.00    -0.324 N 
ATOM     16  H   UNL     1      -7.538   1.925   4.432  0.00  0.00    +0.145 HD
ATOM     17  H   UNL     1      -8.537   1.302   5.631  0.00  0.00    +0.145 HD
ENDBRANCH   8  13
ENDBRANCH   1  10
BRANCH   1  18
ATOM     18  C   UNL     1      -3.512   3.688   2.639  0.00  0.00    +0.235 C 
ATOM     19  O   UNL     1      -3.068   3.254   3.681  0.00  0.00    -0.274 OA
ATOM     20  N   UNL     1      -2.911   3.384   1.472  0.00  0.00    -0.313 N 
ATOM     21  H   UNL     1      -3.266   3.731   0.639  0.00  0.00    +0.149 HD
BRANCH  20  22
ATOM     22  C   UNL     1      -1.722   2.528   1.461  0.00  0.00    +0.109 C 
BRANCH  22  23
ATOM     23  C   UNL     1      -1.241   2.341   0.021  0.00  0.00    +0.056 C 
BRANCH  23  24
ATOM     24  C   UNL     1      -0.018   1.461   0.010  0.00  0.00    -0.021 A 
ATOM     25  C   UNL     1       1.260   1.871   0.000  0.00  0.00    +0.087 A 
ATOM     26  N   UNL     1       2.097   0.788  -0.014  0.00  0.00    -0.360 N 
ATOM     27  H   UNL     1       3.066   0.833  -0.023  0.00  0.00    +0.165 HD
ATOM     28  C   UNL     1       1.359  -0.374  -0.013  0.00  0.00    +0.047 A 
ATOM     29  C   UNL     1       0.002  -0.004   0.002  0.00  0.00    +0.003 A 
ATOM     30  C   UNL     1      -0.988  -0.988   0.007  0.00  0.00    +0.010 A 
ATOM     31  C   UNL     1      -0.633  -2.308  -0.003  0.00  0.00    +0.001 A 
ATOM     32  C   UNL     1       0.704  -2.678  -0.018  0.00  0.00    +0.002 A 
ATOM     33  C   UNL     1       1.698  -1.723  -0.023  0.00  0.00    +0.026 A 
ENDBRANCH  23  24
ENDBRANCH  22  23
ENDBRANCH  20  22
ENDBRANCH   1  18
TORSDOF 6
