REMARK  Name = ZINC40986258
REMARK  14 active torsions:
REMARK  status: ('A' for Active; 'I' for Inactive)
REMARK    1  A    between atoms: C_1  and  C_2
REMARK    2  A    between atoms: C_2  and  C_3
REMARK    3  A    between atoms: C_3  and  C_4
REMARK    4  A    between atoms: C_4  and  S_5
REMARK    5  A    between atoms: S_5  and  C_8
REMARK    6  A    between atoms: C_11  and  C_15
REMARK    7  A    between atoms: N_17  and  C_18
REMARK    8  A    between atoms: C_18  and  C_19
REMARK    9  A    between atoms: C_19  and  C_21
REMARK   10  A    between atoms: C_19  and  N_31
REMARK   11  A    between atoms: C_24  and  O_29
REMARK   12  A    between atoms: C_25  and  O_27
REMARK   13  A    between atoms: O_27  and  C_28
REMARK   14  A    between atoms: O_29  and  C_30
REMARK                            x       y       z     vdW  Elec       q    Type
REMARK                         _______ _______ _______ _____ _____    ______ ____
ROOT
ATOM      1  C   UNL     1       0.406 -10.833   2.573  0.00  0.00    +0.094 C 
ENDROOT
BRANCH   1   4
ATOM      2  C   UNL     1       2.819 -11.122   2.749  0.00  0.00    +0.248 C 
ATOM      3  O   UNL     1       2.938 -10.523   1.698  0.00  0.00    -0.270 OA
ATOM      4  N   UNL     1       1.594 -11.329   3.272  0.00  0.00    -0.312 N 
ATOM      5  H   UNL     1       1.500 -11.807   4.111  0.00  0.00    +0.149 HD
BRANCH   2   9
ATOM      6  C   UNL     1       6.191 -12.530   4.731  0.00  0.00    +0.272 A 
ATOM      7  N   UNL     1       5.002 -12.744   5.261  0.00  0.00    -0.219 NA
ATOM      8  C   UNL     1       3.904 -12.314   4.665  0.00  0.00    +0.130 A 
ATOM      9  C   UNL     1       4.018 -11.622   3.454  0.00  0.00    +0.092 A 
ATOM     10  C   UNL     1       5.301 -11.418   2.928  0.00  0.00    +0.146 A 
ATOM     11  N   UNL     1       6.346 -11.879   3.596  0.00  0.00    -0.199 NA
ATOM     12 CL   UNL     1       5.515 -10.568   1.430  0.00  0.00    -0.061 Cl
BRANCH   6  13
ATOM     13  S   UNL     1       7.619 -13.127   5.573  0.00  0.00    +0.032 S 
ATOM     14  O   UNL     1       8.593 -13.305   4.554  0.00  0.00    -0.166 OA
ATOM     15  O   UNL     1       7.156 -14.235   6.333  0.00  0.00    -0.166 OA
BRANCH  13  16
ATOM     16  C   UNL     1       8.110 -11.774   6.677  0.00  0.00    +0.175 C 
BRANCH  16  17
ATOM     17  C   UNL     1       9.354 -12.185   7.467  0.00  0.00    +0.023 C 
BRANCH  17  19
ATOM     18  C   UNL     1      11.011 -11.456   9.188  0.00  0.00    +0.004 C 
ATOM     19  C   UNL     1       9.767 -11.044   8.398  0.00  0.00    -0.002 C 
ENDBRANCH  17  19
ENDBRANCH  16  17
ENDBRANCH  13  16
ENDBRANCH   6  13
ENDBRANCH   2   9
ENDBRANCH   1   4
BRANCH   1  20
ATOM     20  C   UNL     1      -0.851 -11.311   3.303  0.00  0.00    -0.020 C 
BRANCH  20  21
ATOM     21  N   UNL     1      -2.040 -10.739   2.656  0.00  0.00    +0.385 N 
ATOM     22  C   UNL     1      -1.993  -9.275   2.757  0.00  0.00    -0.078 C 
ATOM     23  C   UNL     1      -3.187  -8.671   2.015  0.00  0.00    -0.019 C 
ATOM     24  C   UNL     1      -4.485  -9.186   2.643  0.00  0.00    -0.004 C 
ATOM     25  C   UNL     1      -4.489 -10.717   2.599  0.00  0.00    -0.019 C 
ATOM     26  C   UNL     1      -3.247 -11.246   3.319  0.00  0.00    -0.078 C 
ATOM     27  H   UNL     1      -2.054 -11.007   1.683  0.00  0.00    -0.081 HD
ENDBRANCH  20  21
BRANCH  20  28
ATOM     28  C   UNL     1      -0.924 -12.816   3.245  0.00  0.00    -0.056 A 
ATOM     29  C   UNL     1      -1.384 -13.441   2.102  0.00  0.00    +0.006 A 
ATOM     30  C   UNL     1      -1.452 -14.821   2.044  0.00  0.00    +0.049 A 
ATOM     31  C   UNL     1      -1.058 -15.580   3.135  0.00  0.00    +0.161 A 
ATOM     32  C   UNL     1      -0.595 -14.950   4.286  0.00  0.00    +0.162 A 
ATOM     33  C   UNL     1      -0.524 -13.567   4.335  0.00  0.00    +0.051 A 
BRANCH  32  34
ATOM     34  O   UNL     1      -0.207 -15.691   5.358  0.00  0.00    -0.491 OA
ATOM     35  C   UNL     1       0.258 -14.977   6.506  0.00  0.00    +0.277 C 
ENDBRANCH  32  34
BRANCH  31  36
ATOM     36  O   UNL     1      -1.125 -16.937   3.080  0.00  0.00    -0.491 OA
ATOM     37  C   UNL     1      -1.612 -17.514   1.867  0.00  0.00    +0.277 C 
ENDBRANCH  31  36
ENDBRANCH  20  28
ENDBRANCH   1  20
TORSDOF 11
