REMARK  Name = ZINC13398983
REMARK  5 active torsions:
REMARK  status: ('A' for Active; 'I' for Inactive)
REMARK    1  A    between atoms: C_1  and  C_2
REMARK    2  A    between atoms: C_2  and  O_4
REMARK    3  A    between atoms: O_4  and  C_5
REMARK    4  A    between atoms: C_11  and  C_29
REMARK    5  A    between atoms: C_22  and  C_28
REMARK                            x       y       z     vdW  Elec       q    Type
REMARK                         _______ _______ _______ _____ _____    ______ ____
ROOT
ATOM      1  C   UNL     1      -4.594   0.187  -5.449  0.00  0.00    +0.183 C 
ATOM      2  C   UNL     1      -3.461  -0.131  -6.450  0.00  0.00    +0.045 C 
ATOM      3  C   UNL     1      -2.153  -0.083  -5.643  0.00  0.00    +0.008 C 
ATOM      4  C   UNL     1      -2.542   0.018  -4.143  0.00  0.00    +0.002 C 
ATOM      5  C   UNL     1      -4.034  -0.327  -4.110  0.00  0.00    +0.008 C 
ATOM      6  C   UNL     1      -4.797   0.194  -2.923  0.00  0.00    +0.011 C 
ATOM      7  C   UNL     1      -4.418   1.573  -2.433  0.00  0.00    +0.005 C 
ATOM      8  C   UNL     1      -2.922   1.836  -2.404  0.00  0.00    -0.001 C 
ATOM      9  C   UNL     1      -2.274   1.456  -3.716  0.00  0.00    -0.004 C 
ATOM     10  C   UNL     1      -0.771   1.732  -3.703  0.00  0.00    +0.004 C 
ATOM     11  C   UNL     1      -0.121   1.068  -2.490  0.00  0.00    +0.005 C 
ATOM     12  C   UNL     1      -0.743   1.634  -1.215  0.00  0.00    +0.002 C 
ATOM     13  C   UNL     1      -2.236   1.296  -1.157  0.00  0.00    -0.025 C 
ATOM     14  C   UNL     1      -2.837   2.003   0.070  0.00  0.00    +0.015 C 
ATOM     15  C   UNL     1      -2.197   1.494   1.359  0.00  0.00    +0.075 C 
ATOM     16  C   UNL     1      -0.694   1.592   1.257  0.00  0.00    +0.134 C 
ATOM     17  O   UNL     1      -0.043   2.069   2.159  0.00  0.00    -0.297 OA
ATOM     18  C   UNL     1      -0.013   1.082   0.008  0.00  0.00    +0.078 C 
ATOM     19  C   UNL     1      -2.427  -0.208  -1.000  0.00  0.00    +0.012 C 
ATOM     20  C   UNL     1      -4.166  -1.864  -4.110  0.00  0.00    +0.015 C 
ENDROOT
BRANCH   1  21
ATOM     21  O   UNL     1      -4.860   1.611  -5.402  0.00  0.00    -0.461 OA
BRANCH  21  23
ATOM     22  C   UNL     1      -6.191   3.540  -6.178  0.00  0.00    +0.136 C 
ATOM     23  C   UNL     1      -5.857   2.070  -6.174  0.00  0.00    +0.304 C 
ATOM     24  O   UNL     1      -6.488   1.306  -6.865  0.00  0.00    -0.251 OA
ENDBRANCH  21  23
ENDBRANCH   1  21
TORSDOF 2
