REMARK  Name = ZINC06015435
REMARK  16 active torsions:
REMARK  status: ('A' for Active; 'I' for Inactive)
REMARK    1  A    between atoms: C_1  and  C_2
REMARK    2  A    between atoms: C_3  and  C_34
REMARK    3  A    between atoms: C_4  and  C_25
REMARK    4  A    between atoms: C_10  and  C_15
REMARK    5  A    between atoms: C_18  and  O_23
REMARK    6  A    between atoms: C_19  and  O_21
REMARK    7  A    between atoms: O_21  and  C_22
REMARK    8  A    between atoms: O_23  and  C_24
REMARK    9  A    between atoms: C_28  and  O_32
REMARK   10  A    between atoms: C_29  and  O_31
REMARK   11  A    between atoms: O_32  and  C_33
REMARK   12  A    between atoms: C_34  and  O_36
REMARK   13  A    between atoms: O_36  and  C_37
REMARK   14  A    between atoms: C_37  and  C_38
REMARK   15  A    between atoms: C_38  and  O_39
REMARK   16  A    between atoms: O_39  and  C_40
REMARK                            x       y       z     vdW  Elec       q    Type
REMARK                         _______ _______ _______ _____ _____    ______ ____
ROOT
ATOM      1  C   UNL     1       2.430   0.989  -0.484  0.00  0.00    +0.061 C 
ATOM      2  C   UNL     1       1.167   1.665  -0.019  0.00  0.00    +0.031 C 
ATOM      3  C   UNL     1       1.203   2.950   0.376  0.00  0.00    +0.154 C 
ATOM      4  C   UNL     1      -0.035   3.650   0.864  0.00  0.00    +0.073 C 
ATOM      5  C   UNL     1      -1.276   2.915   0.424  0.00  0.00    +0.025 C 
ATOM      6  C   UNL     1      -1.210   1.628   0.017  0.00  0.00    +0.049 C 
ATOM      7  N   UNL     1      -0.009   0.969  -0.002  0.00  0.00    -0.260 NA
ATOM      8  C   UNL     1      -2.446   0.889  -0.427  0.00  0.00    +0.064 C 
ATOM      9  C   UNL     1      -3.666   1.427   0.326  0.00  0.00    +0.032 C 
ATOM     10  C   UNL     1      -3.784   2.929   0.046  0.00  0.00    +0.088 C 
ATOM     11  C   UNL     1      -2.501   3.604   0.450  0.00  0.00    +0.162 C 
ATOM     12  O   UNL     1      -2.525   4.766   0.806  0.00  0.00    -0.292 OA
ENDROOT
BRANCH   9  13
ATOM     13  C   UNL     1      -4.909   0.724  -0.155  0.00  0.00    -0.040 A 
ATOM     14  C   UNL     1      -5.263   0.786  -1.490  0.00  0.00    +0.008 A 
ATOM     15  C   UNL     1      -6.402   0.143  -1.937  0.00  0.00    +0.049 A 
ATOM     16  C   UNL     1      -7.191  -0.567  -1.046  0.00  0.00    +0.161 A 
ATOM     17  C   UNL     1      -6.834  -0.630   0.297  0.00  0.00    +0.162 A 
ATOM     18  C   UNL     1      -5.688   0.013   0.738  0.00  0.00    +0.053 A 
BRANCH  17  19
ATOM     19  O   UNL     1      -7.606  -1.325   1.175  0.00  0.00    -0.491 OA
ATOM     20  C   UNL     1      -7.178  -1.347   2.539  0.00  0.00    +0.277 C 
ENDBRANCH  17  19
BRANCH  16  21
ATOM     21  O   UNL     1      -8.312  -1.201  -1.484  0.00  0.00    -0.491 OA
ATOM     22  C   UNL     1      -8.617  -1.092  -2.876  0.00  0.00    +0.277 C 
ENDBRANCH  16  21
ENDBRANCH   9  13
BRANCH   4  23
ATOM     23  C   UNL     1      -0.018   3.734   2.368  0.00  0.00    -0.035 A 
ATOM     24  C   UNL     1       0.019   2.576   3.123  0.00  0.00    +0.008 A 
ATOM     25  C   UNL     1       0.035   2.648   4.504  0.00  0.00    +0.049 A 
ATOM     26  C   UNL     1       0.014   3.882   5.134  0.00  0.00    +0.161 A 
ATOM     27  C   UNL     1      -0.023   5.047   4.373  0.00  0.00    +0.159 A 
ATOM     28  C   UNL     1      -0.033   4.968   2.990  0.00  0.00    +0.053 A 
BRANCH  27  29
ATOM     29  O   UNL     1      -0.044   6.261   4.987  0.00  0.00    -0.503 OA
ATOM     30  H   UNL     1       0.833   6.633   5.154  0.00  0.00    +0.292 HD
ENDBRANCH  27  29
BRANCH  26  31
ATOM     31  O   UNL     1       0.029   3.955   6.492  0.00  0.00    -0.491 OA
ATOM     32  C   UNL     1       0.066   2.718   7.207  0.00  0.00    +0.277 C 
ENDBRANCH  26  31
ENDBRANCH   4  23
BRANCH   3  33
ATOM     33  C   UNL     1       2.431   3.651   0.341  0.00  0.00    +0.317 C 
ATOM     34  O   UNL     1       3.441   3.092  -0.044  0.00  0.00    -0.250 OA
BRANCH  33  35
ATOM     35  O   UNL     1       2.482   4.941   0.735  0.00  0.00    -0.462 OA
BRANCH  35  36
ATOM     36  C   UNL     1       3.755   5.588   0.674  0.00  0.00    +0.260 C 
BRANCH  36  37
ATOM     37  C   UNL     1       3.616   7.033   1.156  0.00  0.00    +0.200 C 
BRANCH  37  38
ATOM     38  O   UNL     1       3.254   7.042   2.538  0.00  0.00    -0.380 OA
ATOM     39  C   UNL     1       3.098   8.351   3.090  0.00  0.00    +0.194 C 
ENDBRANCH  37  38
ENDBRANCH  36  37
ENDBRANCH  35  36
ENDBRANCH  33  35
ENDBRANCH   3  33
TORSDOF 11
