REMARK  Name = ZINC67292416
REMARK  4 active torsions:
REMARK  status: ('A' for Active; 'I' for Inactive)
REMARK    1  A    between atoms: C_3  and  N_8
REMARK    2  A    between atoms: C_10  and  C_20
REMARK    3  A    between atoms: N_22  and  C_23
REMARK    4  A    between atoms: C_23  and  C_24
REMARK                            x       y       z     vdW  Elec       q    Type
REMARK                         _______ _______ _______ _____ _____    ______ ____
ROOT
ATOM      1  N   UNL     1       3.560   2.113  -0.018  0.00  0.00    -0.325 N 
ATOM      2  C   UNL     1       4.544   1.749   0.775  0.00  0.00    +0.212 A 
ATOM      3  C   UNL     1       5.859   2.417   0.711  0.00  0.00    +0.097 A 
ATOM      4  C   UNL     1       6.626   2.416   1.869  0.00  0.00    +0.030 A 
ATOM      5  C   UNL     1       6.063   1.755   3.048  0.00  0.00    +0.019 A 
ATOM      6  C   UNL     1       6.637   1.935   4.312  0.00  0.00    +0.026 A 
ATOM      7  C   UNL     1       6.086   1.305   5.406  0.00  0.00    +0.019 A 
ATOM      8  C   UNL     1       4.968   0.495   5.260  0.00  0.00    +0.019 A 
ATOM      9  C   UNL     1       4.392   0.307   4.020  0.00  0.00    +0.048 A 
ATOM     10  C   UNL     1       4.931   0.931   2.904  0.00  0.00    +0.137 A 
ATOM     11  O   UNL     1       4.379   0.753   1.683  0.00  0.00    -0.439 OA
ATOM     12 BR   UNL     1       6.857   1.544   7.116  0.00  0.00    -0.050 Br
ATOM     13  H   UNL     1       3.665   2.883  -0.599  0.00  0.00    +0.169 HD
ENDROOT
BRANCH   1  16
ATOM     14  C   UNL     1      -0.013   1.358  -0.013  0.00  0.00    +0.003 A 
ATOM     15  C   UNL     1       1.164   2.077  -0.006  0.00  0.00    +0.026 A 
ATOM     16  C   UNL     1       2.389   1.406  -0.025  0.00  0.00    +0.043 A 
ATOM     17  C   UNL     1       2.413   0.009  -0.050  0.00  0.00    +0.045 A 
ATOM     18  C   UNL     1       1.228  -0.698  -0.057  0.00  0.00    +0.043 A 
ATOM     19  C   UNL     1       0.017  -0.025  -0.038  0.00  0.00    +0.020 A 
ATOM     20 CL   UNL     1       1.254  -2.433  -0.088  0.00  0.00    -0.083 Cl
ENDBRANCH   1  16
BRANCH   3  21
ATOM     21  C   UNL     1       6.338   3.054  -0.527  0.00  0.00    +0.249 C 
ATOM     22  O   UNL     1       5.610   3.116  -1.500  0.00  0.00    -0.270 OA
ATOM     23  N   UNL     1       7.582   3.570  -0.583  0.00  0.00    -0.309 N 
ATOM     24  H   UNL     1       8.188   3.455   0.166  0.00  0.00    +0.149 HD
BRANCH  23  25
ATOM     25  C   UNL     1       8.019   4.303  -1.774  0.00  0.00    +0.136 C 
BRANCH  25  26
ATOM     26  C   UNL     1       9.460   4.778  -1.580  0.00  0.00    +0.135 C 
ATOM     27  C   UNL     1       9.889   5.653  -2.777  0.00  0.00    +0.035 C 
ATOM     28  C   UNL     1      11.360   5.208  -3.001  0.00  0.00    +0.031 C 
ATOM     29  C   UNL     1      11.274   3.708  -2.622  0.00  0.00    +0.160 C 
ATOM     30  O   UNL     1      10.341   3.649  -1.529  0.00  0.00    -0.375 OA
ENDBRANCH  25  26
ENDBRANCH  23  25
ENDBRANCH   3  21
TORSDOF 4
