REMARK  Name = ZINC19517871
REMARK  5 active torsions:
REMARK  status: ('A' for Active; 'I' for Inactive)
REMARK    1  A    between atoms: C_1  and  C_2
REMARK    2  A    between atoms: C_8  and  O_14
REMARK    3  A    between atoms: O_14  and  C_15
REMARK    4  A    between atoms: C_15  and  C_16
REMARK    5  A    between atoms: C_16  and  C_17
REMARK                            x       y       z     vdW  Elec       q    Type
REMARK                         _______ _______ _______ _____ _____    ______ ____
ROOT
ATOM      1  C   UNL     1       3.728   1.857  -0.023  0.00  0.00    +0.073 C 
ATOM      2  C   UNL     1       2.314   1.335  -0.013  0.00  0.00    +0.076 A 
ATOM      3  N   UNL     1       1.194   2.006   0.001  0.00  0.00    -0.243 NA
ATOM      4  C   UNL     1      -0.017   1.408   0.010  0.00  0.00    +0.093 A 
ATOM      5  C   UNL     1       0.002  -0.004   0.002  0.00  0.00    +0.044 A 
ATOM      6  S   UNL     1       1.742  -0.358  -0.017  0.00  0.00    -0.072 S 
ATOM      7  C   UNL     1      -1.154  -0.755   0.009  0.00  0.00    +0.063 A 
ATOM      8  C   UNL     1      -2.380  -0.159   0.024  0.00  0.00    +0.130 A 
ATOM      9  C   UNL     1      -2.486   1.263   0.033  0.00  0.00    +0.033 A 
ATOM     10  C   UNL     1      -1.297   2.002   0.031  0.00  0.00    +0.049 A 
ATOM     11  S   UNL     1      -1.845   3.690   0.039  0.00  0.00    -0.094 S 
ATOM     12  C   UNL     1      -3.605   3.405   0.054  0.00  0.00    +0.046 A 
ATOM     13  C   UNL     1      -3.702   2.067   0.048  0.00  0.00    +0.020 A 
ENDROOT
BRANCH   8  14
ATOM     14  O   UNL     1      -3.505  -0.923   0.030  0.00  0.00    -0.490 OA
BRANCH  14  15
ATOM     15  C   UNL     1      -3.326  -2.341   0.021  0.00  0.00    +0.244 C 
BRANCH  15  16
ATOM     16  C   UNL     1      -4.693  -3.027   0.029  0.00  0.00    +0.159 C 
BRANCH  16  17
ATOM     17  C   UNL     1      -4.509  -4.488   0.019  0.00  0.00    +0.066 C 
ATOM     18  N   UNL     1      -4.367  -5.615   0.011  0.00  0.00    -0.196 NA
ENDBRANCH  16  17
ENDBRANCH  15  16
ENDBRANCH  14  15
ENDBRANCH   8  14
TORSDOF 4
