REMARK  Name = ZINC16263067
REMARK  6 active torsions:
REMARK  status: ('A' for Active; 'I' for Inactive)
REMARK    1  A    between atoms: C_1  and  C_2
REMARK    2  A    between atoms: C_16  and  C_17
REMARK    3  A    between atoms: N_19  and  C_20
REMARK    4  A    between atoms: C_20  and  C_22
REMARK    5  A    between atoms: C_20  and  C_29
REMARK    6  A    between atoms: N_33  and  C_34
REMARK                            x       y       z     vdW  Elec       q    Type
REMARK                         _______ _______ _______ _____ _____    ______ ____
ROOT
ATOM      1  C   UNL     1       3.187   5.726  -6.380  0.00  0.00    +0.252 C 
ATOM      2  O   UNL     1       2.987   6.886  -6.073  0.00  0.00    -0.270 OA
ATOM      3  N   UNL     1       3.622   5.421  -7.619  0.00  0.00    -0.297 N 
ATOM      4  H   UNL     1       3.781   4.496  -7.863  0.00  0.00    +0.150 HD
ENDROOT
BRANCH   1  20
ATOM      5  C   UNL     1       2.214   6.120  -3.529  0.00  0.00    +0.046 C 
ATOM      6  C   UNL     1       2.522   4.765  -4.113  0.00  0.00    -0.017 A 
ATOM      7  C   UNL     1       2.362   3.615  -3.336  0.00  0.00    +0.076 A 
ATOM      8  C   UNL     1       2.678   2.393  -3.972  0.00  0.00    +0.116 A 
ATOM      9  N   UNL     1       2.572   1.228  -3.345  0.00  0.00    -0.226 NA
ATOM     10  C   UNL     1       2.170   1.150  -2.108  0.00  0.00    +0.114 A 
ATOM     11  N   UNL     1       1.837   2.261  -1.391  0.00  0.00    -0.296 N 
ATOM     12  C   UNL     1       1.907   3.490  -1.932  0.00  0.00    +0.263 A 
ATOM     13  O   UNL     1       1.604   4.476  -1.284  0.00  0.00    -0.267 OA
ATOM     14  C   UNL     1       1.398   2.085  -0.000  0.00  0.00    +0.126 C 
ATOM     15  C   UNL     1      -0.018   1.515   0.010  0.00  0.00    +0.022 C 
ATOM     16  C   UNL     1       0.002  -0.004   0.002  0.00  0.00    +0.002 C 
ATOM     17  C   UNL     1       0.585  -0.562  -1.284  0.00  0.00    +0.008 C 
ATOM     18  C   UNL     1       2.060  -0.195  -1.426  0.00  0.00    +0.074 C 
ATOM     19  S   UNL     1       3.171   2.898  -5.601  0.00  0.00    -0.064 S 
ATOM     20  C   UNL     1       2.955   4.659  -5.401  0.00  0.00    +0.079 A 
ENDBRANCH   1  20
BRANCH   3  21
ATOM     21  C   UNL     1       3.853   6.487  -8.597  0.00  0.00    +0.170 C 
BRANCH  21  22
ATOM     22  C   UNL     1       3.726   5.928  -9.990  0.00  0.00    -0.020 A 
ATOM     23  C   UNL     1       4.243   4.680 -10.283  0.00  0.00    +0.007 A 
ATOM     24  C   UNL     1       4.122   4.163 -11.559  0.00  0.00    +0.020 A 
ATOM     25  C   UNL     1       3.492   4.901 -12.547  0.00  0.00    +0.041 A 
ATOM     26  C   UNL     1       2.980   6.152 -12.254  0.00  0.00    +0.020 A 
ATOM     27  C   UNL     1       3.097   6.665 -10.976  0.00  0.00    +0.007 A 
ATOM     28 CL   UNL     1       3.346   4.256 -14.152  0.00  0.00    -0.084 Cl
ENDBRANCH  21  22
BRANCH  21  29
ATOM     29  C   UNL     1       5.238   7.051  -8.406  0.00  0.00    +0.134 A 
ATOM     30  N   UNL     1       6.326   6.353  -8.231  0.00  0.00    -0.238 NA
ATOM     31  C   UNL     1       7.369   7.186  -8.097  0.00  0.00    +0.130 A 
ATOM     32  C   UNL     1       6.910   8.448  -8.193  0.00  0.00    +0.106 A 
ATOM     33  N   UNL     1       5.559   8.363  -8.395  0.00  0.00    -0.336 N 
ATOM     34  C   UNL     1       4.633   9.486  -8.563  0.00  0.00    +0.150 C 
ENDBRANCH  21  29
ENDBRANCH   3  21
TORSDOF 4
