REMARK  Name = ZINC54794453
REMARK  4 active torsions:
REMARK  status: ('A' for Active; 'I' for Inactive)
REMARK    1  A    between atoms: C_1  and  C_2
REMARK    2  A    between atoms: C_3  and  C_8
REMARK    3  A    between atoms: C_8  and  N_9
REMARK    4  A    between atoms: N_9  and  C_10
REMARK                            x       y       z     vdW  Elec       q    Type
REMARK                         _______ _______ _______ _____ _____    ______ ____
ROOT
ATOM      1  N   UNL     1       1.347   0.066  -2.926  0.00  0.00    -0.337 N 
ATOM      2  H   UNL     1       1.358   0.738  -2.227  0.00  0.00    +0.147 HD
ENDROOT
BRANCH   1   3
ATOM      3  C   UNL     1       1.606   0.431  -4.251  0.00  0.00    +0.056 A 
ATOM      4  C   UNL     1       0.564   0.826  -5.081  0.00  0.00    +0.041 A 
ATOM      5  C   UNL     1       0.824   1.187  -6.390  0.00  0.00    +0.032 A 
ATOM      6  C   UNL     1       2.120   1.153  -6.874  0.00  0.00    +0.020 A 
ATOM      7  C   UNL     1       3.159   0.760  -6.050  0.00  0.00    +0.032 A 
ATOM      8  C   UNL     1       2.907   0.404  -4.738  0.00  0.00    +0.041 A 
ATOM      9 BR   UNL     1       4.329  -0.126  -3.611  0.00  0.00    -0.048 Br
ATOM     10 BR   UNL     1       2.471   1.647  -8.665  0.00  0.00    -0.050 Br
ATOM     11 BR   UNL     1      -1.207   0.871  -4.421  0.00  0.00    -0.048 Br
ENDBRANCH   1   3
BRANCH   1  12
ATOM     12  C   UNL     1       1.058  -1.331  -2.594  0.00  0.00    +0.156 C 
BRANCH  12  15
ATOM     13  C   UNL     1      -1.418  -0.613  -0.817  0.00  0.00    +0.065 C 
ATOM     14  C   UNL     1      -0.106  -1.175  -0.331  0.00  0.00    +0.035 A 
ATOM     15  C   UNL     1       0.957  -1.482  -1.098  0.00  0.00    +0.053 A 
ATOM     16  N   UNL     1       1.927  -1.957  -0.259  0.00  0.00    -0.348 N 
ATOM     17  H   UNL     1       2.812  -2.261  -0.515  0.00  0.00    +0.166 HD
ATOM     18  C   UNL     1       1.424  -1.924   0.994  0.00  0.00    +0.171 A 
ATOM     19  N   UNL     1       0.209  -1.450   0.944  0.00  0.00    -0.350 N 
ATOM     20  H   UNL     1      -0.375  -1.320   1.707  0.00  0.00    +0.166 HD
ENDBRANCH  12  15
ENDBRANCH   1  12
TORSDOF 3
