REMARK  Name = ZINC42100473
REMARK  2 active torsions:
REMARK  status: ('A' for Active; 'I' for Inactive)
REMARK    1  A    between atoms: C_2  and  C_3
REMARK    2  A    between atoms: C_3  and  N_4
REMARK                            x       y       z     vdW  Elec       q    Type
REMARK                         _______ _______ _______ _____ _____    ______ ____
ROOT
ATOM      1  N   UNL     1      -1.318  -1.700  -1.126  0.00  0.00    -0.259 N 
ATOM      2  C   UNL     1      -1.815  -1.379  -2.388  0.00  0.00    +0.062 A 
ATOM      3  C   UNL     1      -1.689  -2.489  -3.240  0.00  0.00    +0.049 A 
ATOM      4  C   UNL     1      -2.120  -2.413  -4.564  0.00  0.00    +0.014 A 
ATOM      5  C   UNL     1      -2.673  -1.240  -5.037  0.00  0.00    +0.002 A 
ATOM      6  C   UNL     1      -2.799  -0.144  -4.199  0.00  0.00    +0.017 A 
ATOM      7  C   UNL     1      -2.375  -0.209  -2.884  0.00  0.00    +0.040 A 
ATOM      8 BR   UNL     1      -2.558   1.300  -1.759  0.00  0.00    -0.048 Br
ATOM      9  C   UNL     1      -1.070  -3.564  -2.442  0.00  0.00    +0.250 C 
ATOM     10  O   UNL     1      -0.789  -4.687  -2.806  0.00  0.00    -0.282 OA
ATOM     11  C   UNL     1      -0.859  -2.962  -1.085  0.00  0.00    +0.292 C 
ATOM     12  O   UNL     1      -0.365  -3.515  -0.124  0.00  0.00    -0.266 OA
ENDROOT
BRANCH   1  13
ATOM     13  C   UNL     1      -1.293  -0.775   0.010  0.00  0.00    +0.141 C 
BRANCH  13  15
ATOM     14  C   UNL     1      -0.016   1.306   0.009  0.00  0.00    +0.005 C 
ATOM     15  C   UNL     1       0.002  -0.004   0.002  0.00  0.00    -0.015 C 
ENDBRANCH  13  15
ENDBRANCH   1  13
TORSDOF 2
