REMARK  Name = ZINC20707005
REMARK  8 active torsions:
REMARK  status: ('A' for Active; 'I' for Inactive)
REMARK    1  A    between atoms: C_1  and  C_2
REMARK    2  A    between atoms: C_2  and  O_3
REMARK    3  A    between atoms: O_3  and  C_4
REMARK    4  A    between atoms: C_7  and  N_10
REMARK    5  A    between atoms: N_10  and  S_11
REMARK    6  A    between atoms: S_11  and  C_14
REMARK    7  A    between atoms: C_27  and  C_30
REMARK    8  A    between atoms: C_35  and  O_36
REMARK                            x       y       z     vdW  Elec       q    Type
REMARK                         _______ _______ _______ _____ _____    ______ ____
ROOT
ATOM      1  C   UNL     1       1.000   0.443   0.057  0.00  0.00    +0.109 A 
ATOM      2  C   UNL     1      -0.165  -0.273  -0.149  0.00  0.00    +0.030 A 
ATOM      3  C   UNL     1      -0.145  -1.650  -0.067  0.00  0.00    +0.025 A 
ATOM      4  C   UNL     1       1.042  -2.313   0.221  0.00  0.00    +0.031 A 
ATOM      5  C   UNL     1       2.213  -1.599   0.426  0.00  0.00    -0.018 A 
ATOM      6  C   UNL     1       2.180  -0.214   0.338  0.00  0.00    +0.034 A 
ATOM      7  C   UNL     1       3.515  -2.268   0.733  0.00  0.00    +0.049 C 
ATOM      8  C   UNL     1       3.883  -2.118   2.189  0.00  0.00    -0.023 C 
ATOM      9  C   UNL     1       4.473  -3.206   2.623  0.00  0.00    -0.030 C 
ATOM     10  C   UNL     1       4.584  -4.229   1.510  0.00  0.00    +0.033 C 
ATOM     11  C   UNL     1       3.475  -3.793   0.507  0.00  0.00    +0.029 C 
ATOM     12  C   UNL     1       2.148  -4.361   1.019  0.00  0.00    +0.108 C 
ATOM     13  N   UNL     1       1.046  -3.709   0.305  0.00  0.00    -0.336 N 
ATOM     14  H   UNL     1       0.248  -4.316  -0.147  0.00  0.00    +0.147 HD
ENDROOT
BRANCH  12  15
ATOM     15  C   UNL     1       2.021  -4.095   2.496  0.00  0.00    +0.014 A 
ATOM     16  C   UNL     1       1.555  -2.873   2.941  0.00  0.00    +0.009 A 
ATOM     17  C   UNL     1       1.438  -2.628   4.296  0.00  0.00    +0.001 A 
ATOM     18  C   UNL     1       1.787  -3.605   5.211  0.00  0.00    +0.004 A 
ATOM     19  C   UNL     1       2.254  -4.828   4.771  0.00  0.00    +0.046 A 
ATOM     20  C   UNL     1       2.367  -5.079   3.411  0.00  0.00    +0.122 A 
BRANCH  20  21
ATOM     21  O   UNL     1       2.821  -6.284   2.976  0.00  0.00    -0.506 OA
ATOM     22  H   UNL     1       3.095  -7.063   3.703  0.00  0.00    +0.292 HD
ENDBRANCH  20  21
ENDBRANCH  12  15
BRANCH   1  23
ATOM     23  S   UNL     1       0.979   2.202  -0.046  0.00  0.00    +0.072 S 
ATOM     24  O   UNL     1       2.322   2.613  -0.260  0.00  0.00    -0.150 OA
ATOM     25  O   UNL     1      -0.074   2.544  -0.937  0.00  0.00    -0.150 OA
BRANCH  23  26
ATOM     26  N   UNL     1       0.541   2.775   1.445  0.00  0.00    -0.216 N 
ATOM     27  H   UNL     1       1.244   3.390   2.026  0.00  0.00    +0.174 HD
BRANCH  26  31
ATOM     28  C   UNL     1      -3.223   1.883   2.998  0.00  0.00    +0.121 A 
ATOM     29  C   UNL     1      -2.097   1.764   3.799  0.00  0.00    +0.047 A 
ATOM     30  C   UNL     1      -0.849   2.060   3.285  0.00  0.00    +0.028 A 
ATOM     31  C   UNL     1      -0.723   2.475   1.966  0.00  0.00    +0.048 A 
ATOM     32  C   UNL     1      -1.851   2.598   1.167  0.00  0.00    +0.028 A 
ATOM     33  C   UNL     1      -3.097   2.297   1.680  0.00  0.00    +0.047 A 
BRANCH  28  34
ATOM     34  O   UNL     1      -4.451   1.592   3.505  0.00  0.00    -0.492 OA
BRANCH  34  36
ATOM     35  C   UNL     1      -6.853   1.367   3.366  0.00  0.00    +0.048 C 
ATOM     36  C   UNL     1      -5.567   1.736   2.624  0.00  0.00    +0.225 C 
ENDBRANCH  34  36
ENDBRANCH  28  34
ENDBRANCH  26  31
ENDBRANCH  23  26
ENDBRANCH   1  23
TORSDOF 7
