REMARK  Name = ZINC13149063
REMARK  12 active torsions:
REMARK  status: ('A' for Active; 'I' for Inactive)
REMARK    1  A    between atoms: C_1  and  C_2
REMARK    2  A    between atoms: C_5  and  N_9
REMARK    3  A    between atoms: C_6  and  C_8
REMARK    4  A    between atoms: N_9  and  S_10
REMARK    5  A    between atoms: S_10  and  C_13
REMARK    6  A    between atoms: C_16  and  N_22
REMARK    7  A    between atoms: C_17  and  N_19
REMARK    8  A    between atoms: N_22  and  N_23
REMARK    9  A    between atoms: C_24  and  C_25
REMARK   10  A    between atoms: C_24  and  C_26
REMARK   11  A    between atoms: C_29  and  C_35
REMARK   12  A    between atoms: C_30  and  N_32
REMARK                            x       y       z     vdW  Elec       q    Type
REMARK                         _______ _______ _______ _____ _____    ______ ____
ROOT
ATOM      1  C   UNL     1       3.960  -5.608  -1.226  0.00  0.00    +0.111 A 
ATOM      2  C   UNL     1       2.947  -4.683  -1.053  0.00  0.00    +0.031 A 
ATOM      3  C   UNL     1       3.237  -3.421  -0.574  0.00  0.00    +0.029 A 
ATOM      4  C   UNL     1       4.550  -3.081  -0.267  0.00  0.00    +0.079 A 
ATOM      5  C   UNL     1       5.566  -4.011  -0.448  0.00  0.00    +0.150 A 
ATOM      6  C   UNL     1       5.266  -5.274  -0.921  0.00  0.00    +0.063 A 
ENDROOT
BRANCH   1   7
ATOM      7  S   UNL     1       3.584  -7.218  -1.837  0.00  0.00    +0.072 S 
ATOM      8  O   UNL     1       4.628  -8.074  -1.394  0.00  0.00    -0.150 OA
ATOM      9  O   UNL     1       2.218  -7.460  -1.530  0.00  0.00    -0.150 OA
BRANCH   7  10
ATOM     10  N   UNL     1       3.694  -7.153  -3.488  0.00  0.00    -0.216 N 
ATOM     11  H   UNL     1       2.924  -7.372  -4.035  0.00  0.00    +0.174 HD
BRANCH  10  16
ATOM     12  C   UNL     1       8.577  -5.648  -5.949  0.00  0.00    +0.044 C 
ATOM     13  C   UNL     1       7.279  -6.047  -5.295  0.00  0.00    -0.050 A 
ATOM     14  C   UNL     1       7.295  -6.790  -4.128  0.00  0.00    +0.005 A 
ATOM     15  C   UNL     1       6.108  -7.158  -3.526  0.00  0.00    +0.025 A 
ATOM     16  C   UNL     1       4.897  -6.782  -4.094  0.00  0.00    +0.051 A 
ATOM     17  C   UNL     1       4.885  -6.040  -5.269  0.00  0.00    -0.028 A 
ATOM     18  C   UNL     1       6.076  -5.671  -5.863  0.00  0.00    +0.008 A 
ATOM     19  C   UNL     1       3.574  -5.635  -5.891  0.00  0.00    +0.046 C 
ENDBRANCH  10  16
ENDBRANCH   7  10
ENDBRANCH   1   7
BRANCH   5  20
ATOM     20  N   UNL     1       6.965  -3.652  -0.128  0.00  0.00    +0.058 N 
ATOM     21  O   UNL     1       7.838  -4.501  -0.173  0.00  0.00    -0.126 OA
ATOM     22  O   UNL     1       7.245  -2.507   0.180  0.00  0.00    -0.126 OA
ENDBRANCH   5  20
BRANCH   4  23
ATOM     23  N   UNL     1       4.847  -1.806   0.217  0.00  0.00    -0.235 N 
ATOM     24  H   UNL     1       5.770  -1.544   0.359  0.00  0.00    +0.174 HD
BRANCH  23  25
ATOM     25  N   UNL     1       3.812  -0.904   0.498  0.00  0.00    -0.187 NA
ATOM     26  C   UNL     1       4.089   0.281   0.948  0.00  0.00    +0.063 C 
ATOM     27  C   UNL     1       5.523   0.688   1.169  0.00  0.00    +0.068 C 
BRANCH  26  28
ATOM     28  C   UNL     1       2.999   1.230   1.244  0.00  0.00    -0.000 A 
ATOM     29  C   UNL     1       3.293   2.507   1.729  0.00  0.00    +0.010 A 
ATOM     30  C   UNL     1       2.269   3.389   2.004  0.00  0.00    +0.006 A 
ATOM     31  C   UNL     1       0.954   3.012   1.801  0.00  0.00    -0.020 A 
ATOM     32  C   UNL     1       0.655   1.752   1.315  0.00  0.00    +0.130 A 
ATOM     33  C   UNL     1       1.669   0.857   1.041  0.00  0.00    +0.042 A 
ATOM     34  C   UNL     1      -0.160   3.982   2.104  0.00  0.00    +0.046 C 
BRANCH  32  35
ATOM     35  N   UNL     1      -0.755   1.360   1.095  0.00  0.00    +0.057 N 
ATOM     36  O   UNL     1      -1.028   0.212   0.792  0.00  0.00    -0.126 OA
ATOM     37  O   UNL     1      -1.642   2.185   1.216  0.00  0.00    -0.126 OA
ENDBRANCH  32  35
ENDBRANCH  26  28
ENDBRANCH  23  25
ENDBRANCH   4  23
TORSDOF 8
