REMARK  Name = ZINC05008902
REMARK  6 active torsions:
REMARK  status: ('A' for Active; 'I' for Inactive)
REMARK    1  A    between atoms: C_1  and  C_2
REMARK    2  A    between atoms: C_2  and  C_3
REMARK    3  A    between atoms: C_2  and  C_4
REMARK    4  A    between atoms: C_2  and  N_35
REMARK    5  A    between atoms: C_5  and  N_35
REMARK    6  A    between atoms: N_10  and  C_13
REMARK                            x       y       z     vdW  Elec       q    Type
REMARK                         _______ _______ _______ _____ _____    ______ ____
ROOT
ATOM      1  C   UNL     1       4.938   3.872  -0.014  0.00  0.00    +0.026 C 
ATOM      2  C   UNL     1       6.107   2.979  -0.478  0.00  0.00    +0.090 C 
ATOM      3  C   UNL     1       5.630   1.578  -0.161  0.00  0.00    +0.225 C 
ATOM      4  O   UNL     1       6.256   0.560  -0.365  0.00  0.00    -0.275 OA
ATOM      5  N   UNL     1       4.406   1.641   0.379  0.00  0.00    -0.212 N 
ATOM      6  C   UNL     1       3.922   2.882   0.511  0.00  0.00    +0.213 C 
ATOM      7  O   UNL     1       2.840   3.167   0.978  0.00  0.00    -0.277 OA
ENDROOT
BRANCH   5   8
ATOM      8  C   UNL     1       3.693   0.501   0.778  0.00  0.00    +0.044 A 
ATOM      9  C   UNL     1       3.440   0.276   2.124  0.00  0.00    +0.025 A 
ATOM     10  C   UNL     1       2.737  -0.847   2.514  0.00  0.00    +0.017 A 
ATOM     11  C   UNL     1       2.286  -1.747   1.565  0.00  0.00    +0.018 A 
ATOM     12  C   UNL     1       2.538  -1.525   0.223  0.00  0.00    +0.017 A 
ATOM     13  C   UNL     1       3.240  -0.404  -0.172  0.00  0.00    +0.025 A 
ATOM     14 BR   UNL     1       1.324  -3.284   2.103  0.00  0.00    -0.050 Br
ENDBRANCH   5   8
BRANCH   1  15
ATOM     15  N   UNL     1       5.378   4.780   1.062  0.00  0.00    +0.390 N 
ATOM     16  H   UNL     1       4.991   4.457   1.957  0.00  0.00    -0.084 HD
ATOM     17  H   UNL     1       6.403   4.776   1.111  0.00  0.00    -0.084 HD
BRANCH  15  19
ATOM     18  C   UNL     1       3.386   6.158   0.652  0.00  0.00    -0.011 C 
ATOM     19  C   UNL     1       4.909   6.153   0.797  0.00  0.00    -0.076 C 
ATOM     20  C   UNL     1       5.313   7.056   1.964  0.00  0.00    -0.011 C 
ATOM     21  C   UNL     1       5.545   6.673  -0.494  0.00  0.00    -0.011 C 
ENDBRANCH  15  19
ENDBRANCH   1  15
TORSDOF 3
