REMARK  Name = ZINC36969580
REMARK  6 active torsions:
REMARK  status: ('A' for Active; 'I' for Inactive)
REMARK    1  A    between atoms: C_1  and  C_2
REMARK    2  A    between atoms: C_4  and  C_7
REMARK    3  A    between atoms: C_7  and  C_9
REMARK    4  A    between atoms: C_7  and  N_10
REMARK    5  A    between atoms: N_10  and  C_11
REMARK    6  A    between atoms: C_20  and  C_23
REMARK                            x       y       z     vdW  Elec       q    Type
REMARK                         _______ _______ _______ _____ _____    ______ ____
ROOT
ATOM      1  C   UNL     1      -4.188  -3.195  -1.168  0.00  0.00    +0.030 A 
ATOM      2  C   UNL     1      -4.085  -4.580  -1.201  0.00  0.00    +0.026 A 
ATOM      3  C   UNL     1      -5.085  -5.338  -1.780  0.00  0.00    +0.049 A 
ATOM      4  C   UNL     1      -6.193  -4.716  -2.329  0.00  0.00    +0.143 A 
ATOM      5  C   UNL     1      -6.300  -3.327  -2.299  0.00  0.00    +0.077 A 
ATOM      6  C   UNL     1      -5.301  -2.568  -1.713  0.00  0.00    +0.050 A 
ATOM      7  N   UNL     1      -7.428  -2.713  -2.862  0.00  0.00    -0.279 N 
ATOM      8  C   UNL     1      -8.517  -3.465  -3.131  0.00  0.00    +0.258 C 
ATOM      9  O   UNL     1      -9.492  -2.961  -3.646  0.00  0.00    -0.271 OA
ATOM     10  C   UNL     1      -8.514  -4.933  -2.790  0.00  0.00    +0.256 C 
ATOM     11  O   UNL     1      -7.186  -5.451  -2.902  0.00  0.00    -0.478 OA
ATOM     12  C   UNL     1      -9.435  -5.682  -3.755  0.00  0.00    +0.062 C 
ATOM     13  H   UNL     1      -7.426  -1.762  -3.054  0.00  0.00    +0.155 HD
ENDROOT
BRANCH   1  14
ATOM     14  N   UNL     1      -3.173  -2.432  -0.581  0.00  0.00    -0.336 N 
ATOM     15  H   UNL     1      -3.246  -1.465  -0.554  0.00  0.00    +0.147 HD
BRANCH  14  16
ATOM     16  C   UNL     1      -1.999  -3.093  -0.006  0.00  0.00    +0.117 C 
ATOM     17  C   UNL     1      -2.307  -3.521   1.431  0.00  0.00    +0.034 C 
BRANCH  16  21
ATOM     18  C   UNL     1      -0.018   1.503   0.010  0.00  0.00    +0.073 C 
ATOM     19  C   UNL     1       0.002  -0.004   0.002  0.00  0.00    +0.076 A 
ATOM     20  N   UNL     1      -1.013  -0.832   0.002  0.00  0.00    -0.247 NA
ATOM     21  C   UNL     1      -0.834  -2.137  -0.006  0.00  0.00    +0.069 A 
ATOM     22  C   UNL     1       0.449  -2.582  -0.014  0.00  0.00    +0.072 A 
ATOM     23  S   UNL     1       1.335  -1.032  -0.017  0.00  0.00    -0.080 S 
ENDBRANCH  16  21
ENDBRANCH  14  16
ENDBRANCH   1  14
TORSDOF 3
