REMARK  Name = ZINC23326603
REMARK  10 active torsions:
REMARK  status: ('A' for Active; 'I' for Inactive)
REMARK    1  A    between atoms: C_1  and  C_2
REMARK    2  A    between atoms: C_2  and  C_3
REMARK    3  A    between atoms: C_3  and  C_4
REMARK    4  A    between atoms: C_4  and  N_5
REMARK    5  A    between atoms: C_9  and  C_34
REMARK    6  A    between atoms: C_10  and  C_33
REMARK    7  A    between atoms: C_14  and  S_15
REMARK    8  A    between atoms: S_15  and  C_16
REMARK    9  A    between atoms: C_16  and  C_17
REMARK   10  A    between atoms: C_23  and  C_28
REMARK                            x       y       z     vdW  Elec       q    Type
REMARK                         _______ _______ _______ _____ _____    ______ ____
ROOT
ATOM      1  S   UNL     1       3.662  -2.397  -0.946  0.00  0.00    -0.080 S 
ENDROOT
BRANCH   1  11
ATOM      2  N   UNL     1       1.425  -2.500  -2.470  0.00  0.00    -0.287 N 
ATOM      3  C   UNL     1       0.714  -2.718  -3.592  0.00  0.00    +0.263 A 
ATOM      4  O   UNL     1      -0.490  -2.525  -3.607  0.00  0.00    -0.267 OA
ATOM      5  C   UNL     1       1.388  -3.179  -4.766  0.00  0.00    +0.075 A 
ATOM      6  C   UNL     1       0.846  -3.482  -6.079  0.00  0.00    -0.026 A 
ATOM      7  C   UNL     1       1.671  -3.906  -7.047  0.00  0.00    -0.008 A 
ATOM      8  S   UNL     1       3.266  -3.930  -6.250  0.00  0.00    -0.073 S 
ATOM      9  C   UNL     1       2.777  -3.369  -4.639  0.00  0.00    +0.117 A 
ATOM     10  N   UNL     1       3.420  -3.135  -3.502  0.00  0.00    -0.216 NA
ATOM     11  C   UNL     1       2.774  -2.705  -2.437  0.00  0.00    +0.173 A 
ATOM     12  C   UNL     1       1.332  -4.275  -8.468  0.00  0.00    +0.052 C 
ATOM     13  C   UNL     1      -0.628  -3.322  -6.350  0.00  0.00    +0.045 C 
BRANCH   2  14
ATOM     14  C   UNL     1       0.739  -2.027  -1.265  0.00  0.00    +0.127 C 
BRANCH  14  15
ATOM     15  C   UNL     1       0.718  -0.497  -1.257  0.00  0.00    +0.021 C 
BRANCH  15  17
ATOM     16  C   UNL     1      -0.019   1.526   0.010  0.00  0.00    +0.004 C 
ATOM     17  C   UNL     1       0.002  -0.004   0.002  0.00  0.00    -0.002 C 
ENDBRANCH  15  17
ENDBRANCH  14  15
ENDBRANCH   2  14
ENDBRANCH   1  11
BRANCH   1  18
ATOM     18  C   UNL     1       5.380  -2.799  -1.369  0.00  0.00    +0.151 C 
BRANCH  18  19
ATOM     19  C   UNL     1       6.259  -2.576  -0.165  0.00  0.00    +0.121 A 
ATOM     20  N   UNL     1       7.593  -2.812  -0.260  0.00  0.00    -0.310 N 
ATOM     21  H   UNL     1       7.962  -3.121  -1.102  0.00  0.00    +0.170 HD
ATOM     22  C   UNL     1       8.412  -2.625   0.792  0.00  0.00    +0.260 A 
ATOM     23  O   UNL     1       9.607  -2.840   0.690  0.00  0.00    -0.267 OA
ATOM     24  C   UNL     1       7.858  -2.169   2.030  0.00  0.00    +0.083 A 
ATOM     25  C   UNL     1       8.530  -1.895   3.296  0.00  0.00    +0.039 A 
ATOM     26  C   UNL     1       7.787  -1.465   4.347  0.00  0.00    +0.059 A 
ATOM     27  S   UNL     1       6.133  -1.406   3.687  0.00  0.00    -0.076 S 
ATOM     28  C   UNL     1       6.471  -1.953   2.033  0.00  0.00    +0.116 A 
ATOM     29  N   UNL     1       5.725  -2.155   0.950  0.00  0.00    -0.226 NA
BRANCH  25  30
ATOM     30  C   UNL     1       9.989  -2.081   3.430  0.00  0.00    +0.136 A 
ATOM     31  C   UNL     1      10.865  -1.177   3.944  0.00  0.00    +0.050 A 
ATOM     32  C   UNL     1      12.144  -1.768   3.880  0.00  0.00    +0.042 A 
ATOM     33  C   UNL     1      11.986  -2.990   3.335  0.00  0.00    +0.196 A 
ATOM     34  O   UNL     1      10.682  -3.179   3.070  0.00  0.00    -0.463 OA
ENDBRANCH  25  30
ENDBRANCH  18  19
ENDBRANCH   1  18
TORSDOF 7
