REMARK  Name = ZINC15981173
REMARK  10 active torsions:
REMARK  status: ('A' for Active; 'I' for Inactive)
REMARK    1  A    between atoms: C_1  and  C_2
REMARK    2  A    between atoms: C_5  and  N_9
REMARK    3  A    between atoms: C_6  and  C_8
REMARK    4  A    between atoms: C_10  and  C_12
REMARK    5  A    between atoms: C_12  and  C_13
REMARK    6  A    between atoms: N_17  and  C_31
REMARK    7  A    between atoms: N_19  and  C_20
REMARK    8  A    between atoms: C_23  and  S_26
REMARK    9  A    between atoms: S_26  and  C_27
REMARK   10  A    between atoms: C_31  and  C_32
REMARK                            x       y       z     vdW  Elec       q    Type
REMARK                         _______ _______ _______ _____ _____    ______ ____
ROOT
ATOM      1  C   UNL     1       0.017  -0.005  -0.006  0.00  0.00    +0.149 C 
ATOM      2  C   UNL     1       0.006   1.515  -0.003  0.00  0.00    +0.235 C 
ATOM      3  O   UNL     1      -1.025   2.152   0.001  0.00  0.00    -0.274 OA
ATOM      4  N   UNL     1       1.192   2.099  -0.011  0.00  0.00    -0.247 N 
ATOM      5  C   UNL     1       2.369   1.379  -0.021  0.00  0.00    +0.164 C 
ATOM      6  N   UNL     1       3.599   1.836  -0.030  0.00  0.00    -0.226 NA
ATOM      7  S   UNL     1       1.825  -0.323  -0.020  0.00  0.00    -0.077 S 
ENDROOT
BRANCH   6   8
ATOM      8  C   UNL     1       4.655   0.962  -0.040  0.00  0.00    +0.067 A 
ATOM      9  C   UNL     1       4.659  -0.141   0.817  0.00  0.00    +0.029 A 
ATOM     10  C   UNL     1       5.720  -1.021   0.800  0.00  0.00    +0.017 A 
ATOM     11  C   UNL     1       6.791  -0.805  -0.059  0.00  0.00    +0.013 A 
ATOM     12  C   UNL     1       6.793   0.296  -0.909  0.00  0.00    +0.017 A 
ATOM     13  C   UNL     1       5.732   1.176  -0.902  0.00  0.00    +0.029 A 
BRANCH  11  14
ATOM     14  S   UNL     1       8.149  -1.928  -0.072  0.00  0.00    -0.056 S 
BRANCH  14  15
ATOM     15  C   UNL     1       7.703  -3.169   1.174  0.00  0.00    +0.404 C 
ATOM     16  F   UNL     1       7.545  -2.546   2.417  0.00  0.00    -0.197 F 
ATOM     17  F   UNL     1       6.503  -3.788   0.807  0.00  0.00    -0.197 F 
ENDBRANCH  14  15
ENDBRANCH  11  14
ENDBRANCH   6   8
BRANCH   1  18
ATOM     18  C   UNL     1      -0.655  -0.561  -1.263  0.00  0.00    +0.120 C 
BRANCH  18  20
ATOM     19  N   UNL     1      -1.289  -2.774  -2.168  0.00  0.00    -0.285 N 
ATOM     20  C   UNL     1      -0.733  -2.063  -1.168  0.00  0.00    +0.219 C 
ATOM     21  O   UNL     1      -0.294  -2.632  -0.191  0.00  0.00    -0.275 OA
ATOM     22  H   UNL     1      -1.711  -2.316  -2.912  0.00  0.00    +0.155 HD
BRANCH  19  27
ATOM     23  C   UNL     1      -1.164  -8.444  -2.032  0.00  0.00    +0.044 C 
ATOM     24  C   UNL     1      -1.198  -6.938  -2.068  0.00  0.00    -0.050 A 
ATOM     25  C   UNL     1      -0.245  -6.210  -1.379  0.00  0.00    +0.005 A 
ATOM     26  C   UNL     1      -0.269  -4.830  -1.415  0.00  0.00    +0.024 A 
ATOM     27  C   UNL     1      -1.259  -4.173  -2.135  0.00  0.00    +0.036 A 
ATOM     28  C   UNL     1      -2.214  -4.906  -2.825  0.00  0.00    -0.029 A 
ATOM     29  C   UNL     1      -2.181  -6.287  -2.790  0.00  0.00    +0.008 A 
ATOM     30  C   UNL     1      -3.285  -4.197  -3.613  0.00  0.00    +0.045 C 
ENDBRANCH  19  27
ENDBRANCH  18  20
ENDBRANCH   1  18
BRANCH   4  31
ATOM     31  C   UNL     1       1.260   3.563  -0.009  0.00  0.00    +0.147 C 
BRANCH  31  32
ATOM     32  C   UNL     1       1.294   4.070   1.434  0.00  0.00    +0.136 C 
ATOM     33  C   UNL     1       1.278   5.614   1.461  0.00  0.00    +0.035 C 
ATOM     34  C   UNL     1       2.212   5.979   2.636  0.00  0.00    +0.031 C 
ATOM     35  C   UNL     1       2.683   4.611   3.180  0.00  0.00    +0.160 C 
ATOM     36  O   UNL     1       2.538   3.700   2.067  0.00  0.00    -0.375 OA
ENDBRANCH  31  32
ENDBRANCH   4  31
TORSDOF 8
