REMARK  Name = ZINC38701332
REMARK  14 active torsions:
REMARK  status: ('A' for Active; 'I' for Inactive)
REMARK    1  A    between atoms: C_1  and  C_2
REMARK    2  A    between atoms: C_2  and  C_3
REMARK    3  A    between atoms: C_3  and  C_4
REMARK    4  A    between atoms: C_4  and  C_5
REMARK    5  A    between atoms: C_5  and  O_6
REMARK    6  A    between atoms: O_6  and  C_7
REMARK    7  A    between atoms: C_10  and  C_13
REMARK    8  A    between atoms: C_18  and  O_27
REMARK    9  A    between atoms: C_22  and  N_26
REMARK   10  A    between atoms: C_23  and  C_24
REMARK   11  A    between atoms: O_27  and  C_28
REMARK   12  A    between atoms: C_28  and  C_30
REMARK   13  A    between atoms: C_33  and  O_37
REMARK   14  A    between atoms: O_37  and  C_38
REMARK                            x       y       z     vdW  Elec       q    Type
REMARK                         _______ _______ _______ _____ _____    ______ ____
ROOT
ATOM      1  C   UNL     1       4.113  -6.568   6.729  0.00  0.00    +0.098 C 
ATOM      2  C   UNL     1       3.125  -7.432   7.466  0.00  0.00    +0.008 A 
ATOM      3  C   UNL     1       2.267  -6.853   8.384  0.00  0.00    +0.012 A 
ATOM      4  C   UNL     1       1.355  -7.630   9.070  0.00  0.00    +0.047 A 
ATOM      5  C   UNL     1       1.295  -8.997   8.839  0.00  0.00    +0.135 A 
ATOM      6  C   UNL     1       2.151  -9.580   7.919  0.00  0.00    +0.093 A 
ATOM      7  C   UNL     1       3.069  -8.797   7.231  0.00  0.00    +0.138 A 
ATOM      8  O   UNL     1       3.901  -9.383   6.335  0.00  0.00    -0.441 OA
ATOM      9  C   UNL     1       5.025  -8.753   5.952  0.00  0.00    +0.199 C 
ATOM     10  C   UNL     1       5.186  -7.422   6.112  0.00  0.00    +0.098 C 
ENDROOT
BRANCH   1  14
ATOM     11  C   UNL     1       2.084  -4.402   3.654  0.00  0.00    +0.121 A 
ATOM     12  C   UNL     1       2.745  -3.719   4.664  0.00  0.00    +0.046 A 
ATOM     13  C   UNL     1       3.400  -4.422   5.657  0.00  0.00    +0.008 A 
ATOM     14  C   UNL     1       3.398  -5.804   5.644  0.00  0.00    -0.034 A 
ATOM     15  C   UNL     1       2.740  -6.487   4.638  0.00  0.00    +0.008 A 
ATOM     16  C   UNL     1       2.079  -5.790   3.646  0.00  0.00    +0.046 A 
BRANCH  11  17
ATOM     17  O   UNL     1       1.439  -3.713   2.676  0.00  0.00    -0.492 OA
BRANCH  17  18
ATOM     18  C   UNL     1       1.487  -2.287   2.747  0.00  0.00    +0.229 C 
BRANCH  18  19
ATOM     19  C   UNL     1       0.711  -1.691   1.571  0.00  0.00    +0.041 C 
BRANCH  19  20
ATOM     20  C   UNL     1       0.762  -0.164   1.648  0.00  0.00    +0.003 C 
BRANCH  20  22
ATOM     21  C   UNL     1       0.038   1.959   0.548  0.00  0.00    +0.004 C 
ATOM     22  C   UNL     1      -0.014   0.432   0.472  0.00  0.00    -0.003 C 
ENDBRANCH  20  22
ENDBRANCH  19  20
ENDBRANCH  18  19
ENDBRANCH  17  18
ENDBRANCH  11  17
ENDBRANCH   1  14
BRANCH   9  23
ATOM     23  N   UNL     1       6.038  -9.485   5.384  0.00  0.00    -0.328 N 
ATOM     24  H   UNL     1       5.936 -10.442   5.263  0.00  0.00    +0.145 HD
ATOM     25  H   UNL     1       6.855  -9.044   5.102  0.00  0.00    +0.145 HD
ENDBRANCH   9  23
BRANCH  10  26
ATOM     26  C   UNL     1       6.408  -6.811   5.682  0.00  0.00    +0.101 C 
ATOM     27  N   UNL     1       7.377  -6.327   5.341  0.00  0.00    -0.191 NA
ENDBRANCH  10  26
BRANCH   5  28
ATOM     28  O   UNL     1       0.397  -9.763   9.513  0.00  0.00    -0.422 OA
BRANCH  28  29
ATOM     29  C   UNL     1       0.868 -10.630  10.431  0.00  0.00    +0.344 C 
ATOM     30  O   UNL     1       2.050 -10.637  10.710  0.00  0.00    -0.245 OA
BRANCH  29  31
ATOM     31  C   UNL     1      -0.052 -11.571  11.096  0.00  0.00    +0.061 A 
ATOM     32  C   UNL     1      -1.412 -11.569  10.773  0.00  0.00    +0.018 A 
ATOM     33  C   UNL     1      -2.268 -12.449  11.396  0.00  0.00    +0.048 A 
ATOM     34  C   UNL     1      -1.782 -13.339  12.346  0.00  0.00    +0.138 A 
ATOM     35  C   UNL     1      -0.429 -13.345  12.671  0.00  0.00    +0.083 A 
ATOM     36  C   UNL     1       0.434 -12.471  12.049  0.00  0.00    +0.038 A 
ATOM     37 CL   UNL     1       0.172 -14.460  13.859  0.00  0.00    -0.080 Cl
BRANCH  34  38
ATOM     38  O   UNL     1      -2.629 -14.205  12.958  0.00  0.00    -0.494 OA
ATOM     39  C   UNL     1      -4.005 -14.145  12.577  0.00  0.00    +0.277 C 
ENDBRANCH  34  38
ENDBRANCH  29  31
ENDBRANCH  28  29
ENDBRANCH   5  28
TORSDOF 12
