REMARK  Name = ZINC15317267
REMARK  6 active torsions:
REMARK  status: ('A' for Active; 'I' for Inactive)
REMARK    1  A    between atoms: C_3  and  N_30
REMARK    2  A    between atoms: C_4  and  N_16
REMARK    3  A    between atoms: C_6  and  S_7
REMARK    4  A    between atoms: S_7  and  N_10
REMARK    5  A    between atoms: C_17  and  C_19
REMARK    6  A    between atoms: C_19  and  C_20
REMARK                            x       y       z     vdW  Elec       q    Type
REMARK                         _______ _______ _______ _____ _____    ______ ____
ROOT
ATOM      1  C   UNL     1      -0.648   8.670   1.905  0.00  0.00    +0.030 A 
ATOM      2  C   UNL     1       0.173   8.414   2.987  0.00  0.00    +0.027 A 
ATOM      3  C   UNL     1       0.802   7.183   3.103  0.00  0.00    +0.051 A 
ATOM      4  C   UNL     1       0.605   6.208   2.126  0.00  0.00    +0.057 A 
ATOM      5  C   UNL     1      -0.215   6.477   1.041  0.00  0.00    +0.053 A 
ATOM      6  C   UNL     1      -0.844   7.704   0.936  0.00  0.00    +0.107 A 
ENDROOT
BRANCH   3   7
ATOM      7  N   UNL     1       1.634   6.921   4.198  0.00  0.00    -0.328 N 
ATOM      8  C   UNL     1       1.563   8.020   5.195  0.00  0.00    +0.105 C 
ATOM      9  C   UNL     1       2.078   7.352   6.495  0.00  0.00    +0.020 C 
ATOM     10  C   UNL     1       1.490   5.925   6.407  0.00  0.00    +0.020 C 
ATOM     11  C   UNL     1       1.201   5.700   4.911  0.00  0.00    +0.105 C 
ENDBRANCH   3   7
BRANCH   4  12
ATOM     12  N   UNL     1       1.238   4.963   2.237  0.00  0.00    -0.284 N 
ATOM     13  C   UNL     1       0.710   3.882   1.631  0.00  0.00    +0.218 C 
ATOM     14  O   UNL     1      -0.365   3.963   1.074  0.00  0.00    -0.275 OA
ATOM     15  H   UNL     1       2.057   4.879   2.750  0.00  0.00    +0.155 HD
BRANCH  13  16
ATOM     16  C   UNL     1       1.454   2.571   1.644  0.00  0.00    +0.100 C 
BRANCH  16  17
ATOM     17  C   UNL     1       0.641   1.516   0.892  0.00  0.00    +0.001 C 
ATOM     18  C   UNL     1      -0.668   1.201   1.651  0.00  0.00    +0.007 C 
ATOM     19  C   UNL     1      -0.566  -0.315   2.003  0.00  0.00    -0.010 C 
ATOM     20  C   UNL     1      -0.719  -1.044   0.633  0.00  0.00    +0.004 C 
ATOM     21  C   UNL     1       0.590  -0.730  -0.126  0.00  0.00    +0.004 C 
ATOM     22  C   UNL     1       1.411   0.160   0.856  0.00  0.00    -0.007 C 
ATOM     23  C   UNL     1       0.981  -0.455   2.235  0.00  0.00    +0.007 C 
ENDBRANCH  16  17
ENDBRANCH  13  16
ENDBRANCH   4  12
BRANCH   6  24
ATOM     24  S   UNL     1      -1.891   8.039  -0.441  0.00  0.00    +0.061 S 
ATOM     25  O   UNL     1      -2.343   6.782  -0.924  0.00  0.00    -0.153 OA
ATOM     26  O   UNL     1      -2.787   9.063  -0.029  0.00  0.00    -0.153 OA
BRANCH  24  27
ATOM     27  N   UNL     1      -0.942   8.691  -1.631  0.00  0.00    -0.172 NA
ATOM     28  C   UNL     1      -0.738  10.145  -1.726  0.00  0.00    +0.137 C 
ATOM     29  C   UNL     1       0.773  10.411  -1.825  0.00  0.00    +0.177 C 
ATOM     30  O   UNL     1       1.319   9.623  -2.886  0.00  0.00    -0.377 OA
ATOM     31  C   UNL     1       1.201   8.212  -2.687  0.00  0.00    +0.177 C 
ATOM     32  C   UNL     1      -0.283   7.833  -2.628  0.00  0.00    +0.137 C 
ENDBRANCH  24  27
ENDBRANCH   6  24
TORSDOF 6
