REMARK  Name = ZINC08774203
REMARK  14 active torsions:
REMARK  status: ('A' for Active; 'I' for Inactive)
REMARK    1  A    between atoms: C_1  and  C_2
REMARK    2  A    between atoms: C_2  and  O_3
REMARK    3  A    between atoms: O_3  and  C_4
REMARK    4  A    between atoms: C_4  and  C_6
REMARK    5  A    between atoms: C_7  and  C_22
REMARK    6  A    between atoms: C_12  and  C_14
REMARK    7  A    between atoms: C_17  and  O_20
REMARK    8  A    between atoms: O_20  and  C_21
REMARK    9  A    between atoms: C_22  and  O_23
REMARK   10  A    between atoms: O_23  and  C_24
REMARK   11  A    between atoms: C_24  and  C_26
REMARK   12  A    between atoms: C_26  and  N_34
REMARK   13  A    between atoms: C_27  and  C_28
REMARK   14  A    between atoms: C_35  and  C_37
REMARK                            x       y       z     vdW  Elec       q    Type
REMARK                         _______ _______ _______ _____ _____    ______ ____
ROOT
ATOM      1  C   UNL     1       2.692   2.237  -2.473  0.00  0.00    +0.081 C 
ATOM      2  C   UNL     1       3.988   2.588  -2.619  0.00  0.00    +0.061 C 
ATOM      3  N   UNL     1       4.653   3.255  -1.631  0.00  0.00    -0.269 N 
ATOM      4  C   UNL     1       4.094   3.607  -0.466  0.00  0.00    +0.304 C 
ATOM      5  O   UNL     1       4.767   4.200   0.354  0.00  0.00    -0.252 OA
ATOM      6  N   UNL     1       2.808   3.326  -0.174  0.00  0.00    -0.288 N 
ATOM      7  C   UNL     1       2.003   2.608  -1.176  0.00  0.00    +0.144 C 
ATOM      8  H   UNL     1       5.583   3.486  -1.780  0.00  0.00    +0.156 HD
ATOM      9  H   UNL     1       2.423   3.591   0.676  0.00  0.00    +0.151 HD
ENDROOT
BRANCH   7  10
ATOM     10  C   UNL     1       0.809   3.464  -1.513  0.00  0.00    -0.022 A 
ATOM     11  C   UNL     1      -0.455   2.904  -1.544  0.00  0.00    +0.009 A 
ATOM     12  C   UNL     1      -1.550   3.685  -1.858  0.00  0.00    +0.046 A 
ATOM     13  C   UNL     1      -1.383   5.035  -2.131  0.00  0.00    +0.120 A 
ATOM     14  C   UNL     1      -0.114   5.595  -2.098  0.00  0.00    +0.046 A 
ATOM     15  C   UNL     1       0.979   4.808  -1.789  0.00  0.00    +0.009 A 
BRANCH  13  16
ATOM     16  O   UNL     1      -2.459   5.807  -2.435  0.00  0.00    -0.495 OA
ATOM     17  C   UNL     1      -3.735   5.163  -2.450  0.00  0.00    +0.277 C 
ENDBRANCH  13  16
ENDBRANCH   7  10
BRANCH   1  18
ATOM     18  C   UNL     1       2.002   1.545  -3.496  0.00  0.00    +0.339 C 
ATOM     19  O   UNL     1       2.542   1.347  -4.568  0.00  0.00    -0.245 OA
BRANCH  18  20
ATOM     20  O   UNL     1       0.744   1.105  -3.283  0.00  0.00    -0.462 OA
BRANCH  20  22
ATOM     21  C   UNL     1      -1.301  -0.004  -3.935  0.00  0.00    +0.048 C 
ATOM     22  C   UNL     1       0.107   0.415  -4.360  0.00  0.00    +0.229 C 
ENDBRANCH  20  22
ENDBRANCH  18  20
ENDBRANCH   1  18
BRANCH   2  23
ATOM     23  C   UNL     1       4.711   2.238  -3.894  0.00  0.00    +0.284 C 
BRANCH  23  24
ATOM     24  O   UNL     1       5.008   0.817  -3.908  0.00  0.00    -0.454 OA
BRANCH  24  25
ATOM     25  C   UNL     1       5.659   0.338  -4.988  0.00  0.00    +0.354 C 
ATOM     26  O   UNL     1       5.969   1.088  -5.894  0.00  0.00    -0.244 OA
BRANCH  25  27
ATOM     27  C   UNL     1       5.993  -1.089  -5.071  0.00  0.00    +0.119 C 
ATOM     28  C   UNL     1       6.700  -1.559  -6.125  0.00  0.00    +0.038 C 
BRANCH  28  29
ATOM     29  C   UNL     1       7.171  -2.953  -6.133  0.00  0.00    -0.023 A 
ATOM     30  C   UNL     1       7.330  -3.647  -4.929  0.00  0.00    +0.008 A 
ATOM     31  C   UNL     1       7.767  -4.955  -4.945  0.00  0.00    +0.001 A 
ATOM     32  C   UNL     1       8.058  -5.577  -6.147  0.00  0.00    +0.000 A 
ATOM     33  C   UNL     1       7.909  -4.894  -7.342  0.00  0.00    +0.001 A 
ATOM     34  C   UNL     1       7.467  -3.588  -7.343  0.00  0.00    +0.008 A 
ENDBRANCH  28  29
BRANCH  27  35
ATOM     35  N   UNL     1       5.579  -1.964  -4.060  0.00  0.00    -0.280 N 
ATOM     36  C   UNL     1       5.929  -1.728  -2.780  0.00  0.00    +0.214 C 
ATOM     37  O   UNL     1       6.516  -0.707  -2.490  0.00  0.00    -0.276 OA
ATOM     38  C   UNL     1       5.589  -2.732  -1.709  0.00  0.00    +0.109 C 
ATOM     39  H   UNL     1       5.042  -2.741  -4.281  0.00  0.00    +0.155 HD
ENDBRANCH  27  35
ENDBRANCH  25  27
ENDBRANCH  24  25
ENDBRANCH  23  24
ENDBRANCH   2  23
TORSDOF 11
