REMARK  Name = ZINC28618017
REMARK  8 active torsions:
REMARK  status: ('A' for Active; 'I' for Inactive)
REMARK    1  A    between atoms: C_1  and  C_2
REMARK    2  A    between atoms: C_5  and  N_8
REMARK    3  A    between atoms: N_8  and  C_9
REMARK    4  A    between atoms: C_9  and  N_11
REMARK    5  A    between atoms: N_11  and  N_12
REMARK    6  A    between atoms: C_13  and  C_15
REMARK    7  A    between atoms: C_16  and  C_17
REMARK    8  A    between atoms: C_22  and  C_23
REMARK                            x       y       z     vdW  Elec       q    Type
REMARK                         _______ _______ _______ _____ _____    ______ ____
ROOT
ATOM      1  N   UNL     1       2.452   1.221   0.008  0.00  0.00    -0.232 N 
ATOM      2  C   UNL     1       1.291   1.904   0.042  0.00  0.00    +0.253 C 
ATOM      3  O   UNL     1       1.279   3.067   0.399  0.00  0.00    -0.269 OA
ATOM      4  H   UNL     1       2.463   0.170  -0.315  0.00  0.00    +0.173 HD
ENDROOT
BRANCH   1   5
ATOM      5  N   UNL     1       3.646   1.850   0.384  0.00  0.00    -0.245 N 
ATOM      6  H   UNL     1       3.635   2.902   0.707  0.00  0.00    +0.172 HD
BRANCH   5   7
ATOM      7  C   UNL     1       4.807   1.167   0.351  0.00  0.00    +0.151 C 
ATOM      8  S   UNL     1       6.266   1.937   0.810  0.00  0.00    -0.017 S 
BRANCH   7   9
ATOM      9  N   UNL     1       4.820  -0.121  -0.045  0.00  0.00    -0.296 N 
ATOM     10  H   UNL     1       3.875  -0.636  -0.272  0.00  0.00    +0.154 HD
BRANCH   9  15
ATOM     11  C   UNL     1       9.748  -2.889  -0.534  0.00  0.00    +0.044 C 
ATOM     12  C   UNL     1       8.439  -2.154  -0.404  0.00  0.00    -0.050 A 
ATOM     13  C   UNL     1       8.191  -1.379   0.714  0.00  0.00    +0.005 A 
ATOM     14  C   UNL     1       6.992  -0.704   0.837  0.00  0.00    +0.023 A 
ATOM     15  C   UNL     1       6.036  -0.803  -0.166  0.00  0.00    +0.033 A 
ATOM     16  C   UNL     1       6.286  -1.586  -1.285  0.00  0.00    +0.023 A 
ATOM     17  C   UNL     1       7.488  -2.255  -1.403  0.00  0.00    +0.005 A 
ENDBRANCH   9  15
ENDBRANCH   7   9
ENDBRANCH   5   7
ENDBRANCH   1   5
BRANCH   2  18
ATOM     18  C   UNL     1       0.042   1.246  -0.352  0.00  0.00    +0.069 C 
ATOM     19  C   UNL     1      -1.119   1.931  -0.324  0.00  0.00    +0.014 C 
BRANCH  19  20
ATOM     20  C   UNL     1      -2.371   1.272  -0.724  0.00  0.00    -0.008 A 
ATOM     21  C   UNL     1      -2.364  -0.063  -1.135  0.00  0.00    +0.009 A 
ATOM     22  C   UNL     1      -3.542  -0.675  -1.509  0.00  0.00    +0.001 A 
ATOM     23  C   UNL     1      -4.737   0.024  -1.481  0.00  0.00    +0.001 A 
ATOM     24  C   UNL     1      -4.767   1.345  -1.079  0.00  0.00    +0.019 A 
ATOM     25  C   UNL     1      -3.590   1.982  -0.691  0.00  0.00    +0.059 A 
BRANCH  25  26
ATOM     26  C   UNL     1      -3.616   3.350  -0.267  0.00  0.00    +0.100 C 
ATOM     27  N   UNL     1      -3.637   4.435   0.069  0.00  0.00    -0.191 NA
ENDBRANCH  25  26
ENDBRANCH  19  20
ENDBRANCH   2  18
TORSDOF 7
