REMARK  Name = ZINC40036905
REMARK  5 active torsions:
REMARK  status: ('A' for Active; 'I' for Inactive)
REMARK    1  A    between atoms: C_1  and  C_2
REMARK    2  A    between atoms: C_4  and  C_13
REMARK    3  A    between atoms: N_14  and  N_15
REMARK    4  A    between atoms: N_22  and  C_23
REMARK    5  A    between atoms: C_23  and  C_24
REMARK                            x       y       z     vdW  Elec       q    Type
REMARK                         _______ _______ _______ _____ _____    ______ ____
ROOT
ATOM      1  N   UNL     1      -4.705   0.568  -1.133  0.00  0.00    -0.206 N 
ATOM      2  C   UNL     1      -5.991   0.094  -1.131  0.00  0.00    +0.219 A 
ATOM      3  N   UNL     1      -6.245  -1.079  -0.589  0.00  0.00    -0.214 NA
ATOM      4  C   UNL     1      -7.485  -1.576  -0.573  0.00  0.00    +0.084 A 
ATOM      5  C   UNL     1      -8.533  -0.836  -1.099  0.00  0.00    +0.050 A 
ATOM      6  C   UNL     1      -8.256   0.410  -1.678  0.00  0.00    +0.260 A 
ATOM      7  O   UNL     1      -9.151   1.085  -2.162  0.00  0.00    -0.267 OA
ATOM      8  N   UNL     1      -6.980   0.850  -1.685  0.00  0.00    -0.276 N 
ATOM      9  C   UNL     1      -9.945  -1.349  -1.023  0.00  0.00    +0.007 C 
ATOM     10  C   UNL     1     -10.778  -0.697  -2.131  0.00  0.00    +0.012 C 
ATOM     11  C   UNL     1     -12.217  -1.212  -2.056  0.00  0.00    +0.001 C 
ATOM     12  C   UNL     1     -12.817  -0.853  -0.695  0.00  0.00    +0.000 C 
ATOM     13  C   UNL     1     -11.985  -1.498   0.415  0.00  0.00    +0.001 C 
ATOM     14  C   UNL     1     -10.546  -0.985   0.338  0.00  0.00    +0.012 C 
ATOM     15  C   UNL     1      -9.972  -2.866  -1.199  0.00  0.00    +0.047 C 
ATOM     16  C   UNL     1      -8.986  -3.528  -0.274  0.00  0.00    -0.037 A 
ATOM     17  C   UNL     1      -7.773  -2.904   0.015  0.00  0.00    +0.004 A 
ATOM     18  C   UNL     1      -6.850  -3.527   0.850  0.00  0.00    +0.010 A 
ATOM     19  C   UNL     1      -7.147  -4.759   1.400  0.00  0.00    +0.001 A 
ATOM     20  C   UNL     1      -8.358  -5.368   1.123  0.00  0.00    +0.000 A 
ATOM     21  C   UNL     1      -9.274  -4.755   0.287  0.00  0.00    +0.004 A 
ATOM     22  H   UNL     1      -4.507   1.432  -1.526  0.00  0.00    +0.177 HD
ENDROOT
BRANCH   1  24
ATOM     23  C   UNL     1      -2.454   0.253  -0.570  0.00  0.00    +0.137 C 
ATOM     24  N   UNL     1      -3.676  -0.197  -0.568  0.00  0.00    -0.188 NA
BRANCH  23  27
ATOM     25  C   UNL     1      -0.019   1.526   0.010  0.00  0.00    +0.057 C 
ATOM     26  C   UNL     1       0.002  -0.004   0.002  0.00  0.00    +0.202 C 
ATOM     27  C   UNL     1      -1.413  -0.521   0.002  0.00  0.00    +0.013 C 
ATOM     28  C   UNL     1      -1.686  -1.729   0.552  0.00  0.00    +0.020 C 
ATOM     29  C   UNL     1      -0.571  -2.482   1.151  0.00  0.00    +0.017 A 
ATOM     30  C   UNL     1      -0.680  -3.842   1.434  0.00  0.00    +0.011 A 
ATOM     31  C   UNL     1       0.392  -4.508   1.995  0.00  0.00    +0.001 A 
ATOM     32  C   UNL     1       1.567  -3.830   2.275  0.00  0.00    +0.004 A 
ATOM     33  C   UNL     1       1.685  -2.480   1.998  0.00  0.00    +0.046 A 
ATOM     34  C   UNL     1       0.622  -1.797   1.436  0.00  0.00    +0.128 A 
ATOM     35  O   UNL     1       0.702  -0.473   1.155  0.00  0.00    -0.484 OA
ENDBRANCH  23  27
ENDBRANCH   1  24
BRANCH   8  36
ATOM     36  C   UNL     1      -6.657   2.143  -2.295  0.00  0.00    +0.155 C 
BRANCH  36  37
ATOM     37  C   UNL     1      -6.337   1.943  -3.754  0.00  0.00    -0.013 C 
ATOM     38  C   UNL     1      -6.990   2.619  -4.666  0.00  0.00    +0.005 C 
ENDBRANCH  36  37
ENDBRANCH   8  36
TORSDOF 4
