REMARK  Name = ZINC05553331
REMARK  4 active torsions:
REMARK  status: ('A' for Active; 'I' for Inactive)
REMARK    1  A    between atoms: C_1  and  C_2
REMARK    2  A    between atoms: N_4  and  C_5
REMARK    3  A    between atoms: C_13  and  N_21
REMARK    4  A    between atoms: C_24  and  C_26
REMARK                            x       y       z     vdW  Elec       q    Type
REMARK                         _______ _______ _______ _____ _____    ______ ____
ROOT
ATOM      1  C   UNL     1      -2.430  -0.144   0.032  0.00  0.00    +0.052 A 
ATOM      2  C   UNL     1      -2.524   1.324  -0.072  0.00  0.00    +0.025 A 
ATOM      3  C   UNL     1      -1.434   2.062  -0.129  0.00  0.00    +0.010 A 
ATOM      4  C   UNL     1      -0.112   1.417  -0.076  0.00  0.00    -0.017 A 
ATOM      5  C   UNL     1       1.125   2.214  -0.131  0.00  0.00    +0.009 A 
ATOM      6  C   UNL     1       2.300   1.617  -0.088  0.00  0.00    +0.009 A 
ATOM      7  C   UNL     1       2.380   0.150   0.013  0.00  0.00    -0.015 A 
ATOM      8  C   UNL     1       3.681  -0.539   0.061  0.00  0.00    +0.041 A 
ATOM      9  C   UNL     1       3.722  -1.852   0.152  0.00  0.00    +0.127 A 
ATOM     10  C   UNL     1       2.477  -2.639   0.208  0.00  0.00    +0.041 A 
ATOM     11  C   UNL     1       1.313  -2.027   0.166  0.00  0.00    -0.015 A 
ATOM     12  C   UNL     1       1.276  -0.557   0.064  0.00  0.00    -0.002 A 
ATOM     13  C   UNL     1      -0.036   0.110   0.016  0.00  0.00    -0.001 A 
ATOM     14  C   UNL     1      -1.250  -0.723   0.073  0.00  0.00    +0.005 A 
ATOM     15  C   UNL     1      -1.119  -2.184   0.176  0.00  0.00    +0.011 A 
ATOM     16  C   UNL     1       0.051  -2.779   0.218  0.00  0.00    +0.009 A 
ENDROOT
BRANCH   1  20
ATOM     17  C   UNL     1      -3.568  -0.916  -2.390  0.00  0.00    +0.110 C 
ATOM     18  C   UNL     1      -4.117  -1.349  -1.055  0.00  0.00    +0.223 C 
ATOM     19  O   UNL     1      -5.062  -2.107  -1.005  0.00  0.00    -0.275 OA
ATOM     20  N   UNL     1      -3.558  -0.894   0.083  0.00  0.00    -0.210 N 
ATOM     21  C   UNL     1      -4.119  -1.185   1.274  0.00  0.00    +0.223 C 
ATOM     22  O   UNL     1      -3.643  -0.737   2.294  0.00  0.00    -0.275 OA
ATOM     23  C   UNL     1      -5.339  -2.067   1.335  0.00  0.00    +0.110 C 
ENDBRANCH   1  20
BRANCH   9  24
ATOM     24  N   UNL     1       4.919  -2.486   0.196  0.00  0.00    +0.056 N 
ATOM     25  O   UNL     1       4.963  -3.700   0.281  0.00  0.00    -0.126 OA
ATOM     26  O   UNL     1       5.951  -1.841   0.151  0.00  0.00    -0.126 OA
ENDBRANCH   9  24
TORSDOF 2
