REMARK  Name = ZINC05557684
REMARK  3 active torsions:
REMARK  status: ('A' for Active; 'I' for Inactive)
REMARK    1  A    between atoms: C_9  and  C_12
REMARK    2  A    between atoms: N_14  and  N_15
REMARK    3  A    between atoms: C_16  and  C_18
REMARK                            x       y       z     vdW  Elec       q    Type
REMARK                         _______ _______ _______ _____ _____    ______ ____
ROOT
ATOM      1  C   UNL     1       7.232   0.020  -0.068  0.00  0.00    +0.273 C 
ATOM      2  O   UNL     1       7.212   1.232  -0.061  0.00  0.00    -0.270 OA
ATOM      3  N   UNL     1       6.075  -0.673  -0.061  0.00  0.00    -0.231 N 
ATOM      4  H   UNL     1       6.091  -1.643  -0.066  0.00  0.00    +0.173 HD
ENDROOT
BRANCH   1  13
ATOM      5  C   UNL     1      13.419  -1.146  -0.876  0.00  0.00    +0.004 A 
ATOM      6  C   UNL     1      13.251   0.031  -0.171  0.00  0.00    +0.004 A 
ATOM      7  C   UNL     1      11.980   0.487   0.126  0.00  0.00    +0.049 A 
ATOM      8  C   UNL     1      10.870  -0.236  -0.284  0.00  0.00    +0.163 A 
ATOM      9  C   UNL     1      11.038  -1.421  -0.991  0.00  0.00    +0.162 A 
ATOM     10  C   UNL     1      12.316  -1.872  -1.286  0.00  0.00    +0.049 A 
ATOM     11  O   UNL     1       9.962  -2.150  -1.395  0.00  0.00    -0.484 OA
ATOM     12  C   UNL     1       8.697  -1.479  -1.407  0.00  0.00    +0.283 C 
ATOM     13  C   UNL     1       8.549  -0.713  -0.085  0.00  0.00    +0.297 C 
ATOM     14  O   UNL     1       9.625   0.226   0.013  0.00  0.00    -0.472 OA
ENDBRANCH   1  13
BRANCH   3  15
ATOM     15  N   UNL     1       4.851   0.008  -0.045  0.00  0.00    -0.230 N 
ATOM     16  C   UNL     1       3.695  -0.684  -0.037  0.00  0.00    +0.260 C 
ATOM     17  O   UNL     1       3.714  -1.899  -0.045  0.00  0.00    -0.269 OA
ATOM     18  H   UNL     1       4.836   0.978  -0.039  0.00  0.00    +0.173 HD
BRANCH  16  19
ATOM     19  C   UNL     1       2.403   0.034  -0.021  0.00  0.00    +0.038 A 
ATOM     20  C   UNL     1       1.204  -0.680  -0.013  0.00  0.00    +0.014 A 
ATOM     21  C   UNL     1       0.002  -0.004   0.002  0.00  0.00    +0.016 A 
ATOM     22  C   UNL     1      -0.017   1.381   0.010  0.00  0.00    +0.018 A 
ATOM     23  C   UNL     1       1.170   2.095   0.002  0.00  0.00    +0.016 A 
ATOM     24  C   UNL     1       2.378   1.430  -0.013  0.00  0.00    +0.014 A 
ATOM     25 BR   UNL     1      -1.669   2.300   0.022  0.00  0.00    -0.050 Br
ENDBRANCH  16  19
ENDBRANCH   3  15
TORSDOF 3
