REMARK  Name = ZINC57524019
REMARK  5 active torsions:
REMARK  status: ('A' for Active; 'I' for Inactive)
REMARK    1  A    between atoms: C_1  and  C_2
REMARK    2  A    between atoms: C_5  and  S_8
REMARK    3  A    between atoms: S_8  and  C_11
REMARK    4  A    between atoms: N_24  and  C_25
REMARK    5  A    between atoms: C_28  and  C_31
REMARK                            x       y       z     vdW  Elec       q    Type
REMARK                         _______ _______ _______ _____ _____    ______ ____
ROOT
ATOM      1  C   UNL     1       1.752  -5.029  -0.035  0.00  0.00    +0.249 A 
ATOM      2  C   UNL     1       2.523  -5.247  -1.164  0.00  0.00    +0.204 A 
ATOM      3  N   UNL     1       2.247  -5.153  -2.477  0.00  0.00    -0.209 NA
ATOM      4  C   UNL     1       3.150  -5.411  -3.398  0.00  0.00    +0.131 A 
ATOM      5  C   UNL     1       4.501  -5.814  -2.980  0.00  0.00    +0.040 A 
ATOM      6  C   UNL     1       5.501  -6.100  -3.909  0.00  0.00    +0.013 A 
ATOM      7  C   UNL     1       6.752  -6.473  -3.467  0.00  0.00    +0.001 A 
ATOM      8  C   UNL     1       7.019  -6.566  -2.109  0.00  0.00    +0.002 A 
ATOM      9  C   UNL     1       6.040  -6.286  -1.179  0.00  0.00    +0.028 A 
ATOM     10  C   UNL     1       4.774  -5.908  -1.603  0.00  0.00    +0.080 A 
ATOM     11  N   UNL     1       3.761  -5.617  -0.708  0.00  0.00    -0.192 N 
ATOM     12  N   UNL     1       3.690  -5.608   0.690  0.00  0.00    -0.057 NA
ATOM     13  N   UNL     1       2.502  -5.255   1.038  0.00  0.00    -0.108 NA
ATOM     14  N   UNL     1       2.834  -5.306  -4.737  0.00  0.00    -0.326 N 
ATOM     15  H   UNL     1       3.505  -5.498  -5.410  0.00  0.00    +0.148 HD
ENDROOT
BRANCH  14  16
ATOM     16  C   UNL     1       1.484  -4.904  -5.142  0.00  0.00    +0.072 C 
ATOM     17  C   UNL     1       1.387  -3.377  -5.149  0.00  0.00    +0.022 C 
ATOM     18  C   UNL     1       2.407  -2.807  -6.137  0.00  0.00    +0.005 C 
ATOM     19  C   UNL     1       2.115  -3.343  -7.539  0.00  0.00    -0.014 C 
ATOM     20  C   UNL     1       2.211  -4.870  -7.532  0.00  0.00    +0.005 C 
ATOM     21  C   UNL     1       1.192  -5.441  -6.544  0.00  0.00    +0.022 C 
ATOM     22  C   UNL     1       3.134  -2.772  -8.527  0.00  0.00    +0.007 C 
ENDBRANCH  14  16
BRANCH   1  23
ATOM     23  S   UNL     1       0.063  -4.530  -0.023  0.00  0.00    +0.047 S 
ATOM     24  O   UNL     1      -0.476  -4.950   1.223  0.00  0.00    -0.163 OA
ATOM     25  O   UNL     1      -0.490  -4.937  -1.267  0.00  0.00    -0.163 OA
BRANCH  23  30
ATOM     26  C   UNL     1      -0.018   1.503   0.010  0.00  0.00    +0.044 C 
ATOM     27  C   UNL     1       0.002  -0.004   0.002  0.00  0.00    -0.050 A 
ATOM     28  C   UNL     1       0.006  -0.689  -1.199  0.00  0.00    +0.005 A 
ATOM     29  C   UNL     1       0.025  -2.071  -1.206  0.00  0.00    +0.028 A 
ATOM     30  C   UNL     1       0.040  -2.768  -0.013  0.00  0.00    +0.095 A 
ATOM     31  C   UNL     1       0.037  -2.084   1.188  0.00  0.00    +0.028 A 
ATOM     32  C   UNL     1       0.023  -0.702   1.195  0.00  0.00    +0.005 A 
ENDBRANCH  23  30
ENDBRANCH   1  23
TORSDOF 3
