REMARK  Name = ZINC03019055
REMARK  10 active torsions:
REMARK  status: ('A' for Active; 'I' for Inactive)
REMARK    1  A    between atoms: C_1  and  C_2
REMARK    2  A    between atoms: C_2  and  C_3
REMARK    3  A    between atoms: C_3  and  C_4
REMARK    4  A    between atoms: C_4  and  C_5
REMARK    5  A    between atoms: C_5  and  C_6
REMARK    6  A    between atoms: N_8  and  C_9
REMARK    7  A    between atoms: C_9  and  C_11
REMARK    8  A    between atoms: C_9  and  N_15
REMARK    9  A    between atoms: N_15  and  C_16
REMARK   10  A    between atoms: C_16  and  N_18
REMARK                            x       y       z     vdW  Elec       q    Type
REMARK                         _______ _______ _______ _____ _____    ______ ____
ROOT
ATOM      1  C   UNL     1       2.434   1.180  -0.010  0.00  0.00    +0.211 C 
ENDROOT
BRANCH   1   4
ATOM      2  C   UNL     1      -0.003   1.210   0.021  0.00  0.00    +0.214 C 
ATOM      3  O   UNL     1       0.012  -0.003   0.012  0.00  0.00    -0.276 OA
ATOM      4  N   UNL     1       1.156   1.897   0.011  0.00  0.00    -0.294 N 
ATOM      5  H   UNL     1       1.143   2.997   0.018  0.00  0.00    +0.151 HD
BRANCH   2   6
ATOM      6  C   UNL     1      -1.317   1.948   0.036  0.00  0.00    +0.096 C 
BRANCH   6   7
ATOM      7  C   UNL     1      -2.468   0.940   0.038  0.00  0.00    +0.009 C 
BRANCH   7   8
ATOM      8  C   UNL     1      -3.802   1.689   0.053  0.00  0.00    +0.000 C 
BRANCH   8  10
ATOM      9  C   UNL     1      -6.287   1.430   0.070  0.00  0.00    +0.004 C 
ATOM     10  C   UNL     1      -4.953   0.681   0.055  0.00  0.00    -0.003 C 
ENDBRANCH   8  10
ENDBRANCH   7   8
ENDBRANCH   6   7
ENDBRANCH   2   6
ENDBRANCH   1   4
BRANCH   1  11
ATOM     11  C   UNL     1       3.390   1.813   1.002  0.00  0.00    +0.225 C 
ATOM     12 CL   UNL     1       2.671   1.712   2.653  0.00  0.00    -0.080 Cl
ATOM     13 CL   UNL     1       4.962   0.930   0.977  0.00  0.00    -0.080 Cl
ATOM     14 CL   UNL     1       3.665   3.542   0.571  0.00  0.00    -0.080 Cl
ENDBRANCH   1  11
BRANCH   1  15
ATOM     15  N   UNL     1       3.018   1.262  -1.351  0.00  0.00    -0.305 N 
ATOM     16  H   UNL     1       3.482   2.199  -1.693  0.00  0.00    +0.150 HD
BRANCH  15  17
ATOM     17  C   UNL     1       2.986   0.189  -2.166  0.00  0.00    +0.137 C 
ATOM     18  S   UNL     1       2.264  -1.269  -1.635  0.00  0.00    -0.018 S 
BRANCH  17  19
ATOM     19  N   UNL     1       3.524   0.264  -3.400  0.00  0.00    -0.282 N 
ATOM     20  C   UNL     1       3.589  -0.874  -4.202  0.00  0.00    +0.124 A 
ATOM     21  C   UNL     1       4.241  -0.815  -5.429  0.00  0.00    +0.045 A 
ATOM     22  C   UNL     1       4.304  -1.953  -6.213  0.00  0.00    +0.025 A 
ATOM     23  C   UNL     1       3.700  -3.114  -5.746  0.00  0.00    +0.059 A 
ATOM     24  C   UNL     1       3.064  -3.098  -4.519  0.00  0.00    +0.132 A 
ATOM     25  N   UNL     1       3.026  -1.999  -3.791  0.00  0.00    -0.239 NA
ATOM     26 CL   UNL     1       3.744  -4.568  -6.693  0.00  0.00    -0.082 Cl
ATOM     27  H   UNL     1       3.910   1.224  -3.774  0.00  0.00    +0.155 HD
ENDBRANCH  17  19
ENDBRANCH  15  17
ENDBRANCH   1  15
TORSDOF 9
