REMARK  Name = ZINC49283546
REMARK  3 active torsions:
REMARK  status: ('A' for Active; 'I' for Inactive)
REMARK    1  A    between atoms: C_2  and  C_18
REMARK    2  A    between atoms: N_9  and  C_10
REMARK    3  A    between atoms: C_10  and  C_11
REMARK                            x       y       z     vdW  Elec       q    Type
REMARK                         _______ _______ _______ _____ _____    ______ ____
ROOT
ATOM      1  C   UNL     1      -0.022   1.781   0.012  0.00  0.00    +0.080 A 
ATOM      2  C   UNL     1       1.306   2.052   0.001  0.00  0.00    +0.153 A 
ATOM      3  N   UNL     1       2.129   1.019  -0.013  0.00  0.00    -0.221 NA
ATOM      4  C   UNL     1       1.672  -0.214  -0.015  0.00  0.00    +0.166 A 
ATOM      5  S   UNL     1       0.002  -0.004   0.002  0.00  0.00    -0.060 S 
ATOM      6  N   UNL     1       2.393  -1.402  -0.029  0.00  0.00    -0.248 N 
ATOM      7  C   UNL     1       1.745  -2.584  -0.029  0.00  0.00    +0.305 C 
ATOM      8  O   UNL     1       0.529  -2.611  -0.017  0.00  0.00    -0.252 OA
ATOM      9  N   UNL     1       2.444  -3.736  -0.042  0.00  0.00    -0.299 N 
ATOM     10  H   UNL     1       3.363  -1.381  -0.038  0.00  0.00    +0.158 HD
ATOM     11  H   UNL     1       3.413  -3.715  -0.051  0.00  0.00    +0.150 HD
ENDROOT
BRANCH   2  12
ATOM     12  C   UNL     1       1.820   3.468   0.003  0.00  0.00    +0.435 C 
ATOM     13  F   UNL     1       1.992   3.900   1.322  0.00  0.00    -0.164 F 
ATOM     14  F   UNL     1       3.047   3.520  -0.668  0.00  0.00    -0.164 F 
ATOM     15  F   UNL     1       0.900   4.300  -0.644  0.00  0.00    -0.164 F 
ENDBRANCH   2  12
BRANCH   9  16
ATOM     16  C   UNL     1       1.739  -5.021  -0.042  0.00  0.00    +0.109 C 
BRANCH  16  17
ATOM     17  C   UNL     1       2.758  -6.162  -0.059  0.00  0.00    +0.010 C 
ATOM     18  C   UNL     1       2.027  -7.505  -0.174  0.00  0.00    +0.009 C 
ATOM     19  C   UNL     1       3.069  -8.608  -0.367  0.00  0.00    +0.027 C 
ATOM     20  C   UNL     1       4.153  -8.482   0.662  0.00  0.00    -0.031 C 
ATOM     21  C   UNL     1       4.369  -7.414   1.361  0.00  0.00    -0.031 C 
ATOM     22  C   UNL     1       3.561  -6.153   1.244  0.00  0.00    +0.032 C 
ENDBRANCH  16  17
ENDBRANCH   9  16
TORSDOF 3
