REMARK  Name = ZINC09911135
REMARK  11 active torsions:
REMARK  status: ('A' for Active; 'I' for Inactive)
REMARK    1  A    between atoms: C_1  and  C_2
REMARK    2  A    between atoms: C_2  and  O_3
REMARK    3  A    between atoms: O_3  and  C_4
REMARK    4  A    between atoms: C_7  and  C_9
REMARK    5  A    between atoms: C_13  and  N_14
REMARK    6  A    between atoms: C_15  and  C_17
REMARK    7  A    between atoms: C_17  and  C_18
REMARK    8  A    between atoms: C_18  and  C_19
REMARK    9  A    between atoms: C_19  and  S_20
REMARK   10  A    between atoms: S_20  and  C_21
REMARK   11  A    between atoms: C_29  and  C_33
REMARK                            x       y       z     vdW  Elec       q    Type
REMARK                         _______ _______ _______ _____ _____    ______ ____
ROOT
ATOM      1  C   UNL     1      -0.600   1.026  -2.551  0.00  0.00    +0.069 A 
ATOM      2  C   UNL     1      -0.755   1.593  -1.222  0.00  0.00    -0.023 A 
ATOM      3  C   UNL     1      -1.621   2.627  -1.135  0.00  0.00    -0.004 A 
ATOM      4  S   UNL     1      -2.225   2.851  -2.783  0.00  0.00    -0.077 S 
ATOM      5  C   UNL     1      -1.342   1.591  -3.580  0.00  0.00    +0.084 A 
ATOM      6  C   UNL     1      -1.979   3.403   0.095  0.00  0.00    +0.046 C 
ATOM      7  C   UNL     1      -0.938   3.097   1.181  0.00  0.00    -0.009 C 
ATOM      8  C   UNL     1      -0.735   1.582   1.262  0.00  0.00    +0.008 C 
ATOM      9  C   UNL     1      -0.013   1.086   0.008  0.00  0.00    +0.037 C 
ATOM     10  C   UNL     1      -1.435   3.621   2.530  0.00  0.00    +0.008 C 
ENDROOT
BRANCH   1  14
ATOM     11  C   UNL     1       2.426  -0.903  -3.352  0.00  0.00    +0.407 C 
ATOM     12  O   UNL     1       2.017  -2.043  -3.258  0.00  0.00    -0.226 OA
ATOM     13  N   UNL     1       1.592   0.132  -3.126  0.00  0.00    -0.217 N 
ATOM     14  C   UNL     1       0.306  -0.098  -2.796  0.00  0.00    +0.255 C 
ATOM     15  O   UNL     1      -0.103  -1.240  -2.702  0.00  0.00    -0.270 OA
ATOM     16  H   UNL     1       1.918   1.042  -3.201  0.00  0.00    +0.161 HD
BRANCH  11  17
ATOM     17  O   UNL     1       3.710  -0.673  -3.682  0.00  0.00    -0.450 OA
BRANCH  17  19
ATOM     18  C   UNL     1       5.965  -1.379  -4.271  0.00  0.00    +0.048 C 
ATOM     19  C   UNL     1       4.550  -1.835  -3.910  0.00  0.00    +0.230 C 
ENDBRANCH  17  19
ENDBRANCH  11  17
ENDBRANCH   1  14
BRANCH   5  20
ATOM     20  N   UNL     1      -1.369   1.234  -4.919  0.00  0.00    -0.279 N 
ATOM     21  C   UNL     1      -2.160   1.905  -5.779  0.00  0.00    +0.218 C 
ATOM     22  O   UNL     1      -2.848   2.822  -5.382  0.00  0.00    -0.275 OA
ATOM     23  H   UNL     1      -0.819   0.501  -5.237  0.00  0.00    +0.155 HD
BRANCH  21  24
ATOM     24  C   UNL     1      -2.190   1.517  -7.235  0.00  0.00    +0.097 C 
BRANCH  24  25
ATOM     25  C   UNL     1      -3.161   2.429  -7.987  0.00  0.00    +0.020 C 
BRANCH  25  26
ATOM     26  C   UNL     1      -3.192   2.035  -9.465  0.00  0.00    +0.075 C 
BRANCH  26  27
ATOM     27  S   UNL     1      -4.343   3.117 -10.356  0.00  0.00    -0.125 S 
BRANCH  27  28
ATOM     28  C   UNL     1      -4.266   2.543 -12.020  0.00  0.00    +0.008 A 
ATOM     29  C   UNL     1      -3.431   1.483 -12.353  0.00  0.00    +0.016 A 
ATOM     30  C   UNL     1      -3.377   1.032 -13.657  0.00  0.00    +0.021 A 
ATOM     31  C   UNL     1      -4.144   1.642 -14.634  0.00  0.00    +0.041 A 
ATOM     32  C   UNL     1      -4.972   2.701 -14.307  0.00  0.00    +0.021 A 
ATOM     33  C   UNL     1      -5.035   3.153 -13.003  0.00  0.00    +0.016 A 
ATOM     34 CL   UNL     1      -4.068   1.077 -16.274  0.00  0.00    -0.084 Cl
ENDBRANCH  27  28
ENDBRANCH  26  27
ENDBRANCH  25  26
ENDBRANCH  24  25
ENDBRANCH  21  24
ENDBRANCH   5  20
TORSDOF 9
