REMARK  Name = ZINC39483490
REMARK  8 active torsions:
REMARK  status: ('A' for Active; 'I' for Inactive)
REMARK    1  A    between atoms: C_1  and  C_2
REMARK    2  A    between atoms: C_2  and  O_3
REMARK    3  A    between atoms: O_3  and  C_4
REMARK    4  A    between atoms: C_6  and  C_17
REMARK    5  A    between atoms: C_8  and  C_10
REMARK    6  A    between atoms: C_15  and  O_16
REMARK    7  A    between atoms: C_32  and  C_33
REMARK    8  A    between atoms: C_38  and  O_39
REMARK                            x       y       z     vdW  Elec       q    Type
REMARK                         _______ _______ _______ _____ _____    ______ ____
ROOT
ATOM      1  C   UNL     1       0.631  -4.944  -0.019  0.00  0.00    +0.015 C 
ATOM      2  C   UNL     1       1.866  -4.414  -0.125  0.00  0.00    -0.004 C 
ATOM      3  C   UNL     1       2.048  -2.924  -0.113  0.00  0.00    +0.040 C 
ATOM      4  C   UNL     1       3.372  -2.557   0.537  0.00  0.00    +0.026 C 
ATOM      5  C   UNL     1       4.536  -3.334  -0.033  0.00  0.00    +0.127 C 
ATOM      6  N   UNL     1       4.298  -4.767  -0.144  0.00  0.00    -0.293 N 
ATOM      7  C   UNL     1       3.036  -5.295  -0.245  0.00  0.00    +0.140 A 
ATOM      8  N   UNL     1       2.823  -6.580  -0.452  0.00  0.00    -0.228 NA
ATOM      9  C   UNL     1       3.822  -7.470  -0.530  0.00  0.00    +0.086 A 
ATOM     10  C   UNL     1       5.153  -7.024  -0.361  0.00  0.00    +0.066 A 
ATOM     11  C   UNL     1       5.377  -5.592  -0.150  0.00  0.00    +0.262 A 
ATOM     12  O   UNL     1       6.500  -5.156   0.029  0.00  0.00    -0.267 OA
ATOM     13  C   UNL     1       6.206  -7.935  -0.414  0.00  0.00    +0.015 A 
ATOM     14  C   UNL     1       5.948  -9.271  -0.643  0.00  0.00    +0.001 A 
ATOM     15  C   UNL     1       4.650  -9.721  -0.823  0.00  0.00    +0.011 A 
ATOM     16  C   UNL     1       3.579  -8.837  -0.770  0.00  0.00    +0.012 A 
ENDROOT
BRANCH   1  19
ATOM     17  C   UNL     1      -2.799  -3.563   0.647  0.00  0.00    +0.122 A 
ATOM     18  C   UNL     1      -1.687  -4.388   0.688  0.00  0.00    +0.053 A 
ATOM     19  C   UNL     1      -0.551  -4.068  -0.061  0.00  0.00    -0.021 A 
ATOM     20  C   UNL     1      -0.541  -2.916  -0.850  0.00  0.00    +0.016 A 
ATOM     21  C   UNL     1      -1.661  -2.092  -0.886  0.00  0.00    -0.010 A 
ATOM     22  C   UNL     1      -2.792  -2.422  -0.140  0.00  0.00    +0.054 A 
BRANCH  21  23
ATOM     23  C   UNL     1      -1.655  -0.867  -1.723  0.00  0.00    +0.024 A 
ATOM     24  C   UNL     1      -0.594   0.032  -1.639  0.00  0.00    +0.012 A 
ATOM     25  C   UNL     1      -0.593   1.170  -2.420  0.00  0.00    +0.001 A 
ATOM     26  C   UNL     1      -1.642   1.422  -3.285  0.00  0.00    +0.004 A 
ATOM     27  C   UNL     1      -2.700   0.537  -3.376  0.00  0.00    +0.046 A 
ATOM     28  C   UNL     1      -2.711  -0.613  -2.602  0.00  0.00    +0.125 A 
BRANCH  28  29
ATOM     29  O   UNL     1      -3.747  -1.486  -2.695  0.00  0.00    -0.506 OA
ATOM     30  H   UNL     1      -4.473  -1.301  -2.083  0.00  0.00    +0.292 HD
ENDBRANCH  28  29
ENDBRANCH  21  23
BRANCH  17  31
ATOM     31  O   UNL     1      -3.902  -3.876   1.377  0.00  0.00    -0.492 OA
BRANCH  31  33
ATOM     32  C   UNL     1      -5.166  -5.252   2.910  0.00  0.00    +0.048 C 
ATOM     33  C   UNL     1      -3.842  -5.066   2.165  0.00  0.00    +0.225 C 
ENDBRANCH  31  33
ENDBRANCH  17  31
ENDBRANCH   1  19
BRANCH  16  34
ATOM     34  C   UNL     1       2.196  -9.327  -0.966  0.00  0.00    +0.026 A 
ATOM     35  C   UNL     1       1.625 -10.200  -0.042  0.00  0.00    +0.012 A 
ATOM     36  C   UNL     1       0.335 -10.654  -0.230  0.00  0.00    +0.001 A 
ATOM     37  C   UNL     1      -0.395 -10.244  -1.332  0.00  0.00    +0.004 A 
ATOM     38  C   UNL     1       0.161  -9.378  -2.254  0.00  0.00    +0.046 A 
ATOM     39  C   UNL     1       1.453  -8.910  -2.076  0.00  0.00    +0.125 A 
BRANCH  39  40
ATOM     40  O   UNL     1       1.999  -8.054  -2.979  0.00  0.00    -0.506 OA
ATOM     41  H   UNL     1       2.465  -8.492  -3.704  0.00  0.00    +0.292 HD
ENDBRANCH  39  40
ENDBRANCH  16  34
TORSDOF 7
