REMARK  Name = ZINC63488641
REMARK  8 active torsions:
REMARK  status: ('A' for Active; 'I' for Inactive)
REMARK    1  A    between atoms: C_1  and  C_2
REMARK    2  A    between atoms: C_2  and  C_3
REMARK    3  A    between atoms: C_2  and  N_15
REMARK    4  A    between atoms: C_7  and  C_9
REMARK    5  A    between atoms: C_16  and  C_18
REMARK    6  A    between atoms: C_18  and  C_19
REMARK    7  A    between atoms: C_19  and  N_20
REMARK    8  A    between atoms: N_20  and  C_21
REMARK                            x       y       z     vdW  Elec       q    Type
REMARK                         _______ _______ _______ _____ _____    ______ ____
ROOT
ATOM      1  C   UNL     1      -0.019   1.526   0.010  0.00  0.00    +0.036 C 
ATOM      2  C   UNL     1       0.002  -0.004   0.002  0.00  0.00    +0.134 C 
ENDROOT
BRANCH   2   3
ATOM      3  C   UNL     1      -1.412  -0.526   0.013  0.00  0.00    +0.105 A 
ATOM      4  N   UNL     1      -2.156  -0.797  -1.082  0.00  0.00    -0.348 N 
ATOM      5  H   UNL     1      -1.879  -0.692  -2.005  0.00  0.00    +0.167 HD
ATOM      6  C   UNL     1      -3.372  -1.247  -0.648  0.00  0.00    +0.110 A 
ATOM      7  C   UNL     1      -3.331  -1.236   0.710  0.00  0.00    +0.064 A 
ATOM      8  N   UNL     1      -2.112  -0.793   1.079  0.00  0.00    -0.342 N 
ATOM      9  H   UNL     1      -1.805  -0.689   1.994  0.00  0.00    +0.167 HD
BRANCH   7  10
ATOM     10  C   UNL     1      -4.428  -1.643   1.622  0.00  0.00    -0.000 A 
ATOM     11  C   UNL     1      -4.251  -1.576   3.002  0.00  0.00    +0.010 A 
ATOM     12  C   UNL     1      -5.274  -1.956   3.846  0.00  0.00    +0.001 A 
ATOM     13  C   UNL     1      -6.474  -2.405   3.324  0.00  0.00    +0.000 A 
ATOM     14  C   UNL     1      -6.655  -2.474   1.954  0.00  0.00    +0.001 A 
ATOM     15  C   UNL     1      -5.641  -2.090   1.101  0.00  0.00    +0.010 A 
ENDBRANCH   7  10
ENDBRANCH   2   3
BRANCH   2  16
ATOM     16  N   UNL     1       0.688  -0.476  -1.203  0.00  0.00    -0.306 N 
ATOM     17  C   UNL     1       2.031  -0.587  -1.215  0.00  0.00    +0.215 C 
ATOM     18  O   UNL     1       2.672  -0.295  -0.228  0.00  0.00    -0.276 OA
ATOM     19  H   UNL     1       0.175  -0.710  -1.993  0.00  0.00    +0.149 HD
BRANCH  17  20
ATOM     20  C   UNL     1       2.736  -1.073  -2.455  0.00  0.00    +0.114 C 
BRANCH  20  21
ATOM     21  C   UNL     1       4.245  -1.105  -2.204  0.00  0.00    +0.111 C 
BRANCH  21  22
ATOM     22  N   UNL     1       4.931  -1.578  -3.409  0.00  0.00    -0.343 N 
ATOM     23  H   UNL     1       4.418  -1.811  -4.199  0.00  0.00    +0.146 HD
BRANCH  22  24
ATOM     24  C   UNL     1       6.323  -1.692  -3.421  0.00  0.00    +0.027 A 
ATOM     25  C   UNL     1       7.058  -1.364  -2.289  0.00  0.00    +0.023 A 
ATOM     26  C   UNL     1       8.434  -1.479  -2.304  0.00  0.00    +0.002 A 
ATOM     27  C   UNL     1       9.081  -1.919  -3.445  0.00  0.00    +0.000 A 
ATOM     28  C   UNL     1       8.352  -2.247  -4.573  0.00  0.00    +0.002 A 
ATOM     29  C   UNL     1       6.975  -2.140  -4.563  0.00  0.00    +0.023 A 
ENDBRANCH  22  24
ENDBRANCH  21  22
ENDBRANCH  20  21
ENDBRANCH  17  20
ENDBRANCH   2  16
TORSDOF 7
