REMARK  Name = ZINC41082546
REMARK  12 active torsions:
REMARK  status: ('A' for Active; 'I' for Inactive)
REMARK    1  A    between atoms: C_1  and  C_2
REMARK    2  A    between atoms: C_2  and  O_3
REMARK    3  A    between atoms: O_3  and  C_4
REMARK    4  A    between atoms: C_6  and  C_23
REMARK    5  A    between atoms: C_9  and  O_10
REMARK    6  A    between atoms: O_10  and  C_11
REMARK    7  A    between atoms: C_11  and  C_12
REMARK    8  A    between atoms: C_12  and  O_13
REMARK    9  A    between atoms: O_13  and  C_14
REMARK   10  A    between atoms: C_17  and  O_20
REMARK   11  A    between atoms: O_20  and  C_21
REMARK   12  A    between atoms: C_33  and  C_35
REMARK                            x       y       z     vdW  Elec       q    Type
REMARK                         _______ _______ _______ _____ _____    ______ ____
ROOT
ATOM      1  C   UNL     1       0.841  -1.875  -1.435  0.00  0.00    +0.164 A 
ATOM      2  C   UNL     1       0.348  -2.697  -0.442  0.00  0.00    +0.057 A 
ATOM      3  C   UNL     1       0.303  -4.084  -0.643  0.00  0.00    -0.019 A 
ATOM      4  C   UNL     1       0.758  -4.627  -1.853  0.00  0.00    +0.032 A 
ATOM      5  C   UNL     1       1.247  -3.798  -2.838  0.00  0.00    +0.087 A 
ATOM      6  C   UNL     1       1.287  -2.423  -2.638  0.00  0.00    +0.180 A 
ATOM      7 CL   UNL     1       1.810  -4.472  -4.336  0.00  0.00    -0.080 Cl
ENDROOT
BRANCH   3   8
ATOM      8  C   UNL     1      -0.218  -4.962   0.407  0.00  0.00    +0.025 C 
ATOM      9  C   UNL     1       0.298  -6.228   0.564  0.00  0.00    +0.084 C 
ATOM     10  C   UNL     1       1.508  -6.692  -0.182  0.00  0.00    +0.176 C 
ATOM     11  N   UNL     1       2.481  -5.899  -0.546  0.00  0.00    -0.280 NA
ATOM     12  N   UNL     1       1.487  -8.055  -0.447  0.00  0.00    -0.142 N 
ATOM     13  C   UNL     1       0.732  -8.917   0.307  0.00  0.00    +0.168 C 
ATOM     14  N   UNL     1      -0.113  -8.528   1.260  0.00  0.00    -0.156 NA
ATOM     15  C   UNL     1      -0.307  -7.218   1.489  0.00  0.00    +0.273 C 
ATOM     16  O   UNL     1      -0.975  -6.847   2.441  0.00  0.00    -0.268 OA
ATOM     17  C   UNL     1       1.031 -10.209  -0.146  0.00  0.00    +0.091 C 
ATOM     18  C   UNL     1       1.895 -10.109  -1.181  0.00  0.00    +0.134 C 
ATOM     19  O   UNL     1       2.157  -8.813  -1.417  0.00  0.00    -0.375 OA
ATOM     20  C   UNL     1       2.474 -11.270  -1.948  0.00  0.00    +0.089 C 
ATOM     21  H   UNL     1       2.483  -4.972  -0.261  0.00  0.00    +0.188 HD
ENDBRANCH   3   8
BRANCH   1  22
ATOM     22  O   UNL     1       0.886  -0.529  -1.243  0.00  0.00    -0.489 OA
BRANCH  22  24
ATOM     23  C   UNL     1       0.542   1.487   0.043  0.00  0.00    +0.048 C 
ATOM     24  C   UNL     1       0.414  -0.037   0.012  0.00  0.00    +0.226 C 
ENDBRANCH  22  24
ENDBRANCH   1  22
BRANCH   6  25
ATOM     25  O   UNL     1       1.765  -1.610  -3.615  0.00  0.00    -0.483 OA
BRANCH  25  26
ATOM     26  C   UNL     1       3.166  -1.331  -3.598  0.00  0.00    +0.270 C 
BRANCH  26  27
ATOM     27  C   UNL     1       3.516  -0.406  -4.766  0.00  0.00    +0.270 C 
BRANCH  27  28
ATOM     28  O   UNL     1       2.876   0.858  -4.581  0.00  0.00    -0.489 OA
BRANCH  28  29
ATOM     29  C   UNL     1       3.086   1.802  -5.537  0.00  0.00    +0.121 A 
ATOM     30  C   UNL     1       3.886   1.514  -6.633  0.00  0.00    +0.049 A 
ATOM     31  C   UNL     1       4.098   2.472  -7.604  0.00  0.00    +0.049 A 
ATOM     32  C   UNL     1       3.511   3.723  -7.484  0.00  0.00    +0.120 A 
ATOM     33  C   UNL     1       2.710   4.011  -6.389  0.00  0.00    +0.049 A 
ATOM     34  C   UNL     1       2.494   3.051  -5.420  0.00  0.00    +0.049 A 
BRANCH  32  35
ATOM     35  O   UNL     1       3.721   4.667  -8.440  0.00  0.00    -0.495 OA
ATOM     36  C   UNL     1       3.086   5.933  -8.252  0.00  0.00    +0.277 C 
ENDBRANCH  32  35
ENDBRANCH  28  29
ENDBRANCH  27  28
ENDBRANCH  26  27
ENDBRANCH  25  26
ENDBRANCH   6  25
TORSDOF 9
