REMARK  Name = ZINC66323940
REMARK  7 active torsions:
REMARK  status: ('A' for Active; 'I' for Inactive)
REMARK    1  A    between atoms: C_1  and  C_2
REMARK    2  A    between atoms: C_3  and  C_15
REMARK    3  A    between atoms: N_8  and  C_9
REMARK    4  A    between atoms: C_15  and  C_17
REMARK    5  A    between atoms: C_15  and  C_23
REMARK    6  A    between atoms: N_25  and  C_30
REMARK    7  A    between atoms: C_28  and  O_29
REMARK                            x       y       z     vdW  Elec       q    Type
REMARK                         _______ _______ _______ _____ _____    ______ ____
ROOT
ATOM      1  C   UNL     1      -2.433  -0.236   0.747  0.00  0.00    +0.093 C 
ENDROOT
BRANCH   1   4
ATOM      2  C   UNL     1      -0.206   1.888   0.265  0.00  0.00    +0.066 C 
ATOM      3  C   UNL     1      -0.033   0.393   0.182  0.00  0.00    +0.048 A 
ATOM      4  C   UNL     1      -0.997  -0.525   0.390  0.00  0.00    +0.051 A 
ATOM      5  C   UNL     1      -0.427  -1.808   0.216  0.00  0.00    +0.269 A 
ATOM      6  O   UNL     1      -1.007  -2.874   0.326  0.00  0.00    -0.266 OA
ATOM      7  N   UNL     1       0.874  -1.638  -0.095  0.00  0.00    -0.259 N 
ATOM      8  H   UNL     1       1.518  -2.343  -0.271  0.00  0.00    +0.191 HD
ATOM      9  N   UNL     1       1.129  -0.261  -0.124  0.00  0.00    -0.256 N 
BRANCH   9  10
ATOM     10  C   UNL     1       2.357   0.341  -0.412  0.00  0.00    +0.064 A 
ATOM     11  C   UNL     1       2.850   1.345   0.411  0.00  0.00    +0.028 A 
ATOM     12  C   UNL     1       4.064   1.937   0.123  0.00  0.00    +0.002 A 
ATOM     13  C   UNL     1       4.789   1.530  -0.982  0.00  0.00    +0.000 A 
ATOM     14  C   UNL     1       4.301   0.531  -1.803  0.00  0.00    +0.002 A 
ATOM     15  C   UNL     1       3.090  -0.070  -1.518  0.00  0.00    +0.028 A 
ENDBRANCH   9  10
ENDBRANCH   1   4
BRANCH   1  16
ATOM     16  C   UNL     1      -2.799  -0.985   2.003  0.00  0.00    -0.035 A 
ATOM     17  C   UNL     1      -2.996  -2.352   1.959  0.00  0.00    +0.004 A 
ATOM     18  C   UNL     1      -3.332  -3.039   3.111  0.00  0.00    +0.000 A 
ATOM     19  C   UNL     1      -3.469  -2.358   4.306  0.00  0.00    +0.000 A 
ATOM     20  C   UNL     1      -3.271  -0.991   4.350  0.00  0.00    +0.000 A 
ATOM     21  C   UNL     1      -2.931  -0.305   3.199  0.00  0.00    +0.004 A 
ENDBRANCH   1  16
BRANCH   1  22
ATOM     22  C   UNL     1      -3.329  -0.677  -0.380  0.00  0.00    +0.045 A 
ATOM     23  C   UNL     1      -3.441  -1.936  -0.863  0.00  0.00    +0.123 A 
ATOM     24  N   UNL     1      -4.349  -1.913  -1.871  0.00  0.00    -0.236 N 
ATOM     25  N   UNL     1      -4.808  -0.597  -2.008  0.00  0.00    -0.129 NA
ATOM     26  C   UNL     1      -4.202   0.144  -1.111  0.00  0.00    +0.236 A 
BRANCH  24  27
ATOM     27  C   UNL     1      -4.756  -3.012  -2.640  0.00  0.00    +0.065 A 
ATOM     28  C   UNL     1      -4.222  -4.270  -2.393  0.00  0.00    +0.028 A 
ATOM     29  C   UNL     1      -4.626  -5.351  -3.152  0.00  0.00    +0.002 A 
ATOM     30  C   UNL     1      -5.561  -5.182  -4.157  0.00  0.00    +0.000 A 
ATOM     31  C   UNL     1      -6.094  -3.931  -4.405  0.00  0.00    +0.002 A 
ATOM     32  C   UNL     1      -5.699  -2.847  -3.646  0.00  0.00    +0.028 A 
ENDBRANCH  24  27
BRANCH  26  34
ATOM     33  H   UNL     1      -3.793   2.034  -1.449  0.00  0.00    +0.294 HD
ATOM     34  O   UNL     1      -4.385   1.478  -0.924  0.00  0.00    -0.491 OA
ENDBRANCH  26  34
ENDBRANCH   1  22
TORSDOF 6
