REMARK  Name = ZINC59853186
REMARK  8 active torsions:
REMARK  status: ('A' for Active; 'I' for Inactive)
REMARK    1  A    between atoms: C_1  and  C_2
REMARK    2  A    between atoms: C_2  and  C_3
REMARK    3  A    between atoms: C_2  and  C_4
REMARK    4  A    between atoms: C_7  and  C_10
REMARK    5  A    between atoms: N_12  and  C_13
REMARK    6  A    between atoms: C_14  and  C_18
REMARK    7  A    between atoms: N_20  and  N_21
REMARK    8  A    between atoms: C_22  and  C_24
REMARK                            x       y       z     vdW  Elec       q    Type
REMARK                         _______ _______ _______ _____ _____    ______ ____
ROOT
ATOM      1  C   UNL     1      -7.134  -3.255  -0.955  0.00  0.00    +0.084 A 
ATOM      2  C   UNL     1      -7.751  -4.067  -1.896  0.00  0.00    +0.067 A 
ATOM      3  C   UNL     1      -9.127  -4.424  -1.639  0.00  0.00    +0.022 A 
ATOM      4  C   UNL     1      -9.661  -3.926  -0.508  0.00  0.00    +0.048 A 
ATOM      5  S   UNL     1      -8.321  -2.994   0.201  0.00  0.00    -0.081 S 
ENDROOT
BRANCH   1   8
ATOM      6  C   UNL     1      -5.396  -1.996   0.043  0.00  0.00    +0.249 C 
ATOM      7  O   UNL     1      -6.141  -1.714   0.961  0.00  0.00    -0.270 OA
ATOM      8  N   UNL     1      -5.835  -2.775  -0.965  0.00  0.00    -0.275 N 
ATOM      9  H   UNL     1      -5.240  -3.000  -1.698  0.00  0.00    +0.156 HD
BRANCH   6  13
ATOM     10  C   UNL     1      -1.412  -0.526   0.013  0.00  0.00    -0.045 A 
ATOM     11  C   UNL     1      -2.257  -0.202   1.059  0.00  0.00    +0.004 A 
ATOM     12  C   UNL     1      -3.553  -0.676   1.075  0.00  0.00    +0.013 A 
ATOM     13  C   UNL     1      -4.010  -1.484   0.032  0.00  0.00    +0.037 A 
ATOM     14  C   UNL     1      -3.152  -1.806  -1.021  0.00  0.00    +0.013 A 
ATOM     15  C   UNL     1      -1.860  -1.321  -1.027  0.00  0.00    +0.004 A 
BRANCH  10  17
ATOM     16  C   UNL     1      -0.019   1.526   0.010  0.00  0.00    +0.012 C 
ATOM     17  C   UNL     1       0.002  -0.004   0.002  0.00  0.00    +0.013 C 
ATOM     18  C   UNL     1       0.742  -0.511   1.242  0.00  0.00    +0.012 C 
ENDBRANCH  10  17
ENDBRANCH   6  13
ENDBRANCH   1   8
BRANCH   2  19
ATOM     19  C   UNL     1      -7.043  -4.539  -3.090  0.00  0.00    +0.262 C 
ATOM     20  O   UNL     1      -5.883  -4.219  -3.276  0.00  0.00    -0.269 OA
ATOM     21  N   UNL     1      -7.676  -5.327  -3.982  0.00  0.00    -0.230 N 
ATOM     22  H   UNL     1      -8.600  -5.582  -3.834  0.00  0.00    +0.173 HD
BRANCH  21  23
ATOM     23  N   UNL     1      -6.999  -5.777  -5.123  0.00  0.00    -0.231 N 
ATOM     24  C   UNL     1      -7.632  -6.565  -6.015  0.00  0.00    +0.273 C 
ATOM     25  O   UNL     1      -8.787  -6.884  -5.830  0.00  0.00    -0.270 OA
ATOM     26  H   UNL     1      -6.075  -5.522  -5.271  0.00  0.00    +0.173 HD
BRANCH  24  27
ATOM     27  C   UNL     1      -6.904  -7.050  -7.242  0.00  0.00    +0.297 C 
ATOM     28  C   UNL     1      -6.564  -5.857  -8.146  0.00  0.00    +0.283 C 
ATOM     29  O   UNL     1      -5.887  -6.353  -9.307  0.00  0.00    -0.484 OA
ATOM     30  C   UNL     1      -6.435  -7.440  -9.916  0.00  0.00    +0.162 A 
ATOM     31  C   UNL     1      -6.064  -7.751 -11.216  0.00  0.00    +0.049 A 
ATOM     32  C   UNL     1      -6.609  -8.853 -11.846  0.00  0.00    +0.004 A 
ATOM     33  C   UNL     1      -7.525  -9.649 -11.184  0.00  0.00    +0.004 A 
ATOM     34  C   UNL     1      -7.900  -9.344  -9.889  0.00  0.00    +0.049 A 
ATOM     35  C   UNL     1      -7.358  -8.238  -9.251  0.00  0.00    +0.163 A 
ATOM     36  O   UNL     1      -7.743  -7.947  -7.978  0.00  0.00    -0.472 OA
ENDBRANCH  24  27
ENDBRANCH  21  23
ENDBRANCH   2  19
TORSDOF 6
