REMARK  Name = ZINC65252433
REMARK  11 active torsions:
REMARK  status: ('A' for Active; 'I' for Inactive)
REMARK    1  A    between atoms: C_1  and  C_2
REMARK    2  A    between atoms: C_2  and  C_3
REMARK    3  A    between atoms: C_3  and  C_4
REMARK    4  A    between atoms: C_4  and  C_5
REMARK    5  A    between atoms: C_4  and  N_6
REMARK    6  A    between atoms: C_7  and  C_9
REMARK    7  A    between atoms: N_13  and  C_15
REMARK    8  A    between atoms: C_15  and  C_16
REMARK    9  A    between atoms: C_15  and  C_17
REMARK   10  A    between atoms: N_19  and  C_20
REMARK   11  A    between atoms: C_23  and  C_27
REMARK                            x       y       z     vdW  Elec       q    Type
REMARK                         _______ _______ _______ _____ _____    ______ ____
ROOT
ATOM      1  C   UNL     1      -1.875  -4.458  -0.004  0.00  0.00    +0.058 C 
ATOM      2  C   UNL     1      -2.884  -3.553  -0.717  0.00  0.00    +0.009 C 
ATOM      3  C   UNL     1      -4.295  -3.892  -0.229  0.00  0.00    -0.018 C 
ATOM      4  C   UNL     1      -4.571  -5.377  -0.477  0.00  0.00    -0.078 C 
ATOM      5  N   UNL     1      -3.590  -6.189   0.252  0.00  0.00    +0.388 N 
ATOM      6  C   UNL     1      -2.241  -5.921  -0.261  0.00  0.00    -0.065 C 
ATOM      7  H   UNL     1      -3.628  -5.959   1.234  0.00  0.00    -0.081 HD
ENDROOT
BRANCH   1   9
ATOM      8  N   UNL     1       0.044  -2.954  -0.417  0.00  0.00    -0.313 N 
ATOM      9  C   UNL     1      -0.491  -4.185  -0.534  0.00  0.00    +0.215 C 
ATOM     10  O   UNL     1       0.141  -5.073  -1.065  0.00  0.00    -0.276 OA
ATOM     11  H   UNL     1      -0.462  -2.243   0.007  0.00  0.00    +0.149 HD
BRANCH   8  12
ATOM     12  C   UNL     1       1.390  -2.688  -0.932  0.00  0.00    +0.070 C 
ATOM     13  C   UNL     1       2.426  -3.079   0.123  0.00  0.00    +0.028 C 
BRANCH  12  14
ATOM     14  C   UNL     1       1.527  -1.199  -1.256  0.00  0.00    +0.022 C 
BRANCH  14  16
ATOM     15  C   UNL     1       0.715   0.653  -2.723  0.00  0.00    +0.004 C 
ATOM     16  C   UNL     1       0.577  -0.836  -2.399  0.00  0.00    -0.002 C 
ENDBRANCH  14  16
ENDBRANCH  12  14
ENDBRANCH   8  12
ENDBRANCH   1   9
BRANCH   5  17
ATOM     17  C   UNL     1      -3.907  -7.613   0.073  0.00  0.00    +0.016 C 
ATOM     18  C   UNL     1      -5.286  -7.907   0.666  0.00  0.00    -0.004 C 
BRANCH  17  19
ATOM     19  C   UNL     1      -2.869  -8.450   0.776  0.00  0.00    +0.203 C 
ATOM     20  O   UNL     1      -2.267  -7.997   1.727  0.00  0.00    -0.277 OA
ATOM     21  N   UNL     1      -2.610  -9.701   0.348  0.00  0.00    -0.285 N 
ATOM     22  H   UNL     1      -3.035 -10.036  -0.457  0.00  0.00    +0.155 HD
BRANCH  21  23
ATOM     23  C   UNL     1      -1.728 -10.518   1.066  0.00  0.00    +0.069 A 
ATOM     24  C   UNL     1      -1.460 -10.249   2.401  0.00  0.00    +0.026 A 
ATOM     25  C   UNL     1      -0.589 -11.057   3.107  0.00  0.00    +0.005 A 
ATOM     26  C   UNL     1       0.016 -12.133   2.485  0.00  0.00    -0.048 A 
ATOM     27  C   UNL     1      -0.247 -12.406   1.155  0.00  0.00    +0.043 A 
ATOM     28  C   UNL     1      -1.122 -11.605   0.444  0.00  0.00    +0.145 A 
ATOM     29  F   UNL     1      -1.384 -11.874  -0.854  0.00  0.00    -0.204 F 
ATOM     30  C   UNL     1       0.966 -13.011   3.259  0.00  0.00    +0.044 C 
ENDBRANCH  21  23
ENDBRANCH  17  19
ENDBRANCH   5  17
TORSDOF 7
