REMARK  Name = ZINC65034893
REMARK  7 active torsions:
REMARK  status: ('A' for Active; 'I' for Inactive)
REMARK    1  A    between atoms: C_1  and  C_2
REMARK    2  A    between atoms: C_5  and  N_9
REMARK    3  A    between atoms: C_6  and  C_8
REMARK    4  A    between atoms: C_10  and  C_12
REMARK    5  A    between atoms: C_12  and  N_13
REMARK    6  A    between atoms: C_19  and  C_30
REMARK    7  A    between atoms: C_20  and  C_29
REMARK                            x       y       z     vdW  Elec       q    Type
REMARK                         _______ _______ _______ _____ _____    ______ ____
ROOT
ATOM      1  N   UNL     1      -0.232  -6.827  -2.571  0.00  0.00    +0.388 N 
ATOM      2  C   UNL     1      -0.424  -8.286  -2.570  0.00  0.00    -0.072 C 
ATOM      3  C   UNL     1      -0.805  -8.722  -3.984  0.00  0.00    +0.035 C 
ATOM      4  C   UNL     1       0.184  -8.164  -4.982  0.00  0.00    +0.020 A 
ATOM      5  N   UNL     1       0.206  -8.734  -6.220  0.00  0.00    -0.357 N 
ATOM      6  C   UNL     1       1.058  -8.313  -7.211  0.00  0.00    +0.054 A 
ATOM      7  C   UNL     1       1.065  -8.914  -8.466  0.00  0.00    -0.024 A 
ATOM      8  C   UNL     1       1.934  -8.463  -9.435  0.00  0.00    -0.046 A 
ATOM      9  C   UNL     1       2.804  -7.413  -9.174  0.00  0.00    +0.004 A 
ATOM     10  C   UNL     1       2.814  -6.809  -7.948  0.00  0.00    +0.014 A 
ATOM     11  C   UNL     1       1.943  -7.251  -6.953  0.00  0.00    +0.045 A 
ATOM     12  C   UNL     1       1.918  -6.636  -5.617  0.00  0.00    +0.191 A 
ATOM     13  O   UNL     1       2.662  -5.709  -5.341  0.00  0.00    -0.287 OA
ATOM     14  C   UNL     1       1.006  -7.147  -4.657  0.00  0.00    +0.002 A 
ATOM     15  H   UNL     1      -0.402  -9.466  -6.408  0.00  0.00    +0.166 HD
ATOM     16  C   UNL     1       1.006  -6.517  -3.289  0.00  0.00    -0.037 C 
ATOM     17  C   UNL     1       1.940  -9.116 -10.793  0.00  0.00    +0.044 C 
ATOM     18  C   UNL     1       0.126 -10.055  -8.764  0.00  0.00    +0.046 C 
ATOM     19  H   UNL     1      -1.011  -6.381  -3.031  0.00  0.00    -0.081 HD
ENDROOT
BRANCH   1  20
ATOM     20  C   UNL     1      -0.134  -6.343  -1.187  0.00  0.00    +0.019 C 
BRANCH  20  22
ATOM     21  N   UNL     1       0.059  -4.170  -0.021  0.00  0.00    -0.287 N 
ATOM     22  C   UNL     1      -0.040  -4.839  -1.187  0.00  0.00    +0.201 C 
ATOM     23  O   UNL     1      -0.054  -4.230  -2.236  0.00  0.00    -0.278 OA
ATOM     24  H   UNL     1       0.135  -4.658   0.814  0.00  0.00    +0.155 HD
BRANCH  21  29
ATOM     25  C   UNL     1       0.025   1.503   0.005  0.00  0.00    +0.044 C 
ATOM     26  C   UNL     1       0.034  -0.004  -0.002  0.00  0.00    -0.050 A 
ATOM     27  C   UNL     1       0.632  -0.685  -1.046  0.00  0.00    +0.005 A 
ATOM     28  C   UNL     1       0.641  -2.066  -1.055  0.00  0.00    +0.024 A 
ATOM     29  C   UNL     1       0.051  -2.771  -0.014  0.00  0.00    +0.036 A 
ATOM     30  C   UNL     1      -0.548  -2.083   1.033  0.00  0.00    -0.029 A 
ATOM     31  C   UNL     1      -0.550  -0.702   1.039  0.00  0.00    +0.008 A 
ATOM     32  C   UNL     1      -1.190  -2.843   2.165  0.00  0.00    +0.045 C 
ENDBRANCH  21  29
ENDBRANCH  20  22
ENDBRANCH   1  20
TORSDOF 3
