REMARK  Name = ZINC21324002
REMARK  8 active torsions:
REMARK  status: ('A' for Active; 'I' for Inactive)
REMARK    1  A    between atoms: C_1  and  C_2
REMARK    2  A    between atoms: C_2  and  C_20
REMARK    3  A    between atoms: N_3  and  N_4
REMARK    4  A    between atoms: C_8  and  S_11
REMARK    5  A    between atoms: N_9  and  N_10
REMARK    6  A    between atoms: S_11  and  C_12
REMARK    7  A    between atoms: C_12  and  C_13
REMARK    8  A    between atoms: C_21  and  C_22
REMARK                            x       y       z     vdW  Elec       q    Type
REMARK                         _______ _______ _______ _____ _____    ______ ____
ROOT
ATOM      1  N   UNL     1       1.648  -1.761  -0.023  0.00  0.00    -0.204 N 
ATOM      2  C   UNL     1       1.239  -0.436  -0.012  0.00  0.00    +0.254 A 
ATOM      3  N   UNL     1       0.002  -0.004   0.002  0.00  0.00    -0.109 NA
ATOM      4  N   UNL     1      -0.015   1.281   0.009  0.00  0.00    -0.119 NA
ATOM      5  C   UNL     1       1.210   1.747  -0.000  0.00  0.00    +0.210 A 
ATOM      6  N   UNL     1       2.053   0.667  -0.014  0.00  0.00    -0.211 N 
ATOM      7  H   UNL     1       2.720  -2.006  -0.034  0.00  0.00    +0.178 HD
ENDROOT
BRANCH   1  10
ATOM      8  C   UNL     1       2.549  -4.369  -0.044  0.00  0.00    +0.067 C 
ATOM      9  C   UNL     1       1.080  -4.034  -0.029  0.00  0.00    +0.056 C 
ATOM     10  N   UNL     1       0.695  -2.789  -0.019  0.00  0.00    -0.185 NA
BRANCH   9  11
ATOM     11  C   UNL     1       0.117  -5.073  -0.026  0.00  0.00    +0.025 C 
ATOM     12  C   UNL     1      -1.199  -4.773  -0.012  0.00  0.00    +0.010 C 
BRANCH  12  13
ATOM     13  C   UNL     1      -2.200  -5.853  -0.008  0.00  0.00    -0.025 A 
ATOM     14  C   UNL     1      -1.791  -7.190  -0.025  0.00  0.00    +0.008 A 
ATOM     15  C   UNL     1      -2.735  -8.195  -0.015  0.00  0.00    +0.001 A 
ATOM     16  C   UNL     1      -4.083  -7.884  -0.002  0.00  0.00    +0.000 A 
ATOM     17  C   UNL     1      -4.496  -6.563   0.009  0.00  0.00    +0.001 A 
ATOM     18  C   UNL     1      -3.564  -5.546   0.006  0.00  0.00    +0.008 A 
ENDBRANCH  12  13
ENDBRANCH   9  11
ENDBRANCH   1  10
BRANCH   6  19
ATOM     19  N   UNL     1       3.418   0.686  -0.027  0.00  0.00    -0.294 N 
ATOM     20  H   UNL     1       3.955   1.646  -0.027  0.00  0.00    +0.163 HD
ATOM     21  H   UNL     1       3.982  -0.259  -0.037  0.00  0.00    +0.163 HD
ENDBRANCH   6  19
BRANCH   5  22
ATOM     22  S   UNL     1       1.683   3.444   0.004  0.00  0.00    -0.080 S 
BRANCH  22  23
ATOM     23  C   UNL     1       0.051   4.226   0.024  0.00  0.00    +0.112 C 
BRANCH  23  24
ATOM     24  C   UNL     1       0.212   5.724   0.030  0.00  0.00    -0.036 A 
ATOM     25  C   UNL     1       0.274   6.418  -1.164  0.00  0.00    +0.004 A 
ATOM     26  C   UNL     1       0.420   7.792  -1.159  0.00  0.00    +0.001 A 
ATOM     27  C   UNL     1       0.505   8.474   0.040  0.00  0.00    +0.015 A 
ATOM     28  C   UNL     1       0.444   7.781   1.235  0.00  0.00    +0.018 A 
ATOM     29  C   UNL     1       0.291   6.406   1.230  0.00  0.00    +0.019 A 
ATOM     30 BR   UNL     1       0.560   8.713   2.876  0.00  0.00    -0.050 Br
ENDBRANCH  23  24
ENDBRANCH  22  23
ENDBRANCH   5  22
TORSDOF 7
