REMARK  Name = ZINC04527985
REMARK  8 active torsions:
REMARK  status: ('A' for Active; 'I' for Inactive)
REMARK    1  A    between atoms: C_10  and  C_11
REMARK    2  A    between atoms: C_11  and  O_12
REMARK    3  A    between atoms: O_12  and  C_13
REMARK    4  A    between atoms: C_18  and  C_19
REMARK    5  A    between atoms: C_21  and  C_25
REMARK    6  A    between atoms: N_27  and  N_28
REMARK    7  A    between atoms: C_29  and  C_30
REMARK    8  A    between atoms: C_34  and  N_36
REMARK                            x       y       z     vdW  Elec       q    Type
REMARK                         _______ _______ _______ _____ _____    ______ ____
ROOT
ATOM      1  C   UNL     1      -3.039  11.611   0.096  0.00  0.00    +0.097 A 
ATOM      2  C   UNL     1      -3.536  10.296   0.087  0.00  0.00    +0.062 A 
ATOM      3  C   UNL     1      -2.418   9.483   0.077  0.00  0.00    +0.122 A 
ATOM      4  N   UNL     1      -1.335  10.316   0.072  0.00  0.00    -0.272 N 
ATOM      5  H   UNL     1      -0.380  10.017   0.060  0.00  0.00    +0.189 HD
ATOM      6  N   UNL     1      -1.724  11.540   0.082  0.00  0.00    -0.173 NA
ENDROOT
BRANCH   1  12
ATOM      7  C   UNL     1      -3.219  14.103   0.118  0.00  0.00    +0.130 A 
ATOM      8  C   UNL     1      -3.983  15.259   0.127  0.00  0.00    +0.046 A 
ATOM      9  C   UNL     1      -5.363  15.177   0.140  0.00  0.00    +0.004 A 
ATOM     10  C   UNL     1      -5.989  13.943   0.138  0.00  0.00    +0.001 A 
ATOM     11  C   UNL     1      -5.239  12.784   0.123  0.00  0.00    +0.014 A 
ATOM     12  C   UNL     1      -3.849  12.855   0.111  0.00  0.00    +0.044 A 
BRANCH   7  13
ATOM     13  O   UNL     1      -1.863  14.182   0.111  0.00  0.00    -0.487 OA
BRANCH  13  14
ATOM     14  C   UNL     1      -1.290  15.491   0.119  0.00  0.00    +0.265 C 
BRANCH  14  24
ATOM     15  C   UNL     1       2.615  18.800   0.129  0.00  0.00    +0.001 A 
ATOM     16  C   UNL     1       1.227  18.922   0.137  0.00  0.00    +0.001 A 
ATOM     17  C   UNL     1       0.427  17.821   0.131  0.00  0.00    +0.009 A 
ATOM     18  C   UNL     1       1.006  16.541   0.116  0.00  0.00    -0.011 A 
ATOM     19  C   UNL     1       2.418  16.417   0.107  0.00  0.00    -0.018 A 
ATOM     20  C   UNL     1       3.212  17.577   0.114  0.00  0.00    +0.008 A 
ATOM     21  C   UNL     1       2.998  15.137   0.092  0.00  0.00    +0.008 A 
ATOM     22  C   UNL     1       2.198  14.036   0.087  0.00  0.00    +0.001 A 
ATOM     23  C   UNL     1       0.810  14.157   0.102  0.00  0.00    +0.007 A 
ATOM     24  C   UNL     1       0.213  15.381   0.110  0.00  0.00    -0.003 A 
ENDBRANCH  14  24
ENDBRANCH  13  14
ENDBRANCH   7  13
ENDBRANCH   1  12
BRANCH   3  25
ATOM     25  C   UNL     1      -2.398   8.012   0.069  0.00  0.00    +0.281 C 
ATOM     26  O   UNL     1      -3.443   7.389   0.075  0.00  0.00    -0.267 OA
ATOM     27  N   UNL     1      -1.222   7.354   0.054  0.00  0.00    -0.202 N 
ATOM     28  H   UNL     1      -0.388   7.850   0.049  0.00  0.00    +0.178 HD
BRANCH  27  29
ATOM     29  N   UNL     1      -1.203   5.953   0.046  0.00  0.00    -0.187 NA
ATOM     30  C   UNL     1      -0.070   5.320   0.032  0.00  0.00    +0.138 C 
BRANCH  30  31
ATOM     31  C   UNL     1      -0.050   3.845   0.023  0.00  0.00    -0.003 A 
ATOM     32  C   UNL     1      -1.248   3.127   0.031  0.00  0.00    +0.009 A 
ATOM     33  C   UNL     1      -1.222   1.748   0.017  0.00  0.00    +0.003 A 
ATOM     34  C   UNL     1      -0.013   1.076   0.008  0.00  0.00    +0.033 A 
ATOM     35  C   UNL     1       1.178   1.780   0.000  0.00  0.00    +0.127 A 
ATOM     36  C   UNL     1       1.167   3.160   0.008  0.00  0.00    +0.042 A 
BRANCH  35  37
ATOM     37  N   UNL     1       2.467   1.053  -0.016  0.00  0.00    +0.056 N 
ATOM     38  O   UNL     1       2.478  -0.165  -0.023  0.00  0.00    -0.126 OA
ATOM     39  O   UNL     1       3.516   1.671  -0.023  0.00  0.00    -0.126 OA
ENDBRANCH  35  37
ENDBRANCH  30  31
ENDBRANCH  27  29
ENDBRANCH   3  25
TORSDOF 8
