REMARK  Name = ZINC17288621
REMARK  7 active torsions:
REMARK  status: ('A' for Active; 'I' for Inactive)
REMARK    1  A    between atoms: C_4  and  S_22
REMARK    2  A    between atoms: C_5  and  N_7
REMARK    3  A    between atoms: C_8  and  C_10
REMARK    4  A    between atoms: C_10  and  N_11
REMARK    5  A    between atoms: C_15  and  C_17
REMARK    6  A    between atoms: S_22  and  C_23
REMARK    7  A    between atoms: C_23  and  C_24
REMARK                            x       y       z     vdW  Elec       q    Type
REMARK                         _______ _______ _______ _____ _____    ______ ____
ROOT
ATOM      1  N   UNL     1       1.233  -2.082  -0.021  0.00  0.00    -0.286 N 
ATOM      2  C   UNL     1       0.082  -2.774   0.088  0.00  0.00    +0.201 C 
ATOM      3  O   UNL     1      -0.980  -2.187   0.102  0.00  0.00    -0.278 OA
ATOM      4  H   UNL     1       2.077  -2.554  -0.097  0.00  0.00    +0.155 HD
ENDROOT
BRANCH   1   9
ATOM      5  C   UNL     1       0.135   1.379  -0.616  0.00  0.00    +0.002 A 
ATOM      6  C   UNL     1       1.166   2.090  -0.031  0.00  0.00    +0.001 A 
ATOM      7  C   UNL     1       2.223   1.424   0.559  0.00  0.00    +0.016 A 
ATOM      8  C   UNL     1       2.252   0.037   0.566  0.00  0.00    +0.030 A 
ATOM      9  C   UNL     1       1.211  -0.681  -0.024  0.00  0.00    +0.047 A 
ATOM     10  C   UNL     1       0.155  -0.004  -0.614  0.00  0.00    +0.024 A 
BRANCH   8  11
ATOM     11  S   UNL     1       3.599  -0.816   1.317  0.00  0.00    -0.114 S 
BRANCH  11  12
ATOM     12  C   UNL     1       4.672   0.512   1.928  0.00  0.00    +0.169 C 
BRANCH  12  13
ATOM     13  C   UNL     1       5.879  -0.088   2.602  0.00  0.00    +0.221 C 
ATOM     14  O   UNL     1       6.003  -1.293   2.664  0.00  0.00    -0.275 OA
ATOM     15  N   UNL     1       6.821   0.715   3.137  0.00  0.00    -0.329 N 
ATOM     16  H   UNL     1       6.722   1.678   3.087  0.00  0.00    +0.145 HD
ATOM     17  H   UNL     1       7.598   0.328   3.571  0.00  0.00    +0.145 HD
ENDBRANCH  12  13
ENDBRANCH  11  12
ENDBRANCH   8  11
ENDBRANCH   1   9
BRANCH   2  18
ATOM     18  C   UNL     1       0.113  -4.277   0.194  0.00  0.00    +0.020 C 
BRANCH  18  19
ATOM     19  N   UNL     1      -1.259  -4.789   0.302  0.00  0.00    +0.390 N 
ATOM     20  C   UNL     1      -1.857  -4.342   1.573  0.00  0.00    -0.077 C 
ATOM     21  C   UNL     1      -2.248  -5.608   2.365  0.00  0.00    -0.020 C 
ATOM     22  C   UNL     1      -2.370  -6.688   1.259  0.00  0.00    -0.012 C 
ATOM     23  C   UNL     1      -1.242  -6.268   0.284  0.00  0.00    -0.030 C 
ATOM     24  H   UNL     1      -1.812  -4.447  -0.470  0.00  0.00    -0.080 HD
BRANCH  23  25
ATOM     25  C   UNL     1      -1.530  -6.779  -1.104  0.00  0.00    -0.024 A 
ATOM     26  C   UNL     1      -0.967  -7.821  -1.763  0.00  0.00    +0.009 A 
ATOM     27  C   UNL     1      -1.393  -8.112  -3.046  0.00  0.00    +0.008 A 
ATOM     28  C   UNL     1      -2.361  -7.346  -3.606  0.00  0.00    +0.045 A 
ATOM     29  S   UNL     1      -2.705  -6.174  -2.304  0.00  0.00    -0.103 S 
ENDBRANCH  23  25
ENDBRANCH  18  19
ENDBRANCH   2  18
TORSDOF 7
