REMARK  Name = ZINC63830570
REMARK  9 active torsions:
REMARK  status: ('A' for Active; 'I' for Inactive)
REMARK    1  A    between atoms: C_7  and  C_10
REMARK    2  A    between atoms: C_10  and  C_11
REMARK    3  A    between atoms: C_11  and  N_12
REMARK    4  A    between atoms: C_13  and  C_15
REMARK    5  A    between atoms: C_20  and  S_21
REMARK    6  A    between atoms: S_21  and  C_22
REMARK    7  A    between atoms: C_22  and  C_23
REMARK    8  A    between atoms: N_25  and  C_26
REMARK    9  A    between atoms: C_26  and  C_27
REMARK                            x       y       z     vdW  Elec       q    Type
REMARK                         _______ _______ _______ _____ _____    ______ ____
ROOT
ATOM      1  C   UNL     1      -1.731  -6.532  -2.622  0.00  0.00    +0.050 A 
ATOM      2  C   UNL     1      -2.245  -7.019  -1.417  0.00  0.00    +0.014 A 
ATOM      3  C   UNL     1      -3.105  -8.095  -1.423  0.00  0.00    +0.001 A 
ATOM      4  C   UNL     1      -3.464  -8.700  -2.618  0.00  0.00    +0.001 A 
ATOM      5  C   UNL     1      -2.965  -8.231  -3.815  0.00  0.00    +0.015 A 
ATOM      6  C   UNL     1      -2.101  -7.142  -3.831  0.00  0.00    +0.020 A 
ENDROOT
BRANCH   1   8
ATOM      7  N   UNL     1      -0.458  -4.798  -1.460  0.00  0.00    -0.311 N 
ATOM      8  C   UNL     1      -0.811  -5.380  -2.623  0.00  0.00    +0.245 C 
ATOM      9  O   UNL     1      -0.369  -4.956  -3.674  0.00  0.00    -0.270 OA
ATOM     10  H   UNL     1      -0.810  -5.136  -0.622  0.00  0.00    +0.149 HD
BRANCH   7  11
ATOM     11  C   UNL     1       0.457  -3.653  -1.462  0.00  0.00    +0.109 C 
BRANCH  11  12
ATOM     12  C   UNL     1       0.691  -3.186  -0.024  0.00  0.00    +0.052 C 
BRANCH  12  19
ATOM     13  C   UNL     1      -0.016   1.348   0.009  0.00  0.00    +0.001 A 
ATOM     14  C   UNL     1       1.166   2.101   0.002  0.00  0.00    +0.002 A 
ATOM     15  C   UNL     1       2.391   1.535  -0.013  0.00  0.00    +0.026 A 
ATOM     16  C   UNL     1       2.529   0.120  -0.022  0.00  0.00    +0.043 A 
ATOM     17  N   UNL     1       3.587  -0.654  -0.037  0.00  0.00    -0.380 N 
ATOM     18  C   UNL     1       3.143  -2.053  -0.041  0.00  0.00    +0.144 C 
ATOM     19  C   UNL     1       1.631  -2.008  -0.025  0.00  0.00    -0.040 C 
ATOM     20  C   UNL     1       1.295  -0.698  -0.014  0.00  0.00    -0.001 A 
ATOM     21  C   UNL     1       0.002  -0.004   0.002  0.00  0.00    +0.010 A 
ATOM     22  H   UNL     1       4.509  -0.353  -0.045  0.00  0.00    +0.160 HD
ENDBRANCH  12  19
ENDBRANCH  11  12
ENDBRANCH   7  11
ENDBRANCH   1   8
BRANCH   6  23
ATOM     23  S   UNL     1      -1.469  -6.535  -5.360  0.00  0.00    -0.115 S 
BRANCH  23  24
ATOM     24  C   UNL     1      -2.216  -7.622  -6.606  0.00  0.00    +0.170 C 
BRANCH  24  25
ATOM     25  C   UNL     1      -1.751  -7.207  -7.978  0.00  0.00    +0.223 C 
ATOM     26  O   UNL     1      -0.990  -6.270  -8.103  0.00  0.00    -0.275 OA
ATOM     27  N   UNL     1      -2.180  -7.876  -9.066  0.00  0.00    -0.314 N 
ATOM     28  H   UNL     1      -2.788  -8.625  -8.966  0.00  0.00    +0.149 HD
BRANCH  27  29
ATOM     29  C   UNL     1      -1.728  -7.472 -10.400  0.00  0.00    +0.107 C 
BRANCH  29  30
ATOM     30  C   UNL     1      -2.358  -8.389 -11.450  0.00  0.00    +0.006 C 
ATOM     31  C   UNL     1      -1.837  -9.815 -11.261  0.00  0.00    +0.005 C 
ATOM     32  C   UNL     1      -2.467 -10.731 -12.312  0.00  0.00    +0.000 C 
ATOM     33  C   UNL     1      -2.096 -10.234 -13.711  0.00  0.00    +0.000 C 
ATOM     34  C   UNL     1      -2.616  -8.808 -13.900  0.00  0.00    +0.000 C 
ATOM     35  C   UNL     1      -1.986  -7.891 -12.849  0.00  0.00    +0.005 C 
ENDBRANCH  29  30
ENDBRANCH  27  29
ENDBRANCH  24  25
ENDBRANCH  23  24
ENDBRANCH   6  23
TORSDOF 9
