REMARK  Name = ZINC28053048
REMARK  7 active torsions:
REMARK  status: ('A' for Active; 'I' for Inactive)
REMARK    1  A    between atoms: C_1  and  C_2
REMARK    2  A    between atoms: C_10  and  C_12
REMARK    3  A    between atoms: C_15  and  C_18
REMARK    4  A    between atoms: C_18  and  C_19
REMARK    5  A    between atoms: C_18  and  C_20
REMARK    6  A    between atoms: C_24  and  C_27
REMARK    7  A    between atoms: C_30  and  O_33
REMARK                            x       y       z     vdW  Elec       q    Type
REMARK                         _______ _______ _______ _____ _____    ______ ____
ROOT
ATOM      1  C   UNL     1      -4.325  -5.037   0.787  0.00  0.00    +0.069 C 
ATOM      2  C   UNL     1      -5.190  -4.119   1.612  0.00  0.00    +0.087 A 
ATOM      3  C   UNL     1      -5.631  -2.846   1.261  0.00  0.00    +0.049 A 
ATOM      4  C   UNL     1      -6.379  -2.434   2.334  0.00  0.00    +0.226 A 
ATOM      5  O   UNL     1      -6.341  -3.426   3.217  0.00  0.00    -0.339 OA
ATOM      6  N   UNL     1      -5.678  -4.358   2.804  0.00  0.00    -0.081 NA
ATOM      7  N   UNL     1      -6.993  -1.198   2.344  0.00  0.00    -0.286 N 
ATOM      8  C   UNL     1      -7.097  -0.507   1.160  0.00  0.00    +0.019 C 
ATOM      9  C   UNL     1      -6.387  -0.840   0.060  0.00  0.00    +0.024 C 
ATOM     10  C   UNL     1      -5.419  -2.005   0.043  0.00  0.00    +0.091 C 
ATOM     11  C   UNL     1      -6.517  -0.107  -1.133  0.00  0.00    +0.162 C 
ATOM     12  O   UNL     1      -5.878  -0.445  -2.110  0.00  0.00    -0.292 OA
ATOM     13  C   UNL     1      -7.428   1.085  -1.228  0.00  0.00    +0.088 C 
ATOM     14  C   UNL     1      -7.556   1.722   0.160  0.00  0.00    +0.032 C 
ATOM     15  C   UNL     1      -8.062   0.657   1.133  0.00  0.00    +0.059 C 
ATOM     16  H   UNL     1      -7.386  -0.787   3.285  0.00  0.00    +0.155 HD
ENDROOT
BRANCH  10  17
ATOM     17  C   UNL     1      -4.005  -1.483   0.033  0.00  0.00    -0.035 A 
ATOM     18  C   UNL     1      -3.160  -1.799  -1.014  0.00  0.00    +0.005 A 
ATOM     19  C   UNL     1      -1.863  -1.321  -1.024  0.00  0.00    +0.004 A 
ATOM     20  C   UNL     1      -1.412  -0.526   0.013  0.00  0.00    -0.045 A 
ATOM     21  C   UNL     1      -2.256  -0.214   1.062  0.00  0.00    +0.004 A 
ATOM     22  C   UNL     1      -3.554  -0.688   1.070  0.00  0.00    +0.005 A 
BRANCH  20  23
ATOM     23  C   UNL     1       0.002  -0.004   0.002  0.00  0.00    +0.013 C 
ATOM     24  C   UNL     1      -0.019   1.526   0.010  0.00  0.00    +0.012 C 
ATOM     25  C   UNL     1       0.742  -0.511   1.242  0.00  0.00    +0.012 C 
ENDBRANCH  20  23
ENDBRANCH  10  17
BRANCH  14  26
ATOM     26  C   UNL     1      -8.536   2.866   0.106  0.00  0.00    -0.043 A 
ATOM     27  C   UNL     1      -9.838   2.641  -0.303  0.00  0.00    +0.007 A 
ATOM     28  C   UNL     1     -10.739   3.687  -0.348  0.00  0.00    +0.045 A 
ATOM     29  C   UNL     1     -10.335   4.966   0.006  0.00  0.00    +0.117 A 
ATOM     30  C   UNL     1      -9.027   5.190   0.410  0.00  0.00    +0.045 A 
ATOM     31  C   UNL     1      -8.130   4.140   0.459  0.00  0.00    +0.007 A 
BRANCH  29  32
ATOM     32  O   UNL     1     -11.218   5.997  -0.042  0.00  0.00    -0.507 OA
ATOM     33  H   UNL     1     -10.896   7.011   0.239  0.00  0.00    +0.292 HD
ENDBRANCH  29  32
ENDBRANCH  14  26
TORSDOF 4
