REMARK  Name = ZINC21504410
REMARK  5 active torsions:
REMARK  status: ('A' for Active; 'I' for Inactive)
REMARK    1  A    between atoms: C_1  and  C_2
REMARK    2  A    between atoms: N_5  and  C_8
REMARK    3  A    between atoms: C_8  and  C_9
REMARK    4  A    between atoms: N_11  and  C_12
REMARK    5  A    between atoms: C_15  and  N_19
REMARK                            x       y       z     vdW  Elec       q    Type
REMARK                         _______ _______ _______ _____ _____    ______ ____
ROOT
ATOM      1  C   UNL     1       4.234   3.581   2.718  0.00  0.00    +0.201 C 
ATOM      2  O   UNL     1       4.025   4.068   3.809  0.00  0.00    -0.278 OA
ATOM      3  N   UNL     1       4.459   4.379   1.655  0.00  0.00    -0.285 N 
ATOM      4  H   UNL     1       4.730   3.939   0.684  0.00  0.00    +0.155 HD
ENDROOT
BRANCH   3   5
ATOM      5  C   UNL     1       4.346   5.771   1.787  0.00  0.00    +0.070 A 
ATOM      6  C   UNL     1       3.121   6.391   1.577  0.00  0.00    +0.065 A 
ATOM      7  C   UNL     1       3.008   7.762   1.712  0.00  0.00    +0.044 A 
ATOM      8  C   UNL     1       4.122   8.520   2.048  0.00  0.00    +0.027 A 
ATOM      9  C   UNL     1       5.348   7.901   2.253  0.00  0.00    +0.044 A 
ATOM     10  C   UNL     1       5.460   6.529   2.123  0.00  0.00    +0.065 A 
ATOM     11 CL   UNL     1       6.992   5.755   2.380  0.00  0.00    -0.082 Cl
ATOM     12 CL   UNL     1       1.730   5.444   1.150  0.00  0.00    -0.082 Cl
BRANCH   8  13
ATOM     13  N   UNL     1       4.010   9.908   2.181  0.00  0.00    -0.358 N 
ATOM     14  H   UNL     1       4.892  10.509   2.447  0.00  0.00    +0.142 HD
ATOM     15  H   UNL     1       3.039  10.399   2.018  0.00  0.00    +0.142 HD
ENDBRANCH   8  13
ENDBRANCH   3   5
BRANCH   1  16
ATOM     16  C   UNL     1       4.244   2.083   2.551  0.00  0.00    +0.019 C 
BRANCH  16  21
ATOM     17  C   UNL     1       2.522  -0.883   7.123  0.00  0.00    +0.007 C 
ATOM     18  C   UNL     1       2.655  -0.329   5.703  0.00  0.00    -0.018 C 
ATOM     19  C   UNL     1       2.420   1.184   5.720  0.00  0.00    -0.016 C 
ATOM     20  C   UNL     1       2.614   1.741   4.307  0.00  0.00    -0.078 C 
ATOM     21  N   UNL     1       3.976   1.444   3.846  0.00  0.00    +0.385 N 
ATOM     22  C   UNL     1       4.210  -0.004   3.777  0.00  0.00    -0.078 C 
ATOM     23  C   UNL     1       4.063  -0.613   5.173  0.00  0.00    -0.016 C 
ATOM     24  H   UNL     1       4.678   1.862   4.583  0.00  0.00    -0.081 HD
ENDBRANCH  16  21
ENDBRANCH   1  16
TORSDOF 4
