REMARK  Name = ZINC49163863
REMARK  6 active torsions:
REMARK  status: ('A' for Active; 'I' for Inactive)
REMARK    1  A    between atoms: C_1  and  C_2
REMARK    2  A    between atoms: C_2  and  C_3
REMARK    3  A    between atoms: C_2  and  C_4
REMARK    4  A    between atoms: C_4  and  N_5
REMARK    5  A    between atoms: N_8  and  N_9
REMARK    6  A    between atoms: C_10  and  C_12
REMARK                            x       y       z     vdW  Elec       q    Type
REMARK                         _______ _______ _______ _____ _____    ______ ____
ROOT
ATOM      1  N   UNL     1      -1.435   0.569   4.652  0.00  0.00    -0.229 N 
ATOM      2  C   UNL     1      -2.125   0.910   5.758  0.00  0.00    +0.260 C 
ATOM      3  O   UNL     1      -1.706   0.600   6.856  0.00  0.00    -0.269 OA
ATOM      4  H   UNL     1      -1.769   0.817   3.776  0.00  0.00    +0.173 HD
ENDROOT
BRANCH   2   5
ATOM      5  C   UNL     1      -3.392   1.662   5.636  0.00  0.00    +0.041 A 
ATOM      6  C   UNL     1      -3.879   2.015   4.377  0.00  0.00    +0.033 A 
ATOM      7  C   UNL     1      -5.063   2.717   4.269  0.00  0.00    +0.043 A 
ATOM      8  C   UNL     1      -5.767   3.071   5.407  0.00  0.00    +0.040 A 
ATOM      9  C   UNL     1      -5.289   2.724   6.660  0.00  0.00    +0.043 A 
ATOM     10  C   UNL     1      -4.109   2.017   6.779  0.00  0.00    +0.033 A 
ATOM     11 CL   UNL     1      -6.178   3.174   8.081  0.00  0.00    -0.083 Cl
ATOM     12 CL   UNL     1      -5.671   3.156   2.703  0.00  0.00    -0.083 Cl
ENDBRANCH   2   5
BRANCH   1  16
ATOM     13  N   UNL     1      -0.008  -0.140   2.444  0.00  0.00    -0.298 N 
ATOM     14  C   UNL     1       0.457  -0.484   3.661  0.00  0.00    +0.316 C 
ATOM     15  O   UNL     1       1.499  -1.102   3.762  0.00  0.00    -0.251 OA
ATOM     16  N   UNL     1      -0.234  -0.143   4.767  0.00  0.00    -0.218 N 
ATOM     17  H   UNL     1      -0.840   0.353   2.364  0.00  0.00    +0.150 HD
ATOM     18  H   UNL     1       0.101  -0.391   5.644  0.00  0.00    +0.174 HD
BRANCH  13  19
ATOM     19  C   UNL     1       0.742  -0.511   1.242  0.00  0.00    +0.108 C 
BRANCH  19  21
ATOM     20  C   UNL     1      -0.019   1.526   0.010  0.00  0.00    +0.009 C 
ATOM     21  C   UNL     1       0.002  -0.004   0.002  0.00  0.00    -0.000 C 
ATOM     22  C   UNL     1       0.718  -0.497  -1.257  0.00  0.00    +0.009 C 
ENDBRANCH  19  21
ENDBRANCH  13  19
ENDBRANCH   1  16
TORSDOF 4
