REMARK  Name = ZINC39941110
REMARK  7 active torsions:
REMARK  status: ('A' for Active; 'I' for Inactive)
REMARK    1  A    between atoms: C_1  and  C_2
REMARK    2  A    between atoms: C_10  and  C_14
REMARK    3  A    between atoms: C_15  and  C_16
REMARK    4  A    between atoms: C_18  and  O_24
REMARK    5  A    between atoms: C_20  and  O_22
REMARK    6  A    between atoms: O_22  and  C_23
REMARK    7  A    between atoms: O_24  and  C_25
REMARK                            x       y       z     vdW  Elec       q    Type
REMARK                         _______ _______ _______ _____ _____    ______ ____
ROOT
ATOM      1  C   UNL     1      -0.295   2.826   0.993  0.00  0.00    +0.007 C 
ATOM      2  C   UNL     1      -0.270   1.327   0.689  0.00  0.00    -0.012 C 
ATOM      3  C   UNL     1      -1.703   0.803   0.633  0.00  0.00    +0.008 C 
ATOM      4  C   UNL     1      -2.429   1.088   1.954  0.00  0.00    +0.033 C 
ATOM      5  C   UNL     1      -1.552   0.520   3.067  0.00  0.00    -0.042 C 
ATOM      6  C   UNL     1      -1.961  -0.350   3.988  0.00  0.00    +0.071 C 
ATOM      7  C   UNL     1      -0.942  -0.955   4.888  0.00  0.00    +0.112 C 
ATOM      8  N   UNL     1      -1.245  -1.850   5.792  0.00  0.00    -0.222 NA
ATOM      9  C   UNL     1      -2.534  -2.220   5.897  0.00  0.00    +0.165 C 
ATOM     10  N   UNL     1      -3.520  -1.751   5.153  0.00  0.00    -0.156 NA
ATOM     11  C   UNL     1      -3.369  -0.836   4.185  0.00  0.00    +0.272 C 
ATOM     12  O   UNL     1      -4.304  -0.429   3.515  0.00  0.00    -0.268 OA
ATOM     13  S   UNL     1       0.579  -0.190   4.423  0.00  0.00    -0.097 S 
ATOM     14  C   UNL     1      -0.082   0.939   3.137  0.00  0.00    +0.080 C 
ATOM     15  C   UNL     1       0.534   0.607   1.777  0.00  0.00    +0.022 C 
ENDROOT
BRANCH   9  16
ATOM     16  C   UNL     1      -2.871  -3.223   6.916  0.00  0.00    +0.083 C 
ATOM     17  C   UNL     1      -4.148  -3.630   7.065  0.00  0.00    +0.031 C 
ATOM     18 CL   UNL     1      -1.626  -3.883   7.929  0.00  0.00    -0.080 Cl
BRANCH  17  19
ATOM     19  C   UNL     1      -4.514  -4.510   8.187  0.00  0.00    -0.017 A 
ATOM     20  C   UNL     1      -3.847  -4.400   9.411  0.00  0.00    +0.053 A 
ATOM     21  C   UNL     1      -4.196  -5.230  10.462  0.00  0.00    +0.124 A 
ATOM     22  C   UNL     1      -5.205  -6.169  10.303  0.00  0.00    +0.091 A 
ATOM     23  C   UNL     1      -5.870  -6.282   9.091  0.00  0.00    +0.124 A 
ATOM     24  C   UNL     1      -5.533  -5.454   8.034  0.00  0.00    +0.053 A 
BRANCH  23  25
ATOM     25  O   UNL     1      -6.857  -7.205   8.942  0.00  0.00    -0.495 OA
ATOM     26  C   UNL     1      -7.157  -8.023  10.075  0.00  0.00    +0.277 C 
ENDBRANCH  23  25
BRANCH  21  27
ATOM     27  O   UNL     1      -3.549  -5.124  11.653  0.00  0.00    -0.495 OA
ATOM     28  C   UNL     1      -3.959  -6.011  12.695  0.00  0.00    +0.277 C 
ENDBRANCH  21  27
ENDBRANCH  17  19
ENDBRANCH   9  16
TORSDOF 4
