REMARK  Name = ZINC09509551
REMARK  9 active torsions:
REMARK  status: ('A' for Active; 'I' for Inactive)
REMARK    1  A    between atoms: C_5  and  C_7
REMARK    2  A    between atoms: C_7  and  C_8
REMARK    3  A    between atoms: C_11  and  S_14
REMARK    4  A    between atoms: N_12  and  N_13
REMARK    5  A    between atoms: S_14  and  C_15
REMARK    6  A    between atoms: C_15  and  C_16
REMARK    7  A    between atoms: N_18  and  C_19
REMARK    8  A    between atoms: C_23  and  S_25
REMARK    9  A    between atoms: S_25  and  N_28
REMARK                            x       y       z     vdW  Elec       q    Type
REMARK                         _______ _______ _______ _____ _____    ______ ____
ROOT
ATOM      1  C   UNL     1      -2.476   0.802   0.132  0.00  0.00    +0.173 C 
ENDROOT
BRANCH   1   2
ATOM      2  C   UNL     1      -1.202   1.598   0.017  0.00  0.00    +0.227 C 
ATOM      3  O   UNL     1      -1.247   2.807  -0.067  0.00  0.00    -0.275 OA
ATOM      4  N   UNL     1      -0.011   0.966   0.007  0.00  0.00    -0.285 N 
ATOM      5  H   UNL     1       0.023  -0.004   0.007  0.00  0.00    +0.155 HD
BRANCH   4   6
ATOM      6  C   UNL     1       1.175   1.708  -0.008  0.00  0.00    +0.035 A 
ATOM      7  C   UNL     1       1.238   2.906  -0.708  0.00  0.00    +0.023 A 
ATOM      8  C   UNL     1       2.408   3.639  -0.717  0.00  0.00    +0.004 A 
ATOM      9  C   UNL     1       3.520   3.176  -0.038  0.00  0.00    +0.028 A 
ATOM     10  C   UNL     1       3.463   1.981   0.656  0.00  0.00    +0.107 A 
ATOM     11  C   UNL     1       2.294   1.246   0.673  0.00  0.00    +0.051 A 
BRANCH  10  12
ATOM     12  S   UNL     1       4.883   1.396   1.520  0.00  0.00    +0.061 S 
ATOM     13  O   UNL     1       5.685   2.534   1.801  0.00  0.00    -0.153 OA
ATOM     14  O   UNL     1       4.409   0.527   2.539  0.00  0.00    -0.153 OA
BRANCH  12  15
ATOM     15  N   UNL     1       5.746   0.458   0.463  0.00  0.00    -0.177 NA
ATOM     16  C   UNL     1       5.585  -0.991   0.275  0.00  0.00    +0.109 C 
ATOM     17  C   UNL     1       6.613  -1.433  -0.788  0.00  0.00    +0.018 C 
ATOM     18  C   UNL     1       7.683  -0.311  -0.721  0.00  0.00    +0.018 C 
ATOM     19  C   UNL     1       6.808   0.937  -0.441  0.00  0.00    +0.109 C 
ENDBRANCH  12  15
ENDBRANCH  10  12
ENDBRANCH   4   6
ENDBRANCH   1   2
BRANCH   1  20
ATOM     20  S   UNL     1      -3.893   1.927   0.117  0.00  0.00    -0.075 S 
BRANCH  20  24
ATOM     21  C   UNL     1      -7.177  -0.157   0.417  0.00  0.00    +0.155 A 
ATOM     22  N   UNL     1      -6.255  -1.078   0.441  0.00  0.00    -0.132 NA
ATOM     23  N   UNL     1      -5.092  -0.540   0.349  0.00  0.00    -0.121 NA
ATOM     24  C   UNL     1      -5.209   0.764   0.261  0.00  0.00    +0.209 A 
ATOM     25  N   UNL     1      -6.544   1.050   0.307  0.00  0.00    -0.228 N 
BRANCH  25  26
ATOM     26  N   UNL     1      -7.125   2.285   0.252  0.00  0.00    -0.295 N 
ATOM     27  H   UNL     1      -7.326   2.548  -0.701  0.00  0.00    +0.163 HD
ATOM     28  H   UNL     1      -7.959   2.317   0.820  0.00  0.00    +0.163 HD
ENDBRANCH  25  26
BRANCH  21  29
ATOM     29  C   UNL     1      -8.665  -0.381   0.501  0.00  0.00    +0.116 C 
BRANCH  29  34
ATOM     30  C   UNL     1     -10.066   0.814   3.797  0.00  0.00    +0.000 A 
ATOM     31  C   UNL     1      -9.890  -0.302   4.594  0.00  0.00    +0.003 A 
ATOM     32  C   UNL     1      -9.317  -1.444   4.068  0.00  0.00    +0.038 A 
ATOM     33  C   UNL     1      -8.924  -1.472   2.740  0.00  0.00    +0.127 A 
ATOM     34  C   UNL     1      -9.097  -0.353   1.945  0.00  0.00    -0.005 A 
ATOM     35  C   UNL     1      -9.670   0.788   2.473  0.00  0.00    +0.007 A 
ATOM     36  F   UNL     1      -8.369  -2.590   2.224  0.00  0.00    -0.205 F 
ENDBRANCH  29  34
ENDBRANCH  21  29
ENDBRANCH  20  24
ENDBRANCH   1  20
TORSDOF 9
