REMARK  Name = ZINC34831517
REMARK  8 active torsions:
REMARK  status: ('A' for Active; 'I' for Inactive)
REMARK    1  A    between atoms: C_1  and  C_2
REMARK    2  A    between atoms: C_2  and  C_3
REMARK    3  A    between atoms: C_2  and  C_4
REMARK    4  A    between atoms: C_2  and  N_5
REMARK    5  A    between atoms: C_6  and  C_8
REMARK    6  A    between atoms: C_8  and  N_9
REMARK    7  A    between atoms: C_15  and  C_17
REMARK    8  A    between atoms: N_22  and  C_23
REMARK                            x       y       z     vdW  Elec       q    Type
REMARK                         _______ _______ _______ _____ _____    ______ ____
ROOT
ATOM      1  N   UNL     1       3.814   0.181  -2.962  0.00  0.00    -0.291 NA
ATOM      2  C   UNL     1       4.094   1.615  -2.805  0.00  0.00    +0.104 C 
ATOM      3  C   UNL     1       5.590   1.813  -2.541  0.00  0.00    +0.123 C 
ATOM      4  N   UNL     1       6.346   1.146  -3.612  0.00  0.00    -0.294 N 
ATOM      5  C   UNL     1       6.025  -0.256  -3.921  0.00  0.00    +0.123 C 
ATOM      6  C   UNL     1       4.511  -0.373  -4.130  0.00  0.00    +0.104 C 
ATOM      7  C   UNL     1       7.308   1.801  -4.292  0.00  0.00    +0.266 C 
ATOM      8  O   UNL     1       7.447   3.000  -4.146  0.00  0.00    -0.268 OA
ENDROOT
BRANCH   7   9
ATOM      9  C   UNL     1       8.192   1.064  -5.210  0.00  0.00    +0.135 A 
ATOM     10  C   UNL     1       9.060   1.739  -6.032  0.00  0.00    +0.081 A 
ATOM     11  S   UNL     1       9.840   0.375  -6.885  0.00  0.00    -0.060 S 
ATOM     12  C   UNL     1       8.945  -0.943  -6.074  0.00  0.00    +0.163 A 
ATOM     13  N   UNL     1       8.164  -0.269  -5.253  0.00  0.00    -0.220 NA
ATOM     14  N   UNL     1       9.048  -2.312  -6.256  0.00  0.00    -0.291 N 
ATOM     15  H   UNL     1       8.406  -2.907  -5.838  0.00  0.00    +0.154 HD
BRANCH  14  16
ATOM     16  C   UNL     1      10.079  -2.837  -7.044  0.00  0.00    +0.068 A 
ATOM     17  C   UNL     1      11.257  -2.121  -7.216  0.00  0.00    +0.026 A 
ATOM     18  C   UNL     1      12.273  -2.642  -7.993  0.00  0.00    +0.002 A 
ATOM     19  C   UNL     1      12.119  -3.875  -8.601  0.00  0.00    +0.003 A 
ATOM     20  C   UNL     1      10.948  -4.591  -8.433  0.00  0.00    +0.040 A 
ATOM     21  C   UNL     1       9.929  -4.079  -7.651  0.00  0.00    +0.144 A 
ATOM     22  F   UNL     1       8.787  -4.781  -7.482  0.00  0.00    -0.204 F 
ENDBRANCH  14  16
ENDBRANCH   7   9
BRANCH   1  23
ATOM     23  C   UNL     1       2.369  -0.067  -3.045  0.00  0.00    +0.180 C 
BRANCH  23  25
ATOM     24  N   UNL     1       0.391   0.143  -1.574  0.00  0.00    -0.310 N 
ATOM     25  C   UNL     1       1.721   0.290  -1.732  0.00  0.00    +0.227 C 
ATOM     26  O   UNL     1       2.398   0.711  -0.817  0.00  0.00    -0.274 OA
ATOM     27  H   UNL     1      -0.150  -0.193  -2.306  0.00  0.00    +0.149 HD
BRANCH  24  29
ATOM     28  C   UNL     1       0.009   1.970   0.006  0.00  0.00    +0.031 C 
ATOM     29  C   UNL     1      -0.238   0.491  -0.298  0.00  0.00    +0.026 C 
ATOM     30  C   UNL     1       0.363  -0.366   0.818  0.00  0.00    +0.031 C 
ATOM     31  C   UNL     1      -1.744   0.233  -0.384  0.00  0.00    +0.031 C 
ENDBRANCH  24  29
ENDBRANCH  23  25
ENDBRANCH   1  23
TORSDOF 5
