REMARK  Name = ZINC38546136
REMARK  9 active torsions:
REMARK  status: ('A' for Active; 'I' for Inactive)
REMARK    1  A    between atoms: C_1  and  O_2
REMARK    2  A    between atoms: O_2  and  C_3
REMARK    3  A    between atoms: C_6  and  C_11
REMARK    4  A    between atoms: C_8  and  O_9
REMARK    5  A    between atoms: O_9  and  C_10
REMARK    6  A    between atoms: C_11  and  C_13
REMARK    7  A    between atoms: C_11  and  N_30
REMARK    8  A    between atoms: C_17  and  N_18
REMARK    9  A    between atoms: C_19  and  C_21
REMARK                            x       y       z     vdW  Elec       q    Type
REMARK                         _______ _______ _______ _____ _____    ______ ____
ROOT
ATOM      1  C   UNL     1       2.573  -2.533  -4.359  0.00  0.00    -0.004 C 
ENDROOT
BRANCH   1   2
ATOM      2  C   UNL     1       1.582  -2.618  -5.491  0.00  0.00    -0.025 A 
ATOM      3  C   UNL     1       0.900  -3.811  -5.735  0.00  0.00    -0.033 A 
ATOM      4  C   UNL     1       0.022  -3.810  -6.773  0.00  0.00    -0.005 A 
ATOM      5  S   UNL     1       0.130  -2.163  -7.420  0.00  0.00    -0.078 S 
ATOM      6  C   UNL     1       1.345  -1.532  -6.273  0.00  0.00    +0.074 A 
ATOM      7  C   UNL     1      -0.828  -4.943  -7.249  0.00  0.00    +0.043 C 
ATOM      8  C   UNL     1      -0.301  -6.240  -6.617  0.00  0.00    +0.005 C 
ATOM      9  C   UNL     1      -0.088  -6.006  -5.119  0.00  0.00    +0.005 C 
ATOM     10  C   UNL     1       1.103  -5.072  -4.900  0.00  0.00    +0.036 C 
BRANCH   6  11
ATOM     11  N   UNL     1       1.907  -0.255  -6.200  0.00  0.00    -0.273 N 
ATOM     12  C   UNL     1       1.627   0.659  -7.149  0.00  0.00    +0.284 C 
ATOM     13  O   UNL     1       0.885   0.373  -8.070  0.00  0.00    -0.266 OA
ATOM     14  H   UNL     1       2.498  -0.027  -5.465  0.00  0.00    +0.156 HD
BRANCH  12  15
ATOM     15  C   UNL     1       2.217   2.000  -7.072  0.00  0.00    +0.189 A 
ATOM     16  C   UNL     1       2.015   3.018  -7.960  0.00  0.00    +0.054 A 
ATOM     17  C   UNL     1       2.768   4.109  -7.500  0.00  0.00    +0.042 A 
ATOM     18  C   UNL     1       3.389   3.715  -6.367  0.00  0.00    +0.196 A 
ATOM     19  O   UNL     1       3.051   2.445  -6.110  0.00  0.00    -0.458 OA
ENDBRANCH  12  15
ENDBRANCH   6  11
ENDBRANCH   1   2
BRANCH   1  20
ATOM     20  N   UNL     1       3.812  -1.905  -4.839  0.00  0.00    +0.387 N 
ATOM     21  C   UNL     1       4.319  -2.651  -5.997  0.00  0.00    -0.078 C 
ATOM     22  C   UNL     1       5.564  -1.955  -6.551  0.00  0.00    -0.019 C 
ATOM     23  C   UNL     1       6.641  -1.904  -5.463  0.00  0.00    -0.004 C 
ATOM     24  C   UNL     1       6.075  -1.188  -4.232  0.00  0.00    -0.019 C 
ATOM     25  C   UNL     1       4.811  -1.913  -3.764  0.00  0.00    -0.078 C 
ATOM     26  H   UNL     1       3.621  -0.953  -5.113  0.00  0.00    -0.080 HD
ENDBRANCH   1  20
BRANCH   1  30
ATOM     27  C   UNL     1       0.923  -0.178  -1.193  0.00  0.00    +0.161 A 
ATOM     28  C   UNL     1       1.772   0.402  -2.122  0.00  0.00    +0.049 A 
ATOM     29  C   UNL     1       2.304  -0.362  -3.144  0.00  0.00    +0.006 A 
ATOM     30  C   UNL     1       1.991  -1.705  -3.242  0.00  0.00    -0.053 A 
ATOM     31  C   UNL     1       1.144  -2.290  -2.320  0.00  0.00    +0.051 A 
ATOM     32  C   UNL     1       0.612  -1.531  -1.289  0.00  0.00    +0.162 A 
BRANCH  27  34
ATOM     33  C   UNL     1       0.762   1.953  -0.150  0.00  0.00    +0.277 C 
ATOM     34  O   UNL     1       0.399   0.572  -0.187  0.00  0.00    -0.491 OA
ENDBRANCH  27  34
BRANCH  32  35
ATOM     35  O   UNL     1      -0.216  -2.107  -0.377  0.00  0.00    -0.491 OA
ATOM     36  C   UNL     1      -0.491  -3.500  -0.538  0.00  0.00    +0.277 C 
ENDBRANCH  32  35
ENDBRANCH   1  30
TORSDOF 7
