REMARK  Name = ZINC12469791
REMARK  7 active torsions:
REMARK  status: ('A' for Active; 'I' for Inactive)
REMARK    1  A    between atoms: C_1  and  C_2
REMARK    2  A    between atoms: C_2  and  C_3
REMARK    3  A    between atoms: C_10  and  C_15
REMARK    4  A    between atoms: C_15  and  C_17
REMARK    5  A    between atoms: C_15  and  N_66
REMARK    6  A    between atoms: N_21  and  C_22
REMARK    7  A    between atoms: C_31  and  C_34
REMARK                            x       y       z     vdW  Elec       q    Type
REMARK                         _______ _______ _______ _____ _____    ______ ____
ROOT
ATOM      1  C   UNL     1      -1.194  -0.920   0.008  0.00  0.00    +0.039 C 
ENDROOT
BRANCH   1   9
ATOM      2  C   UNL     1      -3.087  -3.119  -5.458  0.00  0.00    -0.047 A 
ATOM      3  C   UNL     1      -3.650  -1.935  -5.915  0.00  0.00    +0.005 A 
ATOM      4  C   UNL     1      -3.625  -0.798  -5.137  0.00  0.00    +0.026 A 
ATOM      5  C   UNL     1      -3.030  -0.834  -3.881  0.00  0.00    +0.049 A 
ATOM      6  C   UNL     1      -2.459  -2.036  -3.421  0.00  0.00    -0.001 A 
ATOM      7  C   UNL     1      -2.497  -3.178  -4.227  0.00  0.00    +0.013 A 
ATOM      8  C   UNL     1      -1.830  -2.062  -2.099  0.00  0.00    +0.017 A 
ATOM      9  C   UNL     1      -1.829  -0.926  -1.359  0.00  0.00    +0.011 A 
ATOM     10  C   UNL     1      -2.416   0.253  -1.867  0.00  0.00    +0.251 A 
ATOM     11  O   UNL     1      -2.400   1.265  -1.187  0.00  0.00    -0.268 OA
ATOM     12  N   UNL     1      -2.991   0.289  -3.081  0.00  0.00    -0.322 N 
ATOM     13  H   UNL     1      -3.384   1.116  -3.400  0.00  0.00    +0.169 HD
BRANCH   2  15
ATOM     14  C   UNL     1      -1.877  -4.391  -7.209  0.00  0.00    +0.009 C 
ATOM     15  C   UNL     1      -3.126  -4.349  -6.327  0.00  0.00    +0.032 C 
ENDBRANCH   2  15
ENDBRANCH   1   9
BRANCH   1  22
ATOM     16  C   UNL     1      -3.437  -1.179   0.883  0.00  0.00    -0.077 C 
ATOM     17  C   UNL     1      -4.472  -0.563   1.827  0.00  0.00    -0.018 C 
ATOM     18  C   UNL     1      -3.950  -0.633   3.265  0.00  0.00    -0.001 C 
ATOM     19  C   UNL     1      -2.606   0.096   3.348  0.00  0.00    -0.031 C 
ATOM     20  C   UNL     1      -1.625  -0.539   2.359  0.00  0.00    -0.074 C 
ATOM     21  C   UNL     1      -2.048  -0.021   4.767  0.00  0.00    +0.005 C 
ATOM     22  N   UNL     1      -2.175  -0.417   0.992  0.00  0.00    +0.389 N 
ATOM     23  H   UNL     1      -2.365   0.573   0.797  0.00  0.00    -0.080 HD
ENDBRANCH   1  22
BRANCH   1  24
ATOM     24  C   UNL     1       0.002  -0.004   0.002  0.00  0.00    +0.143 A 
ATOM     25  N   UNL     1      -0.016   1.306   0.009  0.00  0.00    -0.115 NA
ATOM     26  N   UNL     1       1.204   1.721  -0.000  0.00  0.00    -0.023 NA
ATOM     27  N   UNL     1       2.000   0.709  -0.013  0.00  0.00    -0.044 NA
ATOM     28  N   UNL     1       1.296  -0.373  -0.012  0.00  0.00    -0.227 N 
BRANCH  28  29
ATOM     29  C   UNL     1       1.810  -1.745  -0.025  0.00  0.00    +0.111 C 
ATOM     30  C   UNL     1       2.676  -1.977   1.214  0.00  0.00    +0.027 C 
ATOM     31  C   UNL     1       3.213  -3.409   1.201  0.00  0.00    +0.002 C 
ATOM     32  C   UNL     1       4.056  -3.626  -0.058  0.00  0.00    +0.000 C 
ATOM     33  C   UNL     1       3.190  -3.394  -1.297  0.00  0.00    +0.002 C 
ATOM     34  C   UNL     1       2.653  -1.962  -1.284  0.00  0.00    +0.027 C 
ENDBRANCH  28  29
ENDBRANCH   1  24
TORSDOF 5
