REMARK  Name = ZINC09433303
REMARK  8 active torsions:
REMARK  status: ('A' for Active; 'I' for Inactive)
REMARK    1  A    between atoms: C_1  and  C_2
REMARK    2  A    between atoms: C_2  and  C_3
REMARK    3  A    between atoms: C_2  and  C_4
REMARK    4  A    between atoms: C_4  and  N_5
REMARK    5  A    between atoms: C_6  and  C_33
REMARK    6  A    between atoms: C_8  and  C_18
REMARK    7  A    between atoms: C_25  and  C_26
REMARK    8  A    between atoms: C_25  and  N_68
REMARK                            x       y       z     vdW  Elec       q    Type
REMARK                         _______ _______ _______ _____ _____    ______ ____
ROOT
ATOM      1  N   UNL     1      -2.319   5.152  -0.867  0.00  0.00    -0.289 N 
ATOM      2  C   UNL     1      -1.294   5.336   0.159  0.00  0.00    +0.129 C 
ATOM      3  C   UNL     1      -1.925   5.458   1.544  0.00  0.00    +0.131 C 
ATOM      4  C   UNL     1      -2.885   4.321   1.777  0.00  0.00    -0.021 A 
ATOM      5  C   UNL     1      -3.067   3.802   3.041  0.00  0.00    +0.005 A 
ATOM      6  C   UNL     1      -3.982   2.784   3.245  0.00  0.00    +0.000 A 
ATOM      7  C   UNL     1      -4.722   2.285   2.188  0.00  0.00    +0.001 A 
ATOM      8  C   UNL     1      -4.544   2.792   0.916  0.00  0.00    +0.013 A 
ATOM      9  C   UNL     1      -3.611   3.803   0.702  0.00  0.00    +0.041 A 
ATOM     10  C   UNL     1      -3.387   4.362  -0.648  0.00  0.00    +0.247 C 
ATOM     11  O   UNL     1      -4.161   4.112  -1.551  0.00  0.00    -0.270 OA
ENDROOT
BRANCH   3  12
ATOM     12  C   UNL     1      -0.842   5.421   2.591  0.00  0.00    +0.223 C 
ATOM     13  O   UNL     1      -0.506   4.362   3.078  0.00  0.00    -0.275 OA
ATOM     14  N   UNL     1      -0.247   6.564   2.986  0.00  0.00    -0.318 N 
ATOM     15  C   UNL     1      -0.711   7.866   2.484  0.00  0.00    +0.104 C 
ATOM     16  C   UNL     1      -0.951   8.789   3.685  0.00  0.00    +0.000 C 
ATOM     17  C   UNL     1       0.305   8.806   4.561  0.00  0.00    -0.075 C 
ATOM     18  C   UNL     1       0.876   6.539   3.933  0.00  0.00    +0.033 C 
ATOM     19  N   UNL     1       0.561   7.438   5.060  0.00  0.00    +0.393 N 
ATOM     20  H   UNL     1      -0.281   7.093   5.535  0.00  0.00    -0.079 HD
BRANCH  19  21
ATOM     21  C   UNL     1       1.682   7.454   6.023  0.00  0.00    -0.039 C 
BRANCH  21  22
ATOM     22  C   UNL     1       1.247   8.194   7.262  0.00  0.00    -0.046 A 
ATOM     23  C   UNL     1       1.642   9.504   7.459  0.00  0.00    +0.003 A 
ATOM     24  C   UNL     1       1.240  10.184   8.593  0.00  0.00    +0.000 A 
ATOM     25  C   UNL     1       0.450   9.552   9.535  0.00  0.00    +0.001 A 
ATOM     26  C   UNL     1       0.058   8.241   9.341  0.00  0.00    +0.020 A 
ATOM     27  C   UNL     1       0.457   7.561   8.204  0.00  0.00    +0.042 A 
ATOM     28 CL   UNL     1      -0.035   5.914   7.960  0.00  0.00    -0.083 Cl
ENDBRANCH  21  22
ENDBRANCH  19  21
ENDBRANCH   3  12
BRANCH   2  29
ATOM     29  C   UNL     1      -0.360   4.153   0.142  0.00  0.00    +0.011 A 
ATOM     30  C   UNL     1       0.988   4.128   0.286  0.00  0.00    +0.013 A 
ATOM     31  C   UNL     1       1.645   2.913   0.236  0.00  0.00    +0.008 A 
ATOM     32  C   UNL     1       0.922   1.782   0.046  0.00  0.00    +0.045 A 
ATOM     33  S   UNL     1      -0.740   2.423  -0.077  0.00  0.00    -0.100 S 
ENDBRANCH   2  29
BRANCH   1  34
ATOM     34  C   UNL     1      -2.182   5.838  -2.154  0.00  0.00    +0.111 C 
BRANCH  34  36
ATOM     35  C   UNL     1      -2.470   8.020  -3.337  0.00  0.00    +0.009 C 
ATOM     36  C   UNL     1      -2.734   7.260  -2.036  0.00  0.00    +0.000 C 
ATOM     37  C   UNL     1      -4.241   7.202  -1.777  0.00  0.00    +0.009 C 
ENDBRANCH  34  36
ENDBRANCH   1  34
TORSDOF 6
