REMARK  Name = ZINC23821499
REMARK  4 active torsions:
REMARK  status: ('A' for Active; 'I' for Inactive)
REMARK    1  A    between atoms: C_5  and  N_8
REMARK    2  A    between atoms: C_9  and  C_11
REMARK    3  A    between atoms: C_11  and  N_12
REMARK    4  A    between atoms: C_18  and  C_20
REMARK                            x       y       z     vdW  Elec       q    Type
REMARK                         _______ _______ _______ _____ _____    ______ ____
ROOT
ATOM      1  C   UNL     1      -0.250  -0.292   0.529  0.00  0.00    +0.019 C 
ENDROOT
BRANCH   1   2
ATOM      2  N   UNL     1      -1.060  -1.416   0.038  0.00  0.00    +0.387 N 
ATOM      3  C   UNL     1      -0.962  -2.569   0.943  0.00  0.00    -0.059 C 
ATOM      4  C   UNL     1      -1.955  -3.648   0.498  0.00  0.00    +0.089 C 
ATOM      5  N   UNL     1      -1.714  -3.949  -0.921  0.00  0.00    -0.303 N 
ATOM      6  C   UNL     1      -1.660  -2.827  -1.871  0.00  0.00    +0.089 C 
ATOM      7  C   UNL     1      -0.679  -1.780  -1.333  0.00  0.00    -0.059 C 
ATOM      8  C   UNL     1      -1.545  -5.218  -1.341  0.00  0.00    +0.244 C 
ATOM      9  O   UNL     1      -1.347  -5.448  -2.515  0.00  0.00    -0.273 OA
ATOM     10  H   UNL     1      -2.111  -1.094   0.019  0.00  0.00    -0.081 HD
BRANCH   8  11
ATOM     11  C   UNL     1      -1.604  -6.353  -0.350  0.00  0.00    +0.204 C 
ATOM     12  C   UNL     1      -3.022  -6.458   0.243  0.00  0.00    +0.043 C 
ATOM     13  C   UNL     1      -3.477  -7.895  -0.113  0.00  0.00    +0.031 C 
ATOM     14  C   UNL     1      -2.125  -8.609  -0.367  0.00  0.00    +0.161 C 
ATOM     15  O   UNL     1      -1.322  -7.596  -1.014  0.00  0.00    -0.367 OA
ENDBRANCH   8  11
ENDBRANCH   1   2
BRANCH   1  17
ATOM     16  N   UNL     1      -0.242   1.246   2.466  0.00  0.00    -0.285 N 
ATOM     17  C   UNL     1      -0.824   0.212   1.827  0.00  0.00    +0.201 C 
ATOM     18  O   UNL     1      -1.811  -0.313   2.299  0.00  0.00    -0.278 OA
ATOM     19  H   UNL     1       0.699   1.669   2.083  0.00  0.00    +0.155 HD
BRANCH  16  24
ATOM     20  C   UNL     1      -2.352   3.332   4.643  0.00  0.00    +0.042 A 
ATOM     21  C   UNL     1      -2.004   2.844   5.890  0.00  0.00    +0.044 A 
ATOM     22  C   UNL     1      -1.073   1.826   6.003  0.00  0.00    +0.042 A 
ATOM     23  C   UNL     1      -0.487   1.294   4.870  0.00  0.00    +0.065 A 
ATOM     24  C   UNL     1      -0.834   1.782   3.616  0.00  0.00    +0.070 A 
ATOM     25  C   UNL     1      -1.765   2.808   3.506  0.00  0.00    +0.065 A 
ATOM     26 CL   UNL     1      -2.197   3.425   1.942  0.00  0.00    -0.082 Cl
ATOM     27 CL   UNL     1       0.680   0.018   5.013  0.00  0.00    -0.082 Cl
ATOM     28 CL   UNL     1      -2.737   3.510   7.316  0.00  0.00    -0.083 Cl
ENDBRANCH  16  24
ENDBRANCH   1  17
TORSDOF 4
