REMARK  Name = ZINC06559334
REMARK  7 active torsions:
REMARK  status: ('A' for Active; 'I' for Inactive)
REMARK    1  A    between atoms: C_4  and  C_7
REMARK    2  A    between atoms: C_12  and  N_13
REMARK    3  A    between atoms: C_14  and  C_16
REMARK    4  A    between atoms: C_16  and  S_17
REMARK    5  A    between atoms: S_17  and  C_18
REMARK    6  A    between atoms: C_21  and  C_24
REMARK    7  A    between atoms: N_22  and  N_23
REMARK                            x       y       z     vdW  Elec       q    Type
REMARK                         _______ _______ _______ _____ _____    ______ ____
ROOT
ATOM      1  N   UNL     1       0.142  -7.268  -0.059  0.00  0.00    -0.284 N 
ATOM      2  C   UNL     1       0.848  -6.173  -0.409  0.00  0.00    +0.228 C 
ATOM      3  O   UNL     1       1.934  -6.295  -0.935  0.00  0.00    -0.275 OA
ATOM      4  H   UNL     1      -0.688  -7.172   0.432  0.00  0.00    +0.155 HD
ENDROOT
BRANCH   1  10
ATOM      5  C   UNL     1       0.230  -9.655   0.351  0.00  0.00    +0.003 A 
ATOM      6  C   UNL     1       0.696 -10.918  -0.004  0.00  0.00    +0.010 A 
ATOM      7  C   UNL     1       1.536 -11.063  -1.090  0.00  0.00    +0.001 A 
ATOM      8  C   UNL     1       1.913  -9.957  -1.832  0.00  0.00    +0.002 A 
ATOM      9  C   UNL     1       1.453  -8.699  -1.493  0.00  0.00    +0.024 A 
ATOM     10  C   UNL     1       0.609  -8.539  -0.404  0.00  0.00    +0.041 A 
BRANCH   5  14
ATOM     11  C   UNL     1      -2.345  -9.193   3.703  0.00  0.00    +0.000 A 
ATOM     12  C   UNL     1      -2.628 -10.147   2.742  0.00  0.00    +0.001 A 
ATOM     13  C   UNL     1      -1.796 -10.302   1.652  0.00  0.00    +0.008 A 
ATOM     14  C   UNL     1      -0.669  -9.493   1.520  0.00  0.00    -0.016 A 
ATOM     15  C   UNL     1      -0.385  -8.537   2.493  0.00  0.00    +0.008 A 
ATOM     16  C   UNL     1      -1.227  -8.388   3.576  0.00  0.00    +0.001 A 
ENDBRANCH   5  14
ENDBRANCH   1  10
BRANCH   2  17
ATOM     17  C   UNL     1       0.286  -4.800  -0.148  0.00  0.00    +0.173 C 
BRANCH  17  18
ATOM     18  S   UNL     1       1.459  -3.548  -0.726  0.00  0.00    -0.075 S 
BRANCH  18  19
ATOM     19  C   UNL     1       0.574  -2.083  -0.309  0.00  0.00    +0.209 A 
ATOM     20  N   UNL     1      -0.607  -2.020   0.262  0.00  0.00    -0.121 NA
ATOM     21  N   UNL     1      -0.948  -0.792   0.424  0.00  0.00    -0.132 NA
ATOM     22  C   UNL     1      -0.019  -0.004  -0.038  0.00  0.00    +0.154 A 
ATOM     23  N   UNL     1       0.986  -0.798  -0.518  0.00  0.00    -0.228 N 
BRANCH  23  24
ATOM     24  N   UNL     1       2.158  -0.391  -1.089  0.00  0.00    -0.295 N 
ATOM     25  H   UNL     1       2.879  -0.276  -0.392  0.00  0.00    +0.163 HD
ATOM     26  H   UNL     1       2.451  -1.032  -1.810  0.00  0.00    +0.163 HD
ENDBRANCH  23  24
BRANCH  22  27
ATOM     27  C   UNL     1      -0.044   1.502  -0.038  0.00  0.00    +0.059 C 
ATOM     28  C   UNL     1      -1.173   2.191   0.732  0.00  0.00    +0.012 C 
ATOM     29  C   UNL     1      -1.179   2.190  -0.799  0.00  0.00    +0.012 C 
ENDBRANCH  22  27
ENDBRANCH  18  19
ENDBRANCH  17  18
ENDBRANCH   2  17
TORSDOF 7
