REMARK  Name = ZINC21797586
REMARK  4 active torsions:
REMARK  status: ('A' for Active; 'I' for Inactive)
REMARK    1  A    between atoms: C_1  and  C_2
REMARK    2  A    between atoms: C_2  and  C_4
REMARK    3  A    between atoms: C_2  and  N_12
REMARK    4  A    between atoms: C_14  and  C_19
REMARK                            x       y       z     vdW  Elec       q    Type
REMARK                         _______ _______ _______ _____ _____    ______ ____
ROOT
ATOM      1  N   UNL     1       0.036   5.189   0.066  0.00  0.00    -0.323 N 
ATOM      2  C   UNL     1      -0.014   3.808   0.040  0.00  0.00    +0.111 A 
ATOM      3  C   UNL     1       1.180   3.065   0.027  0.00  0.00    +0.101 A 
ATOM      4  C   UNL     1       1.103   1.667   0.001  0.00  0.00    +0.020 A 
ATOM      5  C   UNL     1      -0.148   1.078  -0.009  0.00  0.00    +0.018 A 
ATOM      6  C   UNL     1      -1.278   1.876   0.000  0.00  0.00    +0.084 A 
ATOM      7  N   UNL     1      -1.185   3.191   0.029  0.00  0.00    -0.349 N 
ATOM      8  H   UNL     1       1.004   5.706  -0.015  0.00  0.00    +0.148 HD
ATOM      9  H   UNL     1      -2.116   3.778   0.045  0.00  0.00    +0.167 HD
ENDROOT
BRANCH   3  10
ATOM     10  C   UNL     1       2.487   3.744   0.038  0.00  0.00    +0.390 C 
ATOM     11  O   UNL     1       2.542   4.956  -0.044  0.00  0.00    -0.240 OA
ATOM     12  O   UNL     1       3.620   3.023   0.140  0.00  0.00    -0.240 OA
ENDBRANCH   3  10
BRANCH   1  14
ATOM     13  C   UNL     1      -1.832   6.159  -1.179  0.00  0.00    +0.033 C 
ATOM     14  C   UNL     1      -1.200   5.965   0.200  0.00  0.00    +0.100 C 
BRANCH  14  15
ATOM     15  C   UNL     1      -0.885   7.309   0.803  0.00  0.00    -0.009 A 
ATOM     16  C   UNL     1       0.379   7.851   0.664  0.00  0.00    +0.008 A 
ATOM     17  C   UNL     1       0.668   9.084   1.217  0.00  0.00    +0.020 A 
ATOM     18  C   UNL     1      -0.309   9.778   1.910  0.00  0.00    +0.042 A 
ATOM     19  C   UNL     1      -1.574   9.237   2.049  0.00  0.00    +0.040 A 
ATOM     20  C   UNL     1      -1.864   8.005   1.491  0.00  0.00    +0.047 A 
ATOM     21 CL   UNL     1      -3.454   7.328   1.659  0.00  0.00    -0.083 Cl
ATOM     22 CL   UNL     1       0.054  11.327   2.604  0.00  0.00    -0.083 Cl
ENDBRANCH  14  15
ENDBRANCH   1  14
TORSDOF 3
