REMARK  Name = ZINC41684996
REMARK  11 active torsions:
REMARK  status: ('A' for Active; 'I' for Inactive)
REMARK    1  A    between atoms: C_1  and  C_2
REMARK    2  A    between atoms: C_2  and  C_3
REMARK    3  A    between atoms: C_2  and  N_4
REMARK    4  A    between atoms: N_4  and  C_5
REMARK    5  A    between atoms: N_4  and  C_6
REMARK    6  A    between atoms: C_6  and  C_7
REMARK    7  A    between atoms: C_7  and  C_8
REMARK    8  A    between atoms: C_8  and  C_9
REMARK    9  A    between atoms: C_9  and  N_10
REMARK   10  A    between atoms: N_10  and  S_11
REMARK   11  A    between atoms: S_11  and  C_14
REMARK                            x       y       z     vdW  Elec       q    Type
REMARK                         _______ _______ _______ _____ _____    ______ ____
ROOT
ATOM      1  N   UNL     1      -4.173  -6.036   0.261  0.00  0.00    -0.190 NA
ATOM      2  H   UNL     1      -3.380  -6.509  -0.036  0.00  0.00    +0.148 HD
ENDROOT
BRANCH   1   3
ATOM      3  S   UNL     1      -5.505  -6.885   0.760  0.00  0.00    +0.060 S 
ATOM      4  O   UNL     1      -5.187  -8.262   0.611  0.00  0.00    -0.153 OA
ATOM      5  O   UNL     1      -5.901  -6.325   2.004  0.00  0.00    -0.153 OA
BRANCH   3   6
ATOM      6  C   UNL     1      -6.800  -6.541  -0.384  0.00  0.00    +0.124 A 
ATOM      7  C   UNL     1      -7.312  -7.553  -1.174  0.00  0.00    +0.031 A 
ATOM      8  C   UNL     1      -8.328  -7.284  -2.071  0.00  0.00    +0.017 A 
ATOM      9  C   UNL     1      -8.834  -6.001  -2.179  0.00  0.00    +0.019 A 
ATOM     10  C   UNL     1      -8.323  -4.987  -1.389  0.00  0.00    +0.037 A 
ATOM     11  C   UNL     1      -7.309  -5.259  -0.487  0.00  0.00    +0.068 A 
ATOM     12 CL   UNL     1      -6.671  -3.989   0.510  0.00  0.00    -0.081 Cl
ATOM     13 BR   UNL     1     -10.224  -5.632  -3.407  0.00  0.00    -0.050 Br
ENDBRANCH   3   6
ENDBRANCH   1   3
BRANCH   1  14
ATOM     14  C   UNL     1      -4.193  -4.572   0.269  0.00  0.00    +0.106 C 
BRANCH  14  15
ATOM     15  C   UNL     1      -2.764  -4.041   0.133  0.00  0.00    +0.015 C 
BRANCH  15  16
ATOM     16  C   UNL     1      -2.785  -2.512   0.141  0.00  0.00    -0.017 C 
BRANCH  16  17
ATOM     17  C   UNL     1      -1.356  -1.981   0.004  0.00  0.00    -0.079 C 
BRANCH  17  18
ATOM     18  N   UNL     1      -1.376  -0.512   0.012  0.00  0.00    +0.379 N 
ATOM     19  C   UNL     1      -2.087  -0.026  -1.178  0.00  0.00    -0.096 C 
ATOM     20  H   UNL     1      -1.848  -0.187   0.843  0.00  0.00    -0.082 HD
BRANCH  18  22
ATOM     21  C   UNL     1      -0.019   1.526   0.010  0.00  0.00    -0.014 C 
ATOM     22  C   UNL     1       0.002  -0.004   0.002  0.00  0.00    -0.075 C 
ATOM     23  C   UNL     1       0.742  -0.511   1.242  0.00  0.00    -0.014 C 
ENDBRANCH  18  22
ENDBRANCH  17  18
ENDBRANCH  16  17
ENDBRANCH  15  16
ENDBRANCH  14  15
ENDBRANCH   1  14
TORSDOF 8
