REMARK  Name = ZINC39884097
REMARK  4 active torsions:
REMARK  status: ('A' for Active; 'I' for Inactive)
REMARK    1  A    between atoms: C_4  and  O_37
REMARK    2  A    between atoms: C_5  and  C_7
REMARK    3  A    between atoms: N_11  and  C_15
REMARK    4  A    between atoms: C_15  and  C_16
REMARK                            x       y       z     vdW  Elec       q    Type
REMARK                         _______ _______ _______ _____ _____    ______ ____
ROOT
ATOM      1  C   UNL     1       1.227  -2.187  -0.022  0.00  0.00    +0.075 C 
ATOM      2  C   UNL     1       0.587  -2.648  -1.273  0.00  0.00    +0.033 A 
ATOM      3  C   UNL     1      -0.248  -3.683  -1.478  0.00  0.00    +0.091 A 
ATOM      4  N   UNL     1      -0.636  -3.879  -2.781  0.00  0.00    -0.288 N 
ATOM      5  C   UNL     1      -0.210  -3.037  -3.740  0.00  0.00    +0.292 A 
ATOM      6  O   UNL     1      -0.463  -3.059  -4.932  0.00  0.00    -0.259 OA
ATOM      7  S   UNL     1       0.754  -1.947  -2.898  0.00  0.00    -0.030 S 
ATOM      8  S   UNL     1      -0.804  -4.668  -0.109  0.00  0.00    -0.093 S 
ATOM      9  C   UNL     1       0.247  -4.171   1.248  0.00  0.00    +0.152 C 
ATOM     10  C   UNL     1       0.593  -2.677   1.278  0.00  0.00    +0.111 C 
ATOM     11  C   UNL     1       1.795  -2.772   2.245  0.00  0.00    +0.235 C 
ATOM     12  O   UNL     1       2.159  -1.927   3.028  0.00  0.00    -0.274 OA
ATOM     13  N   UNL     1       2.358  -3.981   2.044  0.00  0.00    -0.162 N 
ATOM     14  C   UNL     1       1.594  -4.823   1.320  0.00  0.00    +0.244 C 
ATOM     15  O   UNL     1       1.922  -5.884   0.842  0.00  0.00    -0.273 OA
ATOM     16  C   UNL     1       3.579  -4.312   2.512  0.00  0.00    +0.313 C 
ATOM     17  O   UNL     1       4.225  -3.503   3.148  0.00  0.00    -0.252 OA
ATOM     18  N   UNL     1       4.082  -5.539   2.275  0.00  0.00    -0.313 N 
ATOM     19  H   UNL     1       3.566  -6.185   1.767  0.00  0.00    +0.147 HD
ATOM     20  H   UNL     1       4.960  -5.777   2.612  0.00  0.00    +0.147 HD
ENDROOT
BRANCH   1  25
ATOM     21  C   UNL     1      -0.017   1.378   0.010  0.00  0.00    +0.001 A 
ATOM     22  C   UNL     1       1.170   2.088   0.002  0.00  0.00    +0.004 A 
ATOM     23  C   UNL     1       2.377   1.417  -0.013  0.00  0.00    +0.046 A 
ATOM     24  C   UNL     1       2.399   0.030  -0.021  0.00  0.00    +0.121 A 
ATOM     25  C   UNL     1       1.207  -0.680  -0.013  0.00  0.00    +0.003 A 
ATOM     26  C   UNL     1       0.002  -0.004   0.002  0.00  0.00    +0.008 A 
BRANCH  24  27
ATOM     27  O   UNL     1       3.586  -0.632  -0.037  0.00  0.00    -0.506 OA
ATOM     28  H   UNL     1       3.938  -0.829   0.842  0.00  0.00    +0.292 HD
ENDBRANCH  24  27
ENDBRANCH   1  25
BRANCH   4  29
ATOM     29  C   UNL     1      -1.510  -5.003  -3.125  0.00  0.00    +0.222 C 
BRANCH  29  30
ATOM     30  C   UNL     1      -2.950  -4.568  -3.028  0.00  0.00    +0.236 C 
ATOM     31  O   UNL     1      -3.219  -3.431  -2.703  0.00  0.00    -0.274 OA
ATOM     32  N   UNL     1      -3.938  -5.442  -3.302  0.00  0.00    -0.296 N 
ATOM     33  C   UNL     1      -3.636  -6.829  -3.693  0.00  0.00    +0.136 C 
ATOM     34  C   UNL     1      -4.467  -7.771  -2.814  0.00  0.00    +0.179 C 
ATOM     35  O   UNL     1      -5.841  -7.379  -2.872  0.00  0.00    -0.377 OA
ATOM     36  C   UNL     1      -6.098  -6.068  -2.364  0.00  0.00    +0.179 C 
ATOM     37  C   UNL     1      -5.351  -5.041  -3.214  0.00  0.00    +0.136 C 
ENDBRANCH  29  30
ENDBRANCH   4  29
TORSDOF 4
