REMARK  Name = ZINC02744605
REMARK  8 active torsions:
REMARK  status: ('A' for Active; 'I' for Inactive)
REMARK    1  A    between atoms: C_1  and  C_2
REMARK    2  A    between atoms: C_2  and  C_3
REMARK    3  A    between atoms: C_2  and  C_4
REMARK    4  A    between atoms: C_2  and  C_5
REMARK    5  A    between atoms: C_12  and  N_16
REMARK    6  A    between atoms: C_13  and  C_14
REMARK    7  A    between atoms: C_17  and  C_19
REMARK    8  A    between atoms: N_22  and  C_24
REMARK                            x       y       z     vdW  Elec       q    Type
REMARK                         _______ _______ _______ _____ _____    ______ ____
ROOT
ATOM      1  C   UNL     1       3.454   3.901  -0.389  0.00  0.00    -0.000 C 
ATOM      2  C   UNL     1       3.620   2.623   0.439  0.00  0.00    +0.009 C 
ATOM      3  C   UNL     1       2.604   1.573  -0.014  0.00  0.00    +0.037 C 
ATOM      4  C   UNL     1       1.214   2.197   0.002  0.00  0.00    -0.018 A 
ATOM      5  C   UNL     1       1.054   3.539   0.011  0.00  0.00    -0.004 A 
ATOM      6  S   UNL     1      -0.699   3.785   0.029  0.00  0.00    -0.077 S 
ATOM      7  C   UNL     1      -1.213   2.131   0.019  0.00  0.00    +0.090 A 
ATOM      8  C   UNL     1      -0.017   1.428   0.010  0.00  0.00    +0.084 A 
ATOM      9  C   UNL     1       2.133   4.578   0.005  0.00  0.00    +0.047 C 
ENDROOT
BRANCH   1  11
ATOM     10  C   UNL     1       5.936   4.166  -0.487  0.00  0.00    +0.011 C 
ATOM     11  C   UNL     1       4.621   4.850  -0.109  0.00  0.00    -0.035 C 
ATOM     12  C   UNL     1       4.452   6.125  -0.938  0.00  0.00    +0.011 C 
ATOM     13  C   UNL     1       4.641   5.207   1.379  0.00  0.00    +0.011 C 
ENDBRANCH   1  11
BRANCH   7  14
ATOM     14  N   UNL     1      -2.507   1.630   0.023  0.00  0.00    -0.274 N 
ATOM     15  C   UNL     1      -3.556   2.476   0.032  0.00  0.00    +0.270 C 
ATOM     16  O   UNL     1      -3.369   3.677   0.038  0.00  0.00    -0.268 OA
ATOM     17  H   UNL     1      -2.656   0.672   0.018  0.00  0.00    +0.156 HD
BRANCH  15  18
ATOM     18  C   UNL     1      -4.933   1.943   0.036  0.00  0.00    +0.161 A 
ATOM     19  C   UNL     1      -6.128   2.701   0.051  0.00  0.00    +0.068 A 
ATOM     20  C   UNL     1      -7.134   1.794   0.046  0.00  0.00    +0.124 A 
ATOM     21  N   UNL     1      -6.562   0.564   0.037  0.00  0.00    -0.273 N 
ATOM     22  N   UNL     1      -5.282   0.672   0.031  0.00  0.00    -0.166 NA
ATOM     23  C   UNL     1      -7.297  -0.703   0.035  0.00  0.00    +0.172 C 
ATOM     24 BR   UNL     1      -6.288   4.586   0.070  0.00  0.00    -0.046 Br
ENDBRANCH  15  18
ENDBRANCH   7  14
BRANCH   8  25
ATOM     25  C   UNL     1       0.002  -0.004   0.002  0.00  0.00    +0.102 C 
ATOM     26  N   UNL     1       0.018  -1.140  -0.004  0.00  0.00    -0.191 NA
ENDBRANCH   8  25
TORSDOF 4
