REMARK  Name = ZINC17602650
REMARK  15 active torsions:
REMARK  status: ('A' for Active; 'I' for Inactive)
REMARK    1  A    between atoms: C_1  and  C_2
REMARK    2  A    between atoms: C_2  and  O_3
REMARK    3  A    between atoms: O_3  and  C_4
REMARK    4  A    between atoms: C_4  and  C_6
REMARK    5  A    between atoms: C_7  and  C_22
REMARK    6  A    between atoms: C_12  and  C_14
REMARK    7  A    between atoms: C_17  and  O_20
REMARK    8  A    between atoms: O_20  and  C_21
REMARK    9  A    between atoms: C_22  and  O_23
REMARK   10  A    between atoms: O_23  and  C_24
REMARK   11  A    between atoms: C_24  and  C_26
REMARK   12  A    between atoms: C_26  and  C_27
REMARK   13  A    between atoms: C_27  and  C_29
REMARK   14  A    between atoms: C_27  and  N_30
REMARK   15  A    between atoms: C_31  and  C_33
REMARK                            x       y       z     vdW  Elec       q    Type
REMARK                         _______ _______ _______ _____ _____    ______ ____
ROOT
ATOM      1  C   UNL     1       1.211   1.928  -0.112  0.00  0.00    +0.081 C 
ATOM      2  C   UNL     1       2.391   1.304   0.093  0.00  0.00    +0.061 C 
ATOM      3  N   UNL     1       3.554   2.012   0.195  0.00  0.00    -0.269 N 
ATOM      4  C   UNL     1       3.620   3.347   0.113  0.00  0.00    +0.304 C 
ATOM      5  O   UNL     1       4.703   3.890   0.221  0.00  0.00    -0.252 OA
ATOM      6  N   UNL     1       2.526   4.109  -0.084  0.00  0.00    -0.288 N 
ATOM      7  C   UNL     1       1.220   3.440  -0.213  0.00  0.00    +0.144 C 
ATOM      8  H   UNL     1       4.378   1.521   0.337  0.00  0.00    +0.156 HD
ATOM      9  H   UNL     1       2.597   5.075  -0.140  0.00  0.00    +0.151 HD
ENDROOT
BRANCH   7  10
ATOM     10  C   UNL     1       0.634   3.821  -1.548  0.00  0.00    -0.022 A 
ATOM     11  C   UNL     1       1.415   3.760  -2.687  0.00  0.00    +0.009 A 
ATOM     12  C   UNL     1       0.878   4.103  -3.913  0.00  0.00    +0.046 A 
ATOM     13  C   UNL     1      -0.442   4.520  -3.998  0.00  0.00    +0.120 A 
ATOM     14  C   UNL     1      -1.222   4.585  -2.853  0.00  0.00    +0.046 A 
ATOM     15  C   UNL     1      -0.682   4.235  -1.630  0.00  0.00    +0.009 A 
BRANCH  13  16
ATOM     16  O   UNL     1      -0.971   4.864  -5.202  0.00  0.00    -0.495 OA
ATOM     17  C   UNL     1      -0.110   4.772  -6.339  0.00  0.00    +0.277 C 
ENDBRANCH  13  16
ENDBRANCH   7  10
BRANCH   1  18
ATOM     18  C   UNL     1       0.005   1.196  -0.222  0.00  0.00    +0.339 C 
ATOM     19  O   UNL     1      -0.756   1.131   0.724  0.00  0.00    -0.245 OA
BRANCH  18  20
ATOM     20  O   UNL     1      -0.297   0.564  -1.376  0.00  0.00    -0.462 OA
BRANCH  20  22
ATOM     21  C   UNL     1      -1.696  -0.805  -2.793  0.00  0.00    +0.048 C 
ATOM     22  C   UNL     1      -1.527  -0.162  -1.415  0.00  0.00    +0.229 C 
ENDBRANCH  20  22
ENDBRANCH  18  20
ENDBRANCH   1  18
BRANCH   2  23
ATOM     23  C   UNL     1       2.425  -0.198   0.205  0.00  0.00    +0.283 C 
BRANCH  23  24
ATOM     24  O   UNL     1       3.165  -0.750  -0.916  0.00  0.00    -0.459 OA
BRANCH  24  25
ATOM     25  C   UNL     1       3.289  -2.086  -0.966  0.00  0.00    +0.309 C 
ATOM     26  O   UNL     1       2.796  -2.771  -0.102  0.00  0.00    -0.251 OA
BRANCH  25  27
ATOM     27  C   UNL     1       4.043  -2.731  -2.100  0.00  0.00    +0.142 C 
BRANCH  27  28
ATOM     28  C   UNL     1       4.035  -4.250  -1.919  0.00  0.00    +0.081 C 
ATOM     29  C   UNL     1       4.905  -4.897  -2.999  0.00  0.00    +0.028 C 
BRANCH  28  30
ATOM     30  N   UNL     1       2.663  -4.748  -2.034  0.00  0.00    -0.308 N 
ATOM     31  C   UNL     1       2.314  -5.906  -1.438  0.00  0.00    +0.244 C 
ATOM     32  O   UNL     1       3.139  -6.537  -0.806  0.00  0.00    -0.270 OA
ATOM     33  H   UNL     1       2.004  -4.245  -2.538  0.00  0.00    +0.149 HD
BRANCH  31  34
ATOM     34  C   UNL     1       0.929  -6.410  -1.554  0.00  0.00    +0.037 A 
ATOM     35  C   UNL     1      -0.022  -5.685  -2.274  0.00  0.00    +0.013 A 
ATOM     36  C   UNL     1      -1.312  -6.162  -2.382  0.00  0.00    +0.001 A 
ATOM     37  C   UNL     1      -1.666  -7.351  -1.770  0.00  0.00    +0.000 A 
ATOM     38  C   UNL     1      -0.730  -8.072  -1.050  0.00  0.00    +0.001 A 
ATOM     39  C   UNL     1       0.565  -7.608  -0.939  0.00  0.00    +0.013 A 
ENDBRANCH  31  34
ENDBRANCH  28  30
ENDBRANCH  27  28
ENDBRANCH  25  27
ENDBRANCH  24  25
ENDBRANCH  23  24
ENDBRANCH   2  23
TORSDOF 12
