REMARK  Name = ZINC63097174
REMARK  4 active torsions:
REMARK  status: ('A' for Active; 'I' for Inactive)
REMARK    1  A    between atoms: C_1  and  C_2
REMARK    2  A    between atoms: C_3  and  C_18
REMARK    3  A    between atoms: C_4  and  O_17
REMARK    4  A    between atoms: N_6  and  C_8
REMARK                            x       y       z     vdW  Elec       q    Type
REMARK                         _______ _______ _______ _____ _____    ______ ____
ROOT
ATOM      1  C   UNL     1      -0.018   1.503   0.010  0.00  0.00    +0.062 C 
ATOM      2  C   UNL     1       0.002  -0.004   0.002  0.00  0.00    +0.023 C 
ATOM      3  C   UNL     1      -1.078  -0.758   0.003  0.00  0.00    +0.037 C 
ATOM      4  C   UNL     1      -0.608  -2.197  -0.008  0.00  0.00    +0.238 C 
ATOM      5  N   UNL     1       0.865  -2.098  -0.014  0.00  0.00    -0.157 NA
ATOM      6  N   UNL     1       1.155  -0.763  -0.014  0.00  0.00    -0.276 N 
ATOM      7  H   UNL     1       2.054  -0.397  -0.021  0.00  0.00    +0.166 HD
ENDROOT
BRANCH   5   8
ATOM      8  C   UNL     1       1.431  -2.754  -1.200  0.00  0.00    +0.271 C 
ATOM      9  N   UNL     1       0.864  -2.167  -2.421  0.00  0.00    -0.350 N 
ATOM     10  C   UNL     1       0.246  -3.118  -3.060  0.00  0.00    +0.061 A 
ATOM     11  C   UNL     1      -0.503  -3.149  -4.324  0.00  0.00    +0.027 A 
ATOM     12  C   UNL     1      -1.046  -4.308  -4.747  0.00  0.00    +0.002 A 
ATOM     13  C   UNL     1      -0.927  -5.509  -4.025  0.00  0.00    +0.002 A 
ATOM     14  C   UNL     1      -0.262  -5.591  -2.856  0.00  0.00    +0.027 A 
ATOM     15  C   UNL     1       0.372  -4.389  -2.296  0.00  0.00    +0.061 A 
ATOM     16  N   UNL     1       1.063  -4.175  -1.214  0.00  0.00    -0.350 N 
ATOM     17  H   UNL     1       0.935  -1.241  -2.699  0.00  0.00    +0.163 HD
ATOM     18  H   UNL     1       1.292  -4.834  -0.540  0.00  0.00    +0.163 HD
ENDBRANCH   5   8
BRANCH   3  19
ATOM     19  C   UNL     1      -2.507  -0.280   0.013  0.00  0.00    +0.239 C 
ATOM     20  C   UNL     1      -3.184  -0.705   1.292  0.00  0.00    +0.011 A 
ATOM     21  C   UNL     1      -2.946  -0.446   2.621  0.00  0.00    +0.008 A 
ATOM     22  C   UNL     1      -3.767  -0.997   3.591  0.00  0.00    +0.000 A 
ATOM     23  C   UNL     1      -4.827  -1.809   3.227  0.00  0.00    +0.001 A 
ATOM     24  C   UNL     1      -5.076  -2.075   1.896  0.00  0.00    +0.015 A 
ATOM     25  C   UNL     1      -4.253  -1.523   0.914  0.00  0.00    +0.066 A 
ATOM     26  C   UNL     1      -4.249  -1.611  -0.558  0.00  0.00    +0.340 C 
ATOM     27  O   UNL     1      -5.046  -2.245  -1.220  0.00  0.00    -0.245 OA
ATOM     28  O   UNL     1      -3.234  -0.886  -1.059  0.00  0.00    -0.448 OA
ENDBRANCH   3  19
BRANCH   4  29
ATOM     29  O   UNL     1      -1.060  -2.879   1.164  0.00  0.00    -0.372 OA
ATOM     30  H   UNL     1      -0.788  -3.806   1.209  0.00  0.00    +0.212 HD
ENDBRANCH   4  29
TORSDOF 3
