REMARK  Name = ZINC09442281
REMARK  7 active torsions:
REMARK  status: ('A' for Active; 'I' for Inactive)
REMARK    1  A    between atoms: C_1  and  C_2
REMARK    2  A    between atoms: C_2  and  C_36
REMARK    3  A    between atoms: C_13  and  C_15
REMARK    4  A    between atoms: C_15  and  O_16
REMARK    5  A    between atoms: O_16  and  C_17
REMARK    6  A    between atoms: C_17  and  C_19
REMARK    7  A    between atoms: N_24  and  C_26
REMARK                            x       y       z     vdW  Elec       q    Type
REMARK                         _______ _______ _______ _____ _____    ______ ____
ROOT
ATOM      1  O   UNL     1      -4.471  11.237  -3.574  0.00  0.00    -0.455 OA
ENDROOT
BRANCH   1   2
ATOM      2  C   UNL     1      -4.170  10.051  -4.124  0.00  0.00    +0.313 C 
ATOM      3  O   UNL     1      -3.355   9.986  -5.013  0.00  0.00    -0.250 OA
BRANCH   2   4
ATOM      4  C   UNL     1      -4.849   8.798  -3.632  0.00  0.00    +0.124 C 
ATOM      5  C   UNL     1      -4.414   8.464  -2.186  0.00  0.00    +0.112 C 
ATOM      6  C   UNL     1      -4.337   6.953  -2.164  0.00  0.00    +0.221 C 
ATOM      7  O   UNL     1      -4.309   6.274  -1.159  0.00  0.00    -0.275 OA
ATOM      8  N   UNL     1      -4.302   6.473  -3.419  0.00  0.00    -0.270 N 
ATOM      9  C   UNL     1      -4.350   7.558  -4.406  0.00  0.00    +0.128 C 
BRANCH   8  10
ATOM     10  C   UNL     1      -4.235   5.112  -3.743  0.00  0.00    +0.040 A 
ATOM     11  C   UNL     1      -4.319   4.709  -5.069  0.00  0.00    +0.027 A 
ATOM     12  C   UNL     1      -4.254   3.366  -5.389  0.00  0.00    +0.051 A 
ATOM     13  C   UNL     1      -4.105   2.418  -4.388  0.00  0.00    +0.162 A 
ATOM     14  C   UNL     1      -4.018   2.819  -3.060  0.00  0.00    +0.164 A 
ATOM     15  C   UNL     1      -4.084   4.166  -2.739  0.00  0.00    +0.073 A 
ATOM     16  O   UNL     1      -3.862   1.903  -2.064  0.00  0.00    -0.485 OA
ATOM     17  C   UNL     1      -4.172   0.543  -2.386  0.00  0.00    +0.270 C 
ATOM     18  C   UNL     1      -3.519   0.207  -3.733  0.00  0.00    +0.270 C 
ATOM     19  O   UNL     1      -4.046   1.099  -4.722  0.00  0.00    -0.485 OA
ENDBRANCH   8  10
ENDBRANCH   2   4
ENDBRANCH   1   2
BRANCH   1  20
ATOM     20  C   UNL     1      -3.778  12.401  -4.097  0.00  0.00    +0.328 C 
BRANCH  20  33
ATOM     21  C   UNL     1      -5.380  15.747  -2.076  0.00  0.00    +0.042 C 
ATOM     22  C   UNL     1      -4.269  16.071  -3.077  0.00  0.00    +0.113 C 
ATOM     23  C   UNL     1      -4.755  17.118  -4.047  0.00  0.00    +0.241 C 
ATOM     24  O   UNL     1      -5.562  17.946  -3.680  0.00  0.00    -0.273 OA
ATOM     25  N   UNL     1      -4.303  17.145  -5.315  0.00  0.00    -0.282 N 
ATOM     26  C   UNL     1      -3.411  16.173  -5.778  0.00  0.00    +0.055 A 
ATOM     27  C   UNL     1      -2.725  16.349  -6.969  0.00  0.00    +0.025 A 
ATOM     28  C   UNL     1      -1.836  15.372  -7.403  0.00  0.00    +0.002 A 
ATOM     29  C   UNL     1      -1.643  14.221  -6.660  0.00  0.00    +0.002 A 
ATOM     30  C   UNL     1      -2.327  14.038  -5.471  0.00  0.00    +0.025 A 
ATOM     31  C   UNL     1      -3.205  15.010  -5.028  0.00  0.00    +0.059 A 
ATOM     32  N   UNL     1      -3.910  14.856  -3.824  0.00  0.00    -0.253 N 
ATOM     33  C   UNL     1      -4.242  13.633  -3.364  0.00  0.00    +0.258 C 
ATOM     34  O   UNL     1      -4.913  13.525  -2.359  0.00  0.00    -0.271 OA
ATOM     35  C   UNL     1      -3.041  16.596  -2.331  0.00  0.00    +0.042 C 
ATOM     36  H   UNL     1      -4.601  17.848  -5.915  0.00  0.00    +0.155 HD
ENDBRANCH  20  33
ENDBRANCH   1  20
TORSDOF 5
