REMARK  Name = ZINC23616762
REMARK  9 active torsions:
REMARK  status: ('A' for Active; 'I' for Inactive)
REMARK    1  A    between atoms: C_1  and  C_2
REMARK    2  A    between atoms: C_5  and  N_9
REMARK    3  A    between atoms: C_10  and  C_12
REMARK    4  A    between atoms: C_12  and  C_14
REMARK    5  A    between atoms: C_12  and  S_15
REMARK    6  A    between atoms: S_15  and  C_16
REMARK    7  A    between atoms: C_19  and  C_22
REMARK    8  A    between atoms: N_20  and  N_21
REMARK    9  A    between atoms: C_26  and  C_27
REMARK                            x       y       z     vdW  Elec       q    Type
REMARK                         _______ _______ _______ _____ _____    ______ ____
ROOT
ATOM      1  S   UNL     1       3.474  -2.616   0.867  0.00  0.00    -0.072 S 
ENDROOT
BRANCH   1   2
ATOM      2  C   UNL     1       5.143  -3.165   1.008  0.00  0.00    +0.209 A 
ATOM      3  N   UNL     1       6.217  -2.486   0.676  0.00  0.00    -0.121 NA
ATOM      4  N   UNL     1       7.270  -3.185   0.910  0.00  0.00    -0.127 NA
ATOM      5  C   UNL     1       6.933  -4.353   1.405  0.00  0.00    +0.185 A 
ATOM      6  N   UNL     1       5.561  -4.374   1.489  0.00  0.00    -0.224 N 
BRANCH   5   7
ATOM      7  C   UNL     1       7.856  -5.438   1.803  0.00  0.00    +0.061 A 
ATOM      8  C   UNL     1       7.496  -6.749   2.358  0.00  0.00    +0.053 A 
ATOM      9  C   UNL     1       8.655  -7.395   2.564  0.00  0.00    +0.196 A 
ATOM     10  O   UNL     1       9.671  -6.604   2.188  0.00  0.00    -0.467 OA
ATOM     11  C   UNL     1       9.214  -5.431   1.726  0.00  0.00    +0.112 A 
ATOM     12  C   UNL     1      10.062  -4.296   1.210  0.00  0.00    +0.087 C 
ENDBRANCH   5   7
BRANCH   6  13
ATOM     13  N   UNL     1       4.778  -5.393   1.954  0.00  0.00    -0.295 N 
ATOM     14  H   UNL     1       5.242  -6.322   2.315  0.00  0.00    +0.163 HD
ATOM     15  H   UNL     1       3.684  -5.285   1.966  0.00  0.00    +0.163 HD
ENDBRANCH   6  13
ENDBRANCH   1   2
BRANCH   1  16
ATOM     16  C   UNL     1       3.744  -0.965   0.176  0.00  0.00    +0.137 C 
ATOM     17  C   UNL     1       4.362  -1.089  -1.218  0.00  0.00    +0.029 C 
BRANCH  16  19
ATOM     18  N   UNL     1       2.403   1.105  -0.015  0.00  0.00    -0.282 N 
ATOM     19  C   UNL     1       2.427  -0.239   0.079  0.00  0.00    +0.230 C 
ATOM     20  O   UNL     1       1.388  -0.865   0.086  0.00  0.00    -0.274 OA
ATOM     21  H   UNL     1       3.344   1.666  -0.113  0.00  0.00    +0.155 HD
BRANCH  18  26
ATOM     22  C   UNL     1      -2.554   3.868   0.092  0.00  0.00    +0.044 C 
ATOM     23  C   UNL     1      -1.237   3.135   0.063  0.00  0.00    -0.048 A 
ATOM     24  C   UNL     1      -1.130   1.886   0.646  0.00  0.00    +0.005 A 
ATOM     25  C   UNL     1       0.076   1.213   0.627  0.00  0.00    +0.026 A 
ATOM     26  C   UNL     1       1.180   1.787   0.012  0.00  0.00    +0.069 A 
ATOM     27  C   UNL     1       1.069   3.042  -0.578  0.00  0.00    +0.145 A 
ATOM     28  C   UNL     1      -0.140   3.712  -0.550  0.00  0.00    +0.043 A 
ATOM     29  F   UNL     1       2.141   3.605  -1.178  0.00  0.00    -0.204 F 
ENDBRANCH  18  26
ENDBRANCH  16  19
ENDBRANCH   1  16
TORSDOF 6
