REMARK  Name = ZINC04114495
REMARK  5 active torsions:
REMARK  status: ('A' for Active; 'I' for Inactive)
REMARK    1  A    between atoms: C_1  and  O_2
REMARK    2  A    between atoms: O_2  and  C_3
REMARK    3  A    between atoms: C_6  and  C_9
REMARK    4  A    between atoms: C_12  and  C_22
REMARK    5  A    between atoms: C_24  and  O_31
REMARK                            x       y       z     vdW  Elec       q    Type
REMARK                         _______ _______ _______ _____ _____    ______ ____
ROOT
ATOM      1  C   UNL     1       0.051   0.008  -0.018  0.00  0.00    +0.204 C 
ATOM      2  C   UNL     1      -0.079  -0.516  -1.455  0.00  0.00    +0.058 C 
ATOM      3  C   UNL     1      -0.041  -2.044  -1.405  0.00  0.00    +0.042 C 
ATOM      4  C   UNL     1      -0.988  -2.553  -0.344  0.00  0.00    +0.036 C 
ATOM      5  C   UNL     1      -1.438  -1.759   0.643  0.00  0.00    +0.105 C 
ATOM      6  O   UNL     1      -1.100  -0.457   0.731  0.00  0.00    -0.488 OA
ATOM      7  C   UNL     1      -2.365  -2.303   1.707  0.00  0.00    +0.074 C 
ATOM      8  C   UNL     1      -3.249  -3.400   1.109  0.00  0.00    +0.015 C 
ATOM      9  C   UNL     1      -2.340  -4.506   0.562  0.00  0.00    +0.080 C 
ATOM     10  C   UNL     1      -1.385  -3.903  -0.431  0.00  0.00    +0.163 C 
ATOM     11  O   UNL     1      -0.946  -4.595  -1.327  0.00  0.00    -0.292 OA
ENDROOT
BRANCH   3  12
ATOM     12  C   UNL     1      -0.457  -2.607  -2.765  0.00  0.00    +0.091 C 
ATOM     13  C   UNL     1       0.475  -2.065  -3.854  0.00  0.00    +0.125 C 
ATOM     14  C   UNL     1      -0.029  -2.516  -5.225  0.00  0.00    +0.032 C 
ATOM     15  C   UNL     1      -1.407  -1.910  -5.497  0.00  0.00    +0.010 C 
ATOM     16  C   UNL     1      -2.410  -2.446  -4.470  0.00  0.00    +0.075 C 
ATOM     17  C   UNL     1      -1.873  -2.177  -3.081  0.00  0.00    +0.139 C 
ATOM     18  O   UNL     1      -2.554  -1.630  -2.248  0.00  0.00    -0.297 OA
BRANCH  13  19
ATOM     19  O   UNL     1       0.493  -0.637  -3.798  0.00  0.00    -0.391 OA
ATOM     20  H   UNL     1       1.064  -0.225  -4.461  0.00  0.00    +0.210 HD
ENDBRANCH  13  19
ENDBRANCH   3  12
BRANCH   1  24
ATOM     21  C   UNL     1       0.136   4.280  -0.038  0.00  0.00    +0.120 A 
ATOM     22  C   UNL     1       1.322   3.562  -0.030  0.00  0.00    +0.046 A 
ATOM     23  C   UNL     1       1.292   2.181  -0.023  0.00  0.00    +0.011 A 
ATOM     24  C   UNL     1       0.081   1.515  -0.025  0.00  0.00    -0.007 A 
ATOM     25  C   UNL     1      -1.103   2.228  -0.039  0.00  0.00    +0.011 A 
ATOM     26  C   UNL     1      -1.079   3.610  -0.040  0.00  0.00    +0.046 A 
BRANCH  21  28
ATOM     27  C   UNL     1      -1.098   6.313  -0.054  0.00  0.00    +0.277 C 
ATOM     28  O   UNL     1       0.162   5.639  -0.046  0.00  0.00    -0.495 OA
ENDBRANCH  21  28
ENDBRANCH   1  24
TORSDOF 4
