REMARK  Name = ZINC12489367
REMARK  11 active torsions:
REMARK  status: ('A' for Active; 'I' for Inactive)
REMARK    1  A    between atoms: C_1  and  C_2
REMARK    2  A    between atoms: C_2  and  C_3
REMARK    3  A    between atoms: C_2  and  C_4
REMARK    4  A    between atoms: C_7  and  O_11
REMARK    5  A    between atoms: O_11  and  C_12
REMARK    6  A    between atoms: C_12  and  C_13
REMARK    7  A    between atoms: N_15  and  N_16
REMARK    8  A    between atoms: N_16  and  C_17
REMARK    9  A    between atoms: C_17  and  N_19
REMARK   10  A    between atoms: C_20  and  C_22
REMARK   11  A    between atoms: C_23  and  C_24
REMARK                            x       y       z     vdW  Elec       q    Type
REMARK                         _______ _______ _______ _____ _____    ______ ____
ROOT
ATOM      1  C   UNL     1       4.616   4.025  -0.020  0.00  0.00    +0.267 C 
ATOM      2  O   UNL     1       5.675   3.433  -0.034  0.00  0.00    -0.271 OA
ATOM      3  N   UNL     1       3.458   3.335  -0.013  0.00  0.00    -0.232 N 
ATOM      4  H   UNL     1       2.612   3.808  -0.002  0.00  0.00    +0.173 HD
ENDROOT
BRANCH   3   5
ATOM      5  N   UNL     1       3.478   1.934  -0.021  0.00  0.00    -0.245 N 
ATOM      6  H   UNL     1       4.324   1.460  -0.031  0.00  0.00    +0.172 HD
BRANCH   5   7
ATOM      7  C   UNL     1       2.320   1.244  -0.013  0.00  0.00    +0.153 C 
ATOM      8  S   UNL     1       2.343  -0.468  -0.023  0.00  0.00    -0.017 S 
BRANCH   7   9
ATOM      9  N   UNL     1       1.143   1.902   0.001  0.00  0.00    -0.263 N 
ATOM     10  C   UNL     1      -0.014   1.212   0.009  0.00  0.00    +0.242 C 
ATOM     11  O   UNL     1       0.002  -0.004   0.002  0.00  0.00    -0.270 OA
ATOM     12  H   UNL     1       1.130   2.872   0.007  0.00  0.00    +0.157 HD
BRANCH  10  13
ATOM     13  C   UNL     1      -1.291   1.927   0.019  0.00  0.00    +0.068 C 
ATOM     14  C   UNL     1      -2.450   1.236   0.020  0.00  0.00    +0.013 C 
BRANCH  14  15
ATOM     15  C   UNL     1      -3.735   1.955   0.030  0.00  0.00    -0.025 A 
ATOM     16  C   UNL     1      -3.758   3.353   0.044  0.00  0.00    +0.008 A 
ATOM     17  C   UNL     1      -4.965   4.019   0.047  0.00  0.00    +0.001 A 
ATOM     18  C   UNL     1      -6.152   3.307   0.049  0.00  0.00    +0.000 A 
ATOM     19  C   UNL     1      -6.138   1.923   0.042  0.00  0.00    +0.001 A 
ATOM     20  C   UNL     1      -4.938   1.243   0.032  0.00  0.00    +0.008 A 
ENDBRANCH  14  15
ENDBRANCH  10  13
ENDBRANCH   7   9
ENDBRANCH   5   7
ENDBRANCH   3   5
BRANCH   1  21
ATOM     21  C   UNL     1       4.596   5.531  -0.012  0.00  0.00    +0.326 C 
BRANCH  21  22
ATOM     22  O   UNL     1       5.937   6.026  -0.022  0.00  0.00    -0.482 OA
BRANCH  22  26
ATOM     23  C   UNL     1       6.422  10.123  -0.004  0.00  0.00    -0.044 A 
ATOM     24  C   UNL     1       5.151   9.578   0.005  0.00  0.00    +0.007 A 
ATOM     25  C   UNL     1       4.986   8.207  -0.002  0.00  0.00    +0.047 A 
ATOM     26  C   UNL     1       6.096   7.376  -0.017  0.00  0.00    +0.135 A 
ATOM     27  C   UNL     1       7.371   7.925  -0.020  0.00  0.00    +0.060 A 
ATOM     28  C   UNL     1       7.530   9.298  -0.019  0.00  0.00    +0.022 A 
ATOM     29 BR   UNL     1       8.888   6.796  -0.033  0.00  0.00    -0.047 Br
BRANCH  23  31
ATOM     30  C   UNL     1       7.385  12.035   1.249  0.00  0.00    +0.012 C 
ATOM     31  C   UNL     1       6.598  11.620   0.004  0.00  0.00    +0.013 C 
ATOM     32  C   UNL     1       7.363  12.050  -1.250  0.00  0.00    +0.012 C 
ENDBRANCH  23  31
ENDBRANCH  22  26
ENDBRANCH  21  22
ENDBRANCH   1  21
TORSDOF 9
