REMARK  Name = ZINC39359394
REMARK  13 active torsions:
REMARK  status: ('A' for Active; 'I' for Inactive)
REMARK    1  A    between atoms: C_1  and  O_2
REMARK    2  A    between atoms: O_2  and  C_3
REMARK    3  A    between atoms: C_7  and  C_11
REMARK    4  A    between atoms: C_8  and  O_9
REMARK    5  A    between atoms: O_9  and  C_10
REMARK    6  A    between atoms: C_14  and  O_40
REMARK    7  A    between atoms: C_25  and  C_28
REMARK    8  A    between atoms: C_30  and  O_38
REMARK    9  A    between atoms: C_31  and  O_36
REMARK   10  A    between atoms: C_32  and  O_34
REMARK   11  A    between atoms: O_34  and  C_35
REMARK   12  A    between atoms: O_36  and  C_37
REMARK   13  A    between atoms: O_38  and  C_39
REMARK                            x       y       z     vdW  Elec       q    Type
REMARK                         _______ _______ _______ _____ _____    ______ ____
ROOT
ATOM      1  C   UNL     1       1.136  -3.994   2.662  0.00  0.00    +0.092 C 
ATOM      2  C   UNL     1       0.428  -4.203   3.967  0.00  0.00    +0.049 C 
ATOM      3  C   UNL     1      -0.397  -3.483   4.695  0.00  0.00    +0.235 C 
ATOM      4  N   UNL     1      -0.645  -4.106   5.879  0.00  0.00    -0.114 NA
ATOM      5  N   UNL     1      -0.098  -5.210   6.001  0.00  0.00    -0.157 NA
ATOM      6  C   UNL     1       0.619  -5.501   4.758  0.00  0.00    +0.245 C 
ATOM      7  N   UNL     1       2.070  -5.588   4.946  0.00  0.00    -0.321 N 
ATOM      8  C   UNL     1       2.906  -5.283   3.901  0.00  0.00    +0.014 C 
ATOM      9  C   UNL     1       2.540  -4.558   2.821  0.00  0.00    +0.024 C 
ATOM     10  C   UNL     1       3.443  -4.286   1.780  0.00  0.00    +0.162 C 
ATOM     11  O   UNL     1       3.075  -3.619   0.833  0.00  0.00    -0.292 OA
ATOM     12  C   UNL     1       4.856  -4.800   1.811  0.00  0.00    +0.088 C 
ATOM     13  C   UNL     1       4.886  -6.100   2.624  0.00  0.00    +0.032 C 
ATOM     14  C   UNL     1       4.323  -5.807   4.020  0.00  0.00    +0.059 C 
ATOM     15  H   UNL     1       2.436  -5.859   5.803  0.00  0.00    +0.148 HD
ENDROOT
BRANCH   1  20
ATOM     16  C   UNL     1       0.606  -0.661   0.948  0.00  0.00    +0.162 A 
ATOM     17  C   UNL     1       1.338   0.184   1.767  0.00  0.00    +0.049 A 
ATOM     18  C   UNL     1       2.000  -0.324   2.869  0.00  0.00    +0.004 A 
ATOM     19  C   UNL     1       1.934  -1.674   3.157  0.00  0.00    +0.008 A 
ATOM     20  C   UNL     1       1.205  -2.522   2.345  0.00  0.00    +0.010 A 
ATOM     21  C   UNL     1       0.534  -2.019   1.242  0.00  0.00    +0.166 A 
BRANCH  16  23
ATOM     22  C   UNL     1       0.072   1.241  -0.376  0.00  0.00    +0.277 C 
ATOM     23  O   UNL     1      -0.046  -0.162  -0.136  0.00  0.00    -0.491 OA
ENDBRANCH  16  23
BRANCH  21  24
ATOM     24  O   UNL     1      -0.188  -2.851   0.445  0.00  0.00    -0.491 OA
ATOM     25  C   UNL     1       0.459  -3.350  -0.728  0.00  0.00    +0.277 C 
ENDBRANCH  21  24
ENDBRANCH   1  20
BRANCH  13  26
ATOM     26  C   UNL     1       6.305  -6.593   2.741  0.00  0.00    -0.036 A 
ATOM     27  C   UNL     1       7.261  -5.803   3.351  0.00  0.00    +0.053 A 
ATOM     28  C   UNL     1       8.568  -6.254   3.461  0.00  0.00    +0.165 A 
ATOM     29  C   UNL     1       8.916  -7.501   2.955  0.00  0.00    +0.204 A 
ATOM     30  C   UNL     1       7.951  -8.292   2.343  0.00  0.00    +0.165 A 
ATOM     31  C   UNL     1       6.646  -7.837   2.242  0.00  0.00    +0.053 A 
BRANCH  30  32
ATOM     32  O   UNL     1       8.287  -9.513   1.847  0.00  0.00    -0.491 OA
ATOM     33  C   UNL     1       7.245 -10.271   1.230  0.00  0.00    +0.277 C 
ENDBRANCH  30  32
BRANCH  29  34
ATOM     34  O   UNL     1      10.198  -7.946   3.060  0.00  0.00    -0.488 OA
ATOM     35  C   UNL     1      10.532  -8.690   4.234  0.00  0.00    +0.277 C 
ENDBRANCH  29  34
BRANCH  28  36
ATOM     36  O   UNL     1       9.508  -5.476   4.061  0.00  0.00    -0.491 OA
ATOM     37  C   UNL     1       9.079  -4.206   4.556  0.00  0.00    +0.277 C 
ENDBRANCH  28  36
ENDBRANCH  13  26
BRANCH   3  38
ATOM     38  O   UNL     1      -0.923  -2.287   4.320  0.00  0.00    -0.491 OA
ATOM     39  H   UNL     1      -1.512  -1.893   4.978  0.00  0.00    +0.294 HD
ENDBRANCH   3  38
TORSDOF 8
