REMARK  Name = ZINC39580150
REMARK  11 active torsions:
REMARK  status: ('A' for Active; 'I' for Inactive)
REMARK    1  A    between atoms: C_1  and  C_2
REMARK    2  A    between atoms: C_7  and  C_9
REMARK    3  A    between atoms: C_7  and  C_10
REMARK    4  A    between atoms: N_13  and  C_17
REMARK    5  A    between atoms: C_17  and  C_18
REMARK    6  A    between atoms: C_18  and  O_20
REMARK    7  A    between atoms: O_20  and  C_21
REMARK    8  A    between atoms: C_21  and  C_23
REMARK    9  A    between atoms: C_21  and  C_24
REMARK   10  A    between atoms: N_26  and  C_27
REMARK   11  A    between atoms: C_32  and  C_33
REMARK                            x       y       z     vdW  Elec       q    Type
REMARK                         _______ _______ _______ _____ _____    ______ ____
ROOT
ATOM      1  C   UNL     1      -2.283  -3.337  -4.379  0.00  0.00    +0.326 C 
ATOM      2  O   UNL     1      -1.936  -2.203  -4.614  0.00  0.00    -0.249 OA
ENDROOT
BRANCH   1   3
ATOM      3  C   UNL     1      -1.560  -4.144  -3.332  0.00  0.00    +0.238 C 
BRANCH   3  15
ATOM      4  C   UNL     1       0.040   1.516  -0.035  0.00  0.00    +0.007 C 
ATOM      5  C   UNL     1       0.052  -0.015  -0.038  0.00  0.00    -0.011 C 
ATOM      6  C   UNL     1       0.767  -0.511  -1.297  0.00  0.00    +0.038 C 
ATOM      7  C   UNL     1       0.744  -2.033  -1.335  0.00  0.00    +0.113 C 
ATOM      8  C   UNL     1       1.299  -2.664  -0.074  0.00  0.00    +0.041 C 
ATOM      9  C   UNL     1       0.833  -2.042   1.230  0.00  0.00    -0.032 C 
ATOM     10  C   UNL     1       0.818  -0.519   1.184  0.00  0.00    +0.009 C 
ATOM     11  C   UNL     1      -0.551  -2.570   1.619  0.00  0.00    +0.011 C 
ATOM     12  C   UNL     1       1.817  -2.468   2.341  0.00  0.00    +0.011 C 
ATOM     13  C   UNL     1      -0.637  -2.542  -1.667  0.00  0.00    +0.247 C 
ATOM     14  O   UNL     1      -1.684  -2.288  -1.110  0.00  0.00    -0.273 OA
ATOM     15  N   UNL     1      -0.486  -3.337  -2.748  0.00  0.00    -0.213 N 
ATOM     16  C   UNL     1       0.766  -3.294  -3.216  0.00  0.00    +0.310 C 
ATOM     17  O   UNL     1       1.145  -3.914  -4.191  0.00  0.00    -0.252 OA
ATOM     18  N   UNL     1       1.557  -2.490  -2.485  0.00  0.00    -0.285 N 
ATOM     19  H   UNL     1       2.477  -2.248  -2.663  0.00  0.00    +0.151 HD
ENDBRANCH   3  15
ENDBRANCH   1   3
BRANCH   1  20
ATOM     20  O   UNL     1      -3.311  -3.877  -5.051  0.00  0.00    -0.451 OA
BRANCH  20  21
ATOM     21  C   UNL     1      -3.950  -3.054  -6.030  0.00  0.00    +0.259 C 
ATOM     22  C   UNL     1      -3.265  -3.248  -7.384  0.00  0.00    +0.062 C 
BRANCH  21  23
ATOM     23  C   UNL     1      -5.402  -3.442  -6.141  0.00  0.00    +0.258 C 
ATOM     24  O   UNL     1      -5.846  -4.335  -5.450  0.00  0.00    -0.271 OA
ATOM     25  N   UNL     1      -6.207  -2.797  -7.008  0.00  0.00    -0.282 N 
ATOM     26  H   UNL     1      -5.874  -2.031  -7.502  0.00  0.00    +0.155 HD
BRANCH  25  27
ATOM     27  C   UNL     1      -7.522  -3.230  -7.195  0.00  0.00    +0.041 A 
ATOM     28  C   UNL     1      -7.865  -4.549  -6.935  0.00  0.00    +0.024 A 
ATOM     29  C   UNL     1      -9.165  -4.976  -7.121  0.00  0.00    +0.002 A 
ATOM     30  C   UNL     1     -10.133  -4.093  -7.567  0.00  0.00    +0.001 A 
ATOM     31  C   UNL     1      -9.808  -2.778  -7.829  0.00  0.00    +0.010 A 
ATOM     32  C   UNL     1      -8.501  -2.334  -7.641  0.00  0.00    +0.003 A 
BRANCH  32  33
ATOM     33  C   UNL     1      -8.147  -0.921  -7.916  0.00  0.00    -0.016 A 
ATOM     34  C   UNL     1      -7.438  -0.180  -6.971  0.00  0.00    +0.008 A 
ATOM     35  C   UNL     1      -7.110   1.134  -7.233  0.00  0.00    +0.001 A 
ATOM     36  C   UNL     1      -7.485   1.718  -8.430  0.00  0.00    +0.000 A 
ATOM     37  C   UNL     1      -8.189   0.989  -9.371  0.00  0.00    +0.001 A 
ATOM     38  C   UNL     1      -8.517  -0.329  -9.122  0.00  0.00    +0.008 A 
ENDBRANCH  32  33
ENDBRANCH  25  27
ENDBRANCH  21  23
ENDBRANCH  20  21
ENDBRANCH   1  20
TORSDOF 7
