REMARK  Name = ZINC47510668
REMARK  10 active torsions:
REMARK  status: ('A' for Active; 'I' for Inactive)
REMARK    1  A    between atoms: C_1  and  C_2
REMARK    2  A    between atoms: C_2  and  C_3
REMARK    3  A    between atoms: C_2  and  N_4
REMARK    4  A    between atoms: C_5  and  C_7
REMARK    5  A    between atoms: C_7  and  C_8
REMARK    6  A    between atoms: C_8  and  N_9
REMARK    7  A    between atoms: N_9  and  C_10
REMARK    8  A    between atoms: C_11  and  N_23
REMARK    9  A    between atoms: C_13  and  C_19
REMARK   10  A    between atoms: C_15  and  N_16
REMARK                            x       y       z     vdW  Elec       q    Type
REMARK                         _______ _______ _______ _____ _____    ______ ____
ROOT
ATOM      1  C   UNL     1      -5.912  -2.036  -3.921  0.00  0.00    +0.088 A 
ATOM      2  C   UNL     1      -7.127  -2.708  -3.907  0.00  0.00    +0.150 A 
ATOM      3  C   UNL     1      -8.057  -2.469  -4.900  0.00  0.00    +0.047 A 
ATOM      4  C   UNL     1      -7.780  -1.563  -5.907  0.00  0.00    +0.059 A 
ATOM      5  C   UNL     1      -6.570  -0.893  -5.924  0.00  0.00    +0.047 A 
ATOM      6  C   UNL     1      -5.638  -1.122  -4.931  0.00  0.00    +0.150 A 
ENDROOT
BRANCH   4   7
ATOM      7  C   UNL     1      -8.797  -1.306  -6.989  0.00  0.00    +0.418 C 
ATOM      8  F   UNL     1      -9.639  -0.259  -6.598  0.00  0.00    -0.166 F 
ATOM      9  F   UNL     1      -8.139  -0.959  -8.174  0.00  0.00    -0.166 F 
ATOM     10  F   UNL     1      -9.557  -2.462  -7.198  0.00  0.00    -0.166 F 
ENDBRANCH   4   7
BRANCH   6  11
ATOM     11  N   UNL     1      -4.347  -0.399  -4.946  0.00  0.00    +0.058 N 
ATOM     12  O   UNL     1      -3.928   0.070  -5.979  0.00  0.00    -0.126 OA
ATOM     13  O   UNL     1      -3.710  -0.277  -3.925  0.00  0.00    -0.126 OA
ENDBRANCH   6  11
BRANCH   2  14
ATOM     14  N   UNL     1      -7.425  -3.678  -2.830  0.00  0.00    +0.058 N 
ATOM     15  O   UNL     1      -8.438  -4.337  -2.873  0.00  0.00    -0.126 OA
ATOM     16  O   UNL     1      -6.656  -3.812  -1.907  0.00  0.00    -0.126 OA
ENDBRANCH   2  14
BRANCH   1  17
ATOM     17  N   UNL     1      -4.968  -2.274  -2.919  0.00  0.00    -0.340 N 
ATOM     18  H   UNL     1      -5.147  -1.992  -2.008  0.00  0.00    +0.146 HD
BRANCH  17  19
ATOM     19  C   UNL     1      -3.710  -2.951  -3.243  0.00  0.00    +0.111 C 
BRANCH  19  20
ATOM     20  C   UNL     1      -3.941  -4.463  -3.288  0.00  0.00    +0.114 C 
BRANCH  20  22
ATOM     21  N   UNL     1      -2.608  -6.503  -3.715  0.00  0.00    -0.313 N 
ATOM     22  C   UNL     1      -2.646  -5.159  -3.621  0.00  0.00    +0.215 C 
ATOM     23  O   UNL     1      -1.639  -4.509  -3.805  0.00  0.00    -0.276 OA
ATOM     24  H   UNL     1      -3.414  -7.022  -3.567  0.00  0.00    +0.149 HD
BRANCH  21  26
ATOM     25  C   UNL     1      -0.540  -7.392  -2.758  0.00  0.00    +0.027 C 
ATOM     26  C   UNL     1      -1.350  -7.179  -4.039  0.00  0.00    +0.067 C 
ATOM     27  C   UNL     1      -1.651  -8.534  -4.684  0.00  0.00    +0.027 C 
ENDBRANCH  21  26
ENDBRANCH  20  22
ENDBRANCH  19  20
ENDBRANCH  17  19
ENDBRANCH   1  17
TORSDOF 8
