REMARK  Name = ZINC59463032
REMARK  10 active torsions:
REMARK  status: ('A' for Active; 'I' for Inactive)
REMARK    1  A    between atoms: C_1  and  C_2
REMARK    2  A    between atoms: C_2  and  C_3
REMARK    3  A    between atoms: C_2  and  C_4
REMARK    4  A    between atoms: C_2  and  C_5
REMARK    5  A    between atoms: C_8  and  O_11
REMARK    6  A    between atoms: O_11  and  C_12
REMARK    7  A    between atoms: C_15  and  C_29
REMARK    8  A    between atoms: C_17  and  N_18
REMARK    9  A    between atoms: C_19  and  C_20
REMARK   10  A    between atoms: C_25  and  O_26
REMARK                            x       y       z     vdW  Elec       q    Type
REMARK                         _______ _______ _______ _____ _____    ______ ____
ROOT
ATOM      1  C   UNL     1       3.904  -1.380  -4.861  0.00  0.00    +0.154 A 
ATOM      2  C   UNL     1       4.546  -0.587  -3.924  0.00  0.00    +0.049 A 
ATOM      3  C   UNL     1       5.823  -0.118  -4.171  0.00  0.00    +0.016 A 
ATOM      4  C   UNL     1       6.469  -0.435  -5.353  0.00  0.00    +0.057 A 
ATOM      5  C   UNL     1       5.844  -1.224  -6.297  0.00  0.00    +0.043 A 
ATOM      6  C   UNL     1       4.557  -1.708  -6.057  0.00  0.00    +0.107 A 
ENDROOT
BRANCH   4   7
ATOM      7  C   UNL     1       7.861   0.082  -5.610  0.00  0.00    +0.417 C 
ATOM      8  F   UNL     1       8.281   0.852  -4.520  0.00  0.00    -0.166 F 
ATOM      9  F   UNL     1       8.735  -0.996  -5.784  0.00  0.00    -0.166 F 
ATOM     10  F   UNL     1       7.859   0.872  -6.765  0.00  0.00    -0.166 F 
ENDBRANCH   4   7
BRANCH   6  11
ATOM     11  N   UNL     1       3.934  -2.495  -6.987  0.00  0.00    -0.251 NA
ATOM     12  C   UNL     1       4.583  -3.475  -7.551  0.00  0.00    +0.123 C 
BRANCH  12  13
ATOM     13  C   UNL     1       3.884  -4.388  -8.468  0.00  0.00    +0.037 A 
ATOM     14  C   UNL     1       4.575  -5.444  -9.072  0.00  0.00    +0.033 A 
ATOM     15  C   UNL     1       3.913  -6.296  -9.931  0.00  0.00    +0.043 A 
ATOM     16  C   UNL     1       2.566  -6.110 -10.200  0.00  0.00    +0.043 A 
ATOM     17  C   UNL     1       1.872  -5.070  -9.610  0.00  0.00    +0.084 A 
ATOM     18  C   UNL     1       2.520  -4.207  -8.739  0.00  0.00    +0.144 A 
ATOM     19 CL   UNL     1       0.185  -4.848  -9.956  0.00  0.00    -0.080 Cl
ATOM     20 CL   UNL     1       4.771  -7.606 -10.679  0.00  0.00    -0.083 Cl
BRANCH  18  21
ATOM     21  O   UNL     1       1.837  -3.189  -8.155  0.00  0.00    -0.505 OA
ATOM     22  H   UNL     1       1.844  -2.367  -8.665  0.00  0.00    +0.292 HD
ENDBRANCH  18  21
ENDBRANCH  12  13
ENDBRANCH   6  11
BRANCH   1  23
ATOM     23  O   UNL     1       2.650  -1.841  -4.620  0.00  0.00    -0.454 OA
BRANCH  23  27
ATOM     24  C   UNL     1       0.709  -0.493  -1.239  0.00  0.00    -0.042 A 
ATOM     25  C   UNL     1       1.094  -1.817  -1.331  0.00  0.00    +0.008 A 
ATOM     26  C   UNL     1       1.744  -2.272  -2.462  0.00  0.00    +0.046 A 
ATOM     27  C   UNL     1       2.010  -1.397  -3.506  0.00  0.00    +0.129 A 
ATOM     28  C   UNL     1       1.622  -0.068  -3.411  0.00  0.00    +0.046 A 
ATOM     29  C   UNL     1       0.968   0.379  -2.280  0.00  0.00    +0.008 A 
BRANCH  24  31
ATOM     30  C   UNL     1      -1.380   0.538  -0.388  0.00  0.00    +0.015 C 
ATOM     31  C   UNL     1      -0.001  -0.000  -0.004  0.00  0.00    -0.013 C 
ATOM     32  C   UNL     1       0.820   1.117   0.644  0.00  0.00    +0.015 C 
ATOM     33  C   UNL     1      -0.161  -1.155   0.987  0.00  0.00    +0.015 C 
ENDBRANCH  24  31
ENDBRANCH  23  27
ENDBRANCH   1  23
TORSDOF 7
