REMARK  Name = ZINC03838915
REMARK  15 active torsions:
REMARK  status: ('A' for Active; 'I' for Inactive)
REMARK    1  A    between atoms: C_1  and  C_2
REMARK    2  A    between atoms: C_2  and  C_3
REMARK    3  A    between atoms: C_2  and  C_4
REMARK    4  A    between atoms: C_4  and  C_6
REMARK    5  A    between atoms: C_4  and  N_10
REMARK    6  A    between atoms: C_6  and  O_8
REMARK    7  A    between atoms: O_8  and  C_9
REMARK    8  A    between atoms: C_11  and  C_13
REMARK    9  A    between atoms: C_16  and  N_26
REMARK   10  A    between atoms: C_20  and  C_22
REMARK   11  A    between atoms: C_23  and  C_24
REMARK   12  A    between atoms: C_23  and  C_25
REMARK   13  A    between atoms: N_29  and  C_30
REMARK   14  A    between atoms: C_34  and  S_36
REMARK   15  A    between atoms: S_36  and  C_37
REMARK                            x       y       z     vdW  Elec       q    Type
REMARK                         _______ _______ _______ _____ _____    ______ ____
ROOT
ATOM      1  C   UNL     1      -2.475  11.979   5.456  0.00  0.00    +0.164 C 
ATOM      2  C   UNL     1      -3.147  10.636   5.098  0.00  0.00    +0.056 C 
ATOM      3  C   UNL     1      -2.080   9.940   4.212  0.00  0.00    +0.094 C 
ATOM      4  C   UNL     1      -0.765  10.407   4.884  0.00  0.00    +0.131 C 
ATOM      5  N   UNL     1      -1.025  11.798   5.297  0.00  0.00    -0.285 N 
ATOM      6  C   UNL     1      -0.089  12.746   5.496  0.00  0.00    +0.240 C 
ATOM      7  O   UNL     1      -0.420  13.866   5.839  0.00  0.00    -0.271 OA
ENDROOT
BRANCH   3   8
ATOM      8  N   UNL     1      -2.214   8.483   4.276  0.00  0.00    -0.295 N 
ATOM      9  C   UNL     1      -1.770   7.720   3.257  0.00  0.00    +0.304 C 
ATOM     10  O   UNL     1      -1.258   8.241   2.285  0.00  0.00    -0.253 OA
ATOM     11  N   UNL     1      -1.893   6.379   3.316  0.00  0.00    -0.269 N 
ATOM     12  H   UNL     1      -2.622   8.067   5.051  0.00  0.00    +0.151 HD
ATOM     13  H   UNL     1      -2.368   5.968   4.055  0.00  0.00    +0.156 HD
BRANCH  11  14
ATOM     14  C   UNL     1      -1.336   5.580   2.311  0.00  0.00    +0.036 A 
ATOM     15  C   UNL     1      -1.957   4.394   1.941  0.00  0.00    +0.023 A 
ATOM     16  C   UNL     1      -1.408   3.604   0.949  0.00  0.00    +0.003 A 
ATOM     17  C   UNL     1      -0.240   3.991   0.321  0.00  0.00    +0.015 A 
ATOM     18  C   UNL     1       0.387   5.176   0.687  0.00  0.00    +0.009 A 
ATOM     19  C   UNL     1      -0.160   5.969   1.687  0.00  0.00    +0.038 A 
BRANCH  18  20
ATOM     20  S   UNL     1       1.877   5.669  -0.114  0.00  0.00    -0.129 S 
ATOM     21  C   UNL     1       2.193   4.342  -1.310  0.00  0.00    +0.090 C 
ENDBRANCH  18  20
ENDBRANCH  11  14
ENDBRANCH   3   8
BRANCH   1  23
ATOM     22  N   UNL     1      -3.981  12.902   7.188  0.00  0.00    -0.301 N 
ATOM     23  C   UNL     1      -2.793  12.345   6.883  0.00  0.00    +0.234 C 
ATOM     24  O   UNL     1      -1.978  12.138   7.758  0.00  0.00    -0.274 OA
ATOM     25  H   UNL     1      -4.633  13.068   6.488  0.00  0.00    +0.150 HD
BRANCH  22  26
ATOM     26  C   UNL     1      -4.290  13.259   8.575  0.00  0.00    +0.184 C 
BRANCH  26  28
ATOM     27  C   UNL     1      -3.800  10.914   9.286  0.00  0.00    +0.009 C 
ATOM     28  C   UNL     1      -4.843  12.033   9.305  0.00  0.00    +0.014 C 
ATOM     29  C   UNL     1      -5.165  12.405  10.754  0.00  0.00    +0.009 C 
ENDBRANCH  26  28
BRANCH  26  30
ATOM     30  C   UNL     1      -5.317  14.361   8.594  0.00  0.00    +0.328 C 
ATOM     31  O   UNL     1      -5.747  14.804   7.555  0.00  0.00    -0.249 OA
BRANCH  30  32
ATOM     32  O   UNL     1      -5.754  14.851   9.765  0.00  0.00    -0.467 OA
ATOM     33  C   UNL     1      -6.744  15.912   9.707  0.00  0.00    +0.280 C 
ENDBRANCH  30  32
ENDBRANCH  26  30
ENDBRANCH  22  26
ENDBRANCH   1  23
BRANCH   6  34
ATOM     34  C   UNL     1       1.334  12.428   5.300  0.00  0.00    +0.066 C 
ATOM     35  C   UNL     1       2.264  13.331   5.598  0.00  0.00    -0.071 C 
ATOM     36  C   UNL     1       1.859  14.722   6.012  0.00  0.00    +0.039 C 
ATOM     37  C   UNL     1       3.724  12.963   5.521  0.00  0.00    +0.039 C 
ENDBRANCH   6  34
TORSDOF 9
