REMARK  Name = ZINC44714308
REMARK  9 active torsions:
REMARK  status: ('A' for Active; 'I' for Inactive)
REMARK    1  A    between atoms: C_1  and  C_2
REMARK    2  A    between atoms: C_5  and  C_8
REMARK    3  A    between atoms: C_8  and  C_9
REMARK    4  A    between atoms: C_13  and  C_22
REMARK    5  A    between atoms: N_24  and  C_25
REMARK    6  A    between atoms: C_25  and  C_27
REMARK    7  A    between atoms: C_25  and  C_28
REMARK    8  A    between atoms: C_29  and  C_35
REMARK    9  A    between atoms: C_33  and  C_34
REMARK                            x       y       z     vdW  Elec       q    Type
REMARK                         _______ _______ _______ _____ _____    ______ ____
ROOT
ATOM      1  C   UNL     1       1.599  -4.768  -0.076  0.00  0.00    +0.220 C 
ATOM      2  O   UNL     1       2.524  -3.983  -0.080  0.00  0.00    -0.275 OA
ATOM      3  N   UNL     1       1.841  -6.094  -0.076  0.00  0.00    -0.300 N 
ATOM      4  C   UNL     1       0.852  -7.198  -0.077  0.00  0.00    +0.121 C 
ATOM      5  C   UNL     1       1.454  -8.260  -1.024  0.00  0.00    +0.100 C 
ATOM      6  C   UNL     1       2.967  -7.981  -1.016  0.00  0.00    -0.004 C 
ATOM      7  C   UNL     1       3.157  -6.778  -0.081  0.00  0.00    +0.115 C 
ATOM      8  C   UNL     1       3.446  -7.629  -2.421  0.00  0.00    -0.010 C 
ATOM      9  C   UNL     1       4.962  -7.412  -2.398  0.00  0.00    -0.082 C 
ATOM     10  N   UNL     1       5.626  -8.631  -1.924  0.00  0.00    +0.379 N 
ATOM     11  C   UNL     1       5.230  -8.911  -0.538  0.00  0.00    -0.082 C 
ATOM     12  C   UNL     1       3.726  -9.192  -0.482  0.00  0.00    -0.010 C 
ATOM     13  H   UNL     1       5.361  -9.408  -2.511  0.00  0.00    -0.086 HD
ATOM     14  H   UNL     1       6.627  -8.507  -1.967  0.00  0.00    -0.086 HD
ENDROOT
BRANCH   5  15
ATOM     15  C   UNL     1       1.172  -9.646  -0.504  0.00  0.00    +0.219 C 
ATOM     16  O   UNL     1       1.151  -9.854   0.690  0.00  0.00    -0.275 OA
ATOM     17  N   UNL     1       0.943 -10.656  -1.367  0.00  0.00    -0.308 N 
ATOM     18  H   UNL     1       0.959 -10.490  -2.323  0.00  0.00    +0.149 HD
BRANCH  17  19
ATOM     19  C   UNL     1       0.668 -12.003  -0.862  0.00  0.00    +0.104 C 
ATOM     20  C   UNL     1       1.984 -12.679  -0.471  0.00  0.00    +0.033 C 
BRANCH  19  21
ATOM     21  C   UNL     1      -0.013 -12.813  -1.935  0.00  0.00    +0.015 A 
ATOM     22  C   UNL     1      -1.139 -13.547  -1.784  0.00  0.00    +0.038 A 
ATOM     23  N   UNL     1      -1.422 -14.117  -2.974  0.00  0.00    -0.281 N 
ATOM     24  H   UNL     1      -2.174 -14.699  -3.164  0.00  0.00    +0.189 HD
ATOM     25  N   UNL     1      -0.436 -13.720  -3.887  0.00  0.00    -0.179 NA
ATOM     26  C   UNL     1       0.404 -12.934  -3.265  0.00  0.00    +0.065 A 
ATOM     27  C   UNL     1       1.615 -12.275  -3.874  0.00  0.00    +0.068 C 
ATOM     28  C   UNL     1      -1.936 -13.701  -0.514  0.00  0.00    +0.065 C 
ENDBRANCH  19  21
ENDBRANCH  17  19
ENDBRANCH   5  15
BRANCH   1  29
ATOM     29  C   UNL     1       0.180  -4.261  -0.070  0.00  0.00    +0.131 C 
BRANCH  29  34
ATOM     30  C   UNL     1       0.196   1.517  -0.075  0.00  0.00    +0.044 C 
ATOM     31  C   UNL     1       0.192   0.010  -0.074  0.00  0.00    -0.050 A 
ATOM     32  C   UNL     1       0.186  -0.682  -1.270  0.00  0.00    +0.003 A 
ATOM     33  C   UNL     1       0.182  -2.064  -1.269  0.00  0.00    +0.004 A 
ATOM     34  C   UNL     1       0.185  -2.754  -0.072  0.00  0.00    -0.039 A 
ATOM     35  C   UNL     1       0.192  -2.062   1.125  0.00  0.00    +0.004 A 
ATOM     36  C   UNL     1       0.200  -0.680   1.124  0.00  0.00    +0.003 A 
ENDBRANCH  29  34
ENDBRANCH   1  29
TORSDOF 5
