REMARK  Name = ZINC34909995
REMARK  9 active torsions:
REMARK  status: ('A' for Active; 'I' for Inactive)
REMARK    1  A    between atoms: C_1  and  C_2
REMARK    2  A    between atoms: C_2  and  C_3
REMARK    3  A    between atoms: C_3  and  C_4
REMARK    4  A    between atoms: C_4  and  N_5
REMARK    5  A    between atoms: C_17  and  C_20
REMARK    6  A    between atoms: N_22  and  C_23
REMARK    7  A    between atoms: C_23  and  C_25
REMARK    8  A    between atoms: C_23  and  C_32
REMARK    9  A    between atoms: C_25  and  C_26
REMARK                            x       y       z     vdW  Elec       q    Type
REMARK                         _______ _______ _______ _____ _____    ______ ____
ROOT
ATOM      1  N   UNL     1       1.519  -3.969   3.272  0.00  0.00    -0.313 N 
ATOM      2  C   UNL     1       2.872  -3.707   3.133  0.00  0.00    +0.068 A 
ATOM      3  C   UNL     1       3.980  -4.493   2.855  0.00  0.00    +0.028 A 
ATOM      4  C   UNL     1       5.231  -3.915   2.782  0.00  0.00    +0.002 A 
ATOM      5  C   UNL     1       5.388  -2.552   2.984  0.00  0.00    +0.002 A 
ATOM      6  C   UNL     1       4.299  -1.756   3.261  0.00  0.00    +0.028 A 
ATOM      7  C   UNL     1       3.026  -2.326   3.339  0.00  0.00    +0.065 A 
ATOM      8  N   UNL     1       1.790  -1.819   3.588  0.00  0.00    -0.327 N 
ATOM      9  C   UNL     1       0.902  -2.781   3.544  0.00  0.00    +0.177 A 
ATOM     10  N   UNL     1      -0.452  -2.620   3.746  0.00  0.00    -0.302 N 
ATOM     11  C   UNL     1      -1.341  -2.285   2.625  0.00  0.00    +0.108 C 
ATOM     12  C   UNL     1      -2.148  -1.036   2.991  0.00  0.00    +0.032 C 
ATOM     13  C   UNL     1      -2.872  -1.271   4.318  0.00  0.00    +0.078 C 
ATOM     14  C   UNL     1      -1.844  -1.524   5.424  0.00  0.00    +0.032 C 
ATOM     15  C   UNL     1      -1.035  -2.785   5.084  0.00  0.00    +0.108 C 
ATOM     16  H   UNL     1       1.594  -0.886   3.768  0.00  0.00    +0.169 HD
ENDROOT
BRANCH  13  17
ATOM     17  C   UNL     1      -3.693  -0.056   4.665  0.00  0.00    +0.217 C 
ATOM     18  O   UNL     1      -3.699   0.903   3.923  0.00  0.00    -0.275 OA
ATOM     19  N   UNL     1      -4.421  -0.036   5.799  0.00  0.00    -0.308 N 
ATOM     20  H   UNL     1      -4.417  -0.804   6.392  0.00  0.00    +0.149 HD
BRANCH  19  21
ATOM     21  C   UNL     1      -5.220   1.145   6.136  0.00  0.00    +0.107 C 
BRANCH  21  22
ATOM     22  C   UNL     1      -6.559   1.059   5.449  0.00  0.00    -0.027 A 
ATOM     23  C   UNL     1      -7.222  -0.152   5.377  0.00  0.00    +0.005 A 
ATOM     24  C   UNL     1      -8.450  -0.231   4.747  0.00  0.00    +0.000 A 
ATOM     25  C   UNL     1      -9.015   0.901   4.189  0.00  0.00    +0.000 A 
ATOM     26  C   UNL     1      -8.351   2.112   4.261  0.00  0.00    +0.000 A 
ATOM     27  C   UNL     1      -7.126   2.192   4.895  0.00  0.00    +0.005 A 
ENDBRANCH  21  22
BRANCH  21  28
ATOM     28  C   UNL     1      -5.427   1.206   7.650  0.00  0.00    +0.062 C 
BRANCH  28  29
ATOM     29  C   UNL     1      -4.099   1.415   8.331  0.00  0.00    -0.045 A 
ATOM     30  C   UNL     1      -3.335   0.326   8.706  0.00  0.00    +0.004 A 
ATOM     31  C   UNL     1      -2.117   0.518   9.331  0.00  0.00    +0.000 A 
ATOM     32  C   UNL     1      -1.662   1.800   9.579  0.00  0.00    +0.000 A 
ATOM     33  C   UNL     1      -2.426   2.889   9.203  0.00  0.00    +0.000 A 
ATOM     34  C   UNL     1      -3.642   2.697   8.575  0.00  0.00    +0.004 A 
ENDBRANCH  28  29
ENDBRANCH  21  28
ENDBRANCH  19  21
ENDBRANCH  13  17
BRANCH   1  35
ATOM     35  C   UNL     1       0.869  -5.276   3.146  0.00  0.00    +0.125 C 
BRANCH  35  36
ATOM     36  C   UNL     1       0.569  -5.555   1.672  0.00  0.00    +0.021 C 
BRANCH  36  38
ATOM     37  C   UNL     1      -0.409  -7.200   0.065  0.00  0.00    +0.004 C 
ATOM     38  C   UNL     1      -0.109  -6.920   1.539  0.00  0.00    -0.002 C 
ENDBRANCH  36  38
ENDBRANCH  35  36
ENDBRANCH   1  35
TORSDOF 8
