REMARK  Name = ZINC04003829
REMARK  7 active torsions:
REMARK  status: ('A' for Active; 'I' for Inactive)
REMARK    1  A    between atoms: C_1  and  O_2
REMARK    2  A    between atoms: O_2  and  C_3
REMARK    3  A    between atoms: C_7  and  C_11
REMARK    4  A    between atoms: C_8  and  O_9
REMARK    5  A    between atoms: O_9  and  C_10
REMARK    6  A    between atoms: C_12  and  C_13
REMARK    7  A    between atoms: C_20  and  O_23
REMARK                            x       y       z     vdW  Elec       q    Type
REMARK                         _______ _______ _______ _____ _____    ______ ____
ROOT
ATOM      1  C   UNL     1       1.337  -4.078  -2.313  0.00  0.00    +0.014 C 
ATOM      2  C   UNL     1       1.936  -4.665  -3.364  0.00  0.00    +0.028 C 
ENDROOT
BRANCH   2   3
ATOM      3  C   UNL     1       1.993  -6.132  -3.453  0.00  0.00    +0.065 A 
ATOM      4  C   UNL     1       2.629  -6.731  -4.557  0.00  0.00    +0.028 A 
ATOM      5  C   UNL     1       2.688  -8.088  -4.649  0.00  0.00    +0.012 A 
ATOM      6  C   UNL     1       2.102  -8.856  -3.621  0.00  0.00    +0.004 A 
ATOM      7  C   UNL     1       2.129 -10.259  -3.656  0.00  0.00    +0.010 A 
ATOM      8  C   UNL     1       1.555 -10.972  -2.647  0.00  0.00    +0.004 A 
ATOM      9  C   UNL     1       0.938 -10.329  -1.578  0.00  0.00    +0.047 A 
ATOM     10  C   UNL     1       0.891  -8.966  -1.508  0.00  0.00    +0.143 A 
ATOM     11  C   UNL     1       1.477  -8.195  -2.535  0.00  0.00    +0.113 A 
ATOM     12  N   UNL     1       1.452  -6.861  -2.491  0.00  0.00    -0.244 NA
BRANCH  10  13
ATOM     13  O   UNL     1       0.285  -8.356  -0.457  0.00  0.00    -0.505 OA
ATOM     14  H   UNL     1       0.875  -8.175   0.287  0.00  0.00    +0.292 HD
ENDBRANCH  10  13
ENDBRANCH   2   3
BRANCH   1  19
ATOM     15  C   UNL     1       0.606  -0.608  -1.056  0.00  0.00    +0.163 A 
ATOM     16  C   UNL     1       1.173   0.161  -2.062  0.00  0.00    +0.064 A 
ATOM     17  C   UNL     1       1.790  -0.446  -3.143  0.00  0.00    +0.022 A 
ATOM     18  C   UNL     1       1.846  -1.822  -3.230  0.00  0.00    +0.027 A 
ATOM     19  C   UNL     1       1.279  -2.609  -2.224  0.00  0.00    +0.021 A 
ATOM     20  C   UNL     1       0.661  -1.994  -1.127  0.00  0.00    +0.169 A 
ATOM     21 BR   UNL     1       2.558   0.616  -4.506  0.00  0.00    -0.050 Br
BRANCH  15  23
ATOM     22  C   UNL     1      -0.017   1.425   0.010  0.00  0.00    +0.277 C 
ATOM     23  O   UNL     1       0.002  -0.004   0.002  0.00  0.00    -0.491 OA
ENDBRANCH  15  23
BRANCH  20  24
ATOM     24  O   UNL     1       0.111  -2.750  -0.141  0.00  0.00    -0.491 OA
ATOM     25  C   UNL     1      -1.260  -3.123  -0.296  0.00  0.00    +0.277 C 
ENDBRANCH  20  24
ENDBRANCH   1  19
TORSDOF 5
