REMARK  Name = ZINC66967200
REMARK  13 active torsions:
REMARK  status: ('A' for Active; 'I' for Inactive)
REMARK    1  A    between atoms: C_1  and  C_2
REMARK    2  A    between atoms: C_2  and  C_3
REMARK    3  A    between atoms: C_3  and  C_4
REMARK    4  A    between atoms: C_4  and  N_5
REMARK    5  A    between atoms: C_11  and  N_14
REMARK    6  A    between atoms: N_14  and  C_15
REMARK    7  A    between atoms: C_15  and  C_17
REMARK    8  A    between atoms: C_15  and  C_18
REMARK    9  A    between atoms: N_20  and  C_21
REMARK   10  A    between atoms: C_22  and  C_29
REMARK   11  A    between atoms: C_26  and  C_27
REMARK   12  A    between atoms: C_27  and  C_28
REMARK   13  A    between atoms: C_29  and  C_30
REMARK                            x       y       z     vdW  Elec       q    Type
REMARK                         _______ _______ _______ _____ _____    ______ ____
ROOT
ATOM      1  N   UNL     1       2.116  -7.766   0.534  0.00  0.00    -0.333 N 
ATOM      2  H   UNL     1       1.348  -7.394   0.074  0.00  0.00    +0.147 HD
ENDROOT
BRANCH   1   9
ATOM      3  N   UNL     1       3.144  -3.880  -1.374  0.00  0.00    +0.385 N 
ATOM      4  C   UNL     1       4.596  -4.170  -1.328  0.00  0.00    -0.042 C 
ATOM      5  C   UNL     1       4.742  -5.386  -0.442  0.00  0.00    -0.061 A 
ATOM      6  C   UNL     1       5.835  -5.919   0.216  0.00  0.00    +0.002 A 
ATOM      7  C   UNL     1       5.696  -7.064   0.979  0.00  0.00    +0.002 A 
ATOM      8  C   UNL     1       4.464  -7.679   1.087  0.00  0.00    +0.023 A 
ATOM      9  C   UNL     1       3.363  -7.147   0.428  0.00  0.00    +0.029 A 
ATOM     10  C   UNL     1       3.505  -5.997  -0.338  0.00  0.00    -0.042 A 
ATOM     11  C   UNL     1       2.512  -5.200  -1.152  0.00  0.00    -0.040 C 
ATOM     12  H   UNL     1       2.884  -3.509  -2.276  0.00  0.00    -0.081 HD
BRANCH   3  13
ATOM     13  C   UNL     1       2.772  -2.944  -0.305  0.00  0.00    -0.078 C 
BRANCH  13  14
ATOM     14  C   UNL     1       3.334  -1.557  -0.622  0.00  0.00    -0.019 C 
BRANCH  14  16
ATOM     15  C   UNL     1       3.509   0.805   0.174  0.00  0.00    +0.004 C 
ATOM     16  C   UNL     1       2.946  -0.582   0.491  0.00  0.00    -0.005 C 
ENDBRANCH  14  16
ENDBRANCH  13  14
ENDBRANCH   3  13
ENDBRANCH   1   9
BRANCH   1  17
ATOM     17  C   UNL     1       1.968  -8.980   1.342  0.00  0.00    +0.154 C 
ATOM     18  C   UNL     1       1.738  -8.594   2.805  0.00  0.00    +0.038 C 
BRANCH  17  19
ATOM     19  C   UNL     1       0.791  -9.776   0.841  0.00  0.00    +0.237 C 
ATOM     20  O   UNL     1       0.140  -9.370  -0.098  0.00  0.00    -0.273 OA
ATOM     21  N   UNL     1       0.462 -10.939   1.437  0.00  0.00    -0.284 N 
ATOM     22  H   UNL     1       1.037 -11.313   2.123  0.00  0.00    +0.155 HD
BRANCH  21  23
ATOM     23  C   UNL     1      -0.710 -11.608   1.066  0.00  0.00    +0.040 A 
ATOM     24  C   UNL     1      -1.948 -11.016   1.281  0.00  0.00    -0.026 A 
ATOM     25  C   UNL     1      -3.102 -11.679   0.914  0.00  0.00    +0.005 A 
ATOM     26  C   UNL     1      -3.027 -12.931   0.332  0.00  0.00    +0.001 A 
ATOM     27  C   UNL     1      -1.796 -13.524   0.117  0.00  0.00    +0.005 A 
ATOM     28  C   UNL     1      -0.638 -12.864   0.476  0.00  0.00    -0.026 A 
BRANCH  28  29
ATOM     29  C   UNL     1       0.703 -13.507   0.235  0.00  0.00    +0.033 C 
ATOM     30  C   UNL     1       1.154 -14.238   1.501  0.00  0.00    +0.009 C 
ENDBRANCH  28  29
BRANCH  24  31
ATOM     31  C   UNL     1      -2.031  -9.651   1.915  0.00  0.00    +0.033 C 
ATOM     32  C   UNL     1      -3.481  -9.166   1.893  0.00  0.00    +0.009 C 
ENDBRANCH  24  31
ENDBRANCH  21  23
ENDBRANCH  17  19
ENDBRANCH   1  17
TORSDOF 9
