REMARK  Name = ZINC14163118
REMARK  3 active torsions:
REMARK  status: ('A' for Active; 'I' for Inactive)
REMARK    1  A    between atoms: C_4  and  C_7
REMARK    2  A    between atoms: C_7  and  N_8
REMARK    3  A    between atoms: C_18  and  C_26
REMARK                            x       y       z     vdW  Elec       q    Type
REMARK                         _______ _______ _______ _____ _____    ______ ____
ROOT
ATOM      1  N   UNL     1      -3.505  -2.034   0.542  0.00  0.00    -0.295 NA
ATOM      2  C   UNL     1      -2.365  -2.658  -0.142  0.00  0.00    +0.103 C 
ATOM      3  C   UNL     1      -1.061  -2.172   0.499  0.00  0.00    +0.123 C 
ATOM      4  N   UNL     1      -1.059  -0.701   0.497  0.00  0.00    -0.303 N 
ATOM      5  C   UNL     1      -2.230  -0.003   1.048  0.00  0.00    +0.123 C 
ATOM      6  C   UNL     1      -3.491  -0.574   0.380  0.00  0.00    +0.103 C 
ATOM      7  C   UNL     1       0.002  -0.004   0.002  0.00  0.00    +0.175 C 
ATOM      8  N   UNL     1       1.048  -0.651  -0.484  0.00  0.00    -0.150 NA
ATOM      9  C   UNL     1       2.104  -0.033  -0.995  0.00  0.00    +0.258 C 
ATOM     10  O   UNL     1       3.043  -0.691  -1.398  0.00  0.00    -0.272 OA
ATOM     11  C   UNL     1       2.162   1.472  -1.084  0.00  0.00    +0.202 C 
ATOM     12  C   UNL     1       1.268   2.065   0.001  0.00  0.00    +0.058 C 
ATOM     13  N   UNL     1      -0.017   1.364   0.009  0.00  0.00    -0.312 N 
ATOM     14  C   UNL     1       1.949   1.953   1.379  0.00  0.00    +0.027 C 
ATOM     15  C   UNL     1       1.260   3.079   2.192  0.00  0.00    +0.002 C 
ATOM     16  C   UNL     1       1.068   4.222   1.173  0.00  0.00    +0.002 C 
ATOM     17  C   UNL     1       1.064   3.570  -0.223  0.00  0.00    +0.027 C 
ATOM     18  H   UNL     1      -0.956   1.937   0.021  0.00  0.00    +0.149 HD
ENDROOT
BRANCH  11  19
ATOM     19  C   UNL     1       1.686   1.907  -2.407  0.00  0.00    +0.077 C 
ATOM     20  N   UNL     1       1.319   2.242  -3.429  0.00  0.00    -0.196 NA
ENDBRANCH  11  19
BRANCH   1  21
ATOM     21  C   UNL     1      -4.776  -2.603   0.073  0.00  0.00    +0.119 C 
BRANCH  21  25
ATOM     22  C   UNL     1      -8.023  -0.274   1.583  0.00  0.00    +0.000 A 
ATOM     23  C   UNL     1      -7.450   0.046   0.366  0.00  0.00    +0.000 A 
ATOM     24  C   UNL     1      -6.399  -0.708  -0.123  0.00  0.00    +0.005 A 
ATOM     25  C   UNL     1      -5.921  -1.781   0.606  0.00  0.00    -0.033 A 
ATOM     26  C   UNL     1      -6.498  -2.104   1.820  0.00  0.00    +0.005 A 
ATOM     27  C   UNL     1      -7.545  -1.347   2.311  0.00  0.00    +0.000 A 
ENDBRANCH  21  25
ENDBRANCH   1  21
TORSDOF 3
