REMARK  Name = ZINC51485782
REMARK  4 active torsions:
REMARK  status: ('A' for Active; 'I' for Inactive)
REMARK    1  A    between atoms: C_1  and  N_2
REMARK    2  A    between atoms: N_2  and  C_3
REMARK    3  A    between atoms: C_3  and  C_4
REMARK    4  A    between atoms: C_9  and  N_10
REMARK                            x       y       z     vdW  Elec       q    Type
REMARK                         _______ _______ _______ _____ _____    ______ ____
ROOT
ATOM      1  C   UNL     1       0.669  -3.074  -2.592  0.00  0.00    -0.023 A 
ATOM      2  C   UNL     1       1.875  -3.672  -2.276  0.00  0.00    +0.022 A 
ATOM      3  C   UNL     1       2.116  -4.021  -0.953  0.00  0.00    +0.036 A 
ATOM      4  C   UNL     1       1.151  -3.761   0.001  0.00  0.00    +0.128 A 
ATOM      5  N   UNL     1       0.009  -3.190  -0.330  0.00  0.00    -0.239 NA
ATOM      6  C   UNL     1      -0.255  -2.838  -1.579  0.00  0.00    +0.123 A 
ATOM      7 BR   UNL     1       3.748  -4.841  -0.463  0.00  0.00    -0.049 Br
ENDROOT
BRANCH   6   8
ATOM      8  N   UNL     1      -1.469  -2.232  -1.882  0.00  0.00    -0.307 N 
ATOM      9  C   UNL     1      -1.573  -0.766  -1.933  0.00  0.00    +0.135 C 
ATOM     10  C   UNL     1      -2.258  -0.397  -3.257  0.00  0.00    +0.179 C 
ATOM     11  O   UNL     1      -3.502  -1.091  -3.332  0.00  0.00    -0.373 OA
ATOM     12  C   UNL     1      -3.409  -2.515  -3.386  0.00  0.00    +0.139 C 
ATOM     13  C   UNL     1      -2.648  -3.046  -2.157  0.00  0.00    +0.104 C 
ATOM     14  C   UNL     1      -3.662  -2.953  -1.005  0.00  0.00    +0.025 C 
ATOM     15  C   UNL     1      -5.058  -2.972  -1.654  0.00  0.00    +0.004 C 
ATOM     16  C   UNL     1      -4.838  -3.082  -3.166  0.00  0.00    +0.033 C 
ENDBRANCH   6   8
BRANCH   1  17
ATOM     17  C   UNL     1       0.361  -2.679  -4.013  0.00  0.00    -0.044 C 
BRANCH  17  19
ATOM     18  C   UNL     1       0.495  -0.901  -5.619  0.00  0.00    -0.100 C 
ATOM     19  N   UNL     1       0.684  -1.258  -4.207  0.00  0.00    +0.380 N 
ATOM     20  H   UNL     1       1.643  -1.092  -3.943  0.00  0.00    -0.086 HD
ATOM     21  H   UNL     1       0.075  -0.694  -3.633  0.00  0.00    -0.086 HD
ENDBRANCH  17  19
ENDBRANCH   1  17
TORSDOF 3
