REMARK  Name = ZINC35990835
REMARK  13 active torsions:
REMARK  status: ('A' for Active; 'I' for Inactive)
REMARK    1  A    between atoms: C_1  and  C_2
REMARK    2  A    between atoms: C_2  and  N_3
REMARK    3  A    between atoms: C_4  and  C_25
REMARK    4  A    between atoms: C_5  and  C_20
REMARK    5  A    between atoms: C_6  and  C_11
REMARK    6  A    between atoms: C_14  and  C_17
REMARK    7  A    between atoms: C_17  and  C_18
REMARK    8  A    between atoms: C_17  and  C_19
REMARK    9  A    between atoms: C_20  and  O_22
REMARK   10  A    between atoms: O_22  and  C_23
REMARK   11  A    between atoms: C_23  and  C_24
REMARK   12  A    between atoms: C_25  and  N_26
REMARK   13  A    between atoms: C_30  and  C_33
REMARK                            x       y       z     vdW  Elec       q    Type
REMARK                         _______ _______ _______ _____ _____    ______ ____
ROOT
ATOM      1  N   UNL     1       0.768  -0.412  -1.193  0.00  0.00    -0.258 N 
ATOM      2  C   UNL     1      -0.024  -0.546  -2.298  0.00  0.00    +0.041 C 
ATOM      3  C   UNL     1       0.468  -1.046  -3.452  0.00  0.00    +0.080 C 
ATOM      4  C   UNL     1       1.927  -1.454  -3.478  0.00  0.00    +0.144 C 
ATOM      5  N   UNL     1       2.694  -1.269  -2.235  0.00  0.00    -0.288 N 
ATOM      6  C   UNL     1       2.063  -0.751  -1.163  0.00  0.00    +0.307 C 
ATOM      7  O   UNL     1       2.688  -0.591  -0.133  0.00  0.00    -0.252 OA
ATOM      8  H   UNL     1       3.632  -1.511  -2.189  0.00  0.00    +0.151 HD
ENDROOT
BRANCH   4   9
ATOM      9  C   UNL     1       2.610  -0.665  -4.566  0.00  0.00    -0.022 A 
ATOM     10  C   UNL     1       3.000   0.640  -4.332  0.00  0.00    +0.006 A 
ATOM     11  C   UNL     1       3.626   1.364  -5.330  0.00  0.00    +0.004 A 
ATOM     12  C   UNL     1       3.863   0.782  -6.561  0.00  0.00    -0.045 A 
ATOM     13  C   UNL     1       3.474  -0.524  -6.795  0.00  0.00    +0.004 A 
ATOM     14  C   UNL     1       2.851  -1.249  -5.795  0.00  0.00    +0.006 A 
BRANCH  12  15
ATOM     15  C   UNL     1       4.545   1.571  -7.649  0.00  0.00    +0.013 C 
ATOM     16  C   UNL     1       5.841   0.866  -8.054  0.00  0.00    +0.012 C 
ATOM     17  C   UNL     1       3.618   1.672  -8.862  0.00  0.00    +0.012 C 
ENDBRANCH  12  15
ENDBRANCH   4   9
BRANCH   1  19
ATOM     18  C   UNL     1       0.318   1.661   0.024  0.00  0.00    +0.025 C 
ATOM     19  C   UNL     1       0.168   0.138   0.025  0.00  0.00    +0.111 C 
ENDBRANCH   1  19
BRANCH   3  20
ATOM     20  C   UNL     1      -0.351  -1.186  -4.596  0.00  0.00    +0.339 C 
ATOM     21  O   UNL     1      -0.802  -2.277  -4.892  0.00  0.00    -0.245 OA
BRANCH  20  22
ATOM     22  O   UNL     1      -0.632  -0.110  -5.360  0.00  0.00    -0.462 OA
BRANCH  22  23
ATOM     23  C   UNL     1      -1.466  -0.324  -6.501  0.00  0.00    +0.229 C 
ATOM     24  C   UNL     1      -1.672   1.001  -7.238  0.00  0.00    +0.048 C 
ENDBRANCH  22  23
ENDBRANCH  20  22
ENDBRANCH   3  20
BRANCH   2  25
ATOM     25  C   UNL     1      -1.470  -0.129  -2.228  0.00  0.00    +0.136 C 
BRANCH  25  26
ATOM     26  N   UNL     1      -2.194  -1.022  -1.314  0.00  0.00    -0.300 NA
ATOM     27  C   UNL     1      -2.256  -2.389  -1.852  0.00  0.00    +0.066 C 
ATOM     28  C   UNL     1      -2.964  -3.298  -0.845  0.00  0.00    -0.067 C 
ATOM     29  N   UNL     1      -4.319  -2.791  -0.595  0.00  0.00    +0.382 N 
ATOM     30  C   UNL     1      -4.240  -1.435  -0.035  0.00  0.00    -0.061 C 
ATOM     31  C   UNL     1      -3.543  -0.510  -1.035  0.00  0.00    +0.069 C 
ATOM     32  C   UNL     1      -5.652  -0.915   0.242  0.00  0.00    -0.012 C 
ATOM     33  H   UNL     1      -4.834  -2.767  -1.462  0.00  0.00    -0.085 HD
ATOM     34  H   UNL     1      -4.790  -3.398   0.059  0.00  0.00    -0.085 HD
ENDBRANCH  25  26
ENDBRANCH   2  25
TORSDOF 8
