REMARK  Name = ZINC04494535
REMARK  14 active torsions:
REMARK  status: ('A' for Active; 'I' for Inactive)
REMARK    1  A    between atoms: C_1  and  C_2
REMARK    2  A    between atoms: C_2  and  C_3
REMARK    3  A    between atoms: C_3  and  C_5
REMARK    4  A    between atoms: C_3  and  N_59
REMARK    5  A    between atoms: C_8  and  S_17
REMARK    6  A    between atoms: N_9  and  C_10
REMARK    7  A    between atoms: C_10  and  C_11
REMARK    8  A    between atoms: S_17  and  C_18
REMARK    9  A    between atoms: C_18  and  C_20
REMARK   10  A    between atoms: C_18  and  C_23
REMARK   11  A    between atoms: C_20  and  C_21
REMARK   12  A    between atoms: C_20  and  C_22
REMARK   13  A    between atoms: C_29  and  N_59
REMARK   14  A    between atoms: C_30  and  N_59
REMARK                            x       y       z     vdW  Elec       q    Type
REMARK                         _______ _______ _______ _____ _____    ______ ____
ROOT
ATOM      1  C   UNL     1      -3.536   1.422   1.411  0.00  0.00    +0.121 A 
ATOM      2  N   UNL     1      -3.478   0.571   2.396  0.00  0.00    -0.135 NA
ATOM      3  N   UNL     1      -2.460  -0.201   2.253  0.00  0.00    -0.123 NA
ATOM      4  C   UNL     1      -1.811   0.116   1.157  0.00  0.00    +0.193 A 
ATOM      5  N   UNL     1      -2.474   1.166   0.588  0.00  0.00    -0.303 N 
ENDROOT
BRANCH   1   6
ATOM      6  C   UNL     1      -4.579   2.492   1.216  0.00  0.00    +0.000 C 
BRANCH   6   9
ATOM      7  C   UNL     1      -5.595   4.413   2.283  0.00  0.00    -0.096 C 
ATOM      8  C   UNL     1      -5.473   2.299   3.458  0.00  0.00    -0.096 C 
ATOM      9  N   UNL     1      -4.789   3.193   2.500  0.00  0.00    +0.383 N 
ATOM     10  H   UNL     1      -3.876   3.461   2.886  0.00  0.00    -0.082 HD
ENDBRANCH   6   9
BRANCH   6  12
ATOM     11  C   UNL     1      -5.660   1.205  -0.634  0.00  0.00    +0.002 C 
ATOM     12  C   UNL     1      -5.883   1.850   0.736  0.00  0.00    -0.011 C 
ENDBRANCH   6  12
ENDBRANCH   1   6
BRANCH   5  13
ATOM     13  C   UNL     1      -2.125   1.867  -0.650  0.00  0.00    +0.160 C 
BRANCH  13  14
ATOM     14  C   UNL     1      -1.209   3.021  -0.332  0.00  0.00    -0.028 A 
ATOM     15  C   UNL     1       0.161   2.834  -0.324  0.00  0.00    +0.005 A 
ATOM     16  C   UNL     1       1.001   3.894  -0.038  0.00  0.00    +0.000 A 
ATOM     17  C   UNL     1       0.472   5.139   0.245  0.00  0.00    +0.000 A 
ATOM     18  C   UNL     1      -0.898   5.324   0.242  0.00  0.00    +0.000 A 
ATOM     19  C   UNL     1      -1.738   4.265  -0.044  0.00  0.00    +0.005 A 
ENDBRANCH  13  14
ENDBRANCH   5  13
BRANCH   4  20
ATOM     20  S   UNL     1      -0.356  -0.662   0.538  0.00  0.00    -0.073 S 
BRANCH  20  21
ATOM     21  C   UNL     1      -0.183  -2.005   1.740  0.00  0.00    +0.143 C 
BRANCH  21  22
ATOM     22  C   UNL     1       0.215  -1.433   3.077  0.00  0.00    +0.234 C 
ATOM     23  O   UNL     1       0.714  -0.330   3.140  0.00  0.00    -0.274 OA
ATOM     24  N   UNL     1       0.018  -2.149   4.202  0.00  0.00    -0.239 N 
ATOM     25  C   UNL     1       0.374  -1.638   5.397  0.00  0.00    +0.303 C 
ATOM     26  O   UNL     1       0.873  -0.532   5.460  0.00  0.00    -0.253 OA
ATOM     27  N   UNL     1       0.176  -2.354   6.522  0.00  0.00    -0.313 N 
ATOM     28  H   UNL     1      -0.381  -3.032   4.151  0.00  0.00    +0.159 HD
ATOM     29  H   UNL     1      -0.223  -3.237   6.471  0.00  0.00    +0.146 HD
ATOM     30  H   UNL     1       0.432  -1.986   7.382  0.00  0.00    +0.146 HD
ENDBRANCH  21  22
BRANCH  21  31
ATOM     31  C   UNL     1       0.893  -2.982   1.262  0.00  0.00    +0.005 C 
ATOM     32  C   UNL     1       1.066  -4.096   2.297  0.00  0.00    +0.009 C 
ATOM     33  C   UNL     1       0.471  -3.590  -0.077  0.00  0.00    +0.009 C 
ENDBRANCH  21  31
ENDBRANCH  20  21
ENDBRANCH   4  20
TORSDOF 9
