REMARK  Name = ZINC01249491
REMARK  6 active torsions:
REMARK  status: ('A' for Active; 'I' for Inactive)
REMARK    1  A    between atoms: C_4  and  C_7
REMARK    2  A    between atoms: C_7  and  C_9
REMARK    3  A    between atoms: C_7  and  O_28
REMARK    4  A    between atoms: N_11  and  N_12
REMARK    5  A    between atoms: C_13  and  C_14
REMARK    6  A    between atoms: C_17  and  C_19
REMARK                            x       y       z     vdW  Elec       q    Type
REMARK                         _______ _______ _______ _____ _____    ______ ____
ROOT
ATOM      1  N   UNL     1      -2.367  -0.365   0.022  0.00  0.00    -0.185 NA
ATOM      2  C   UNL     1      -1.171  -0.880   0.008  0.00  0.00    +0.176 C 
ENDROOT
BRANCH   2   3
ATOM      3  C   UNL     1       0.002  -0.004   0.002  0.00  0.00    +0.148 A 
ATOM      4  C   UNL     1       1.317  -0.414  -0.013  0.00  0.00    +0.051 A 
ATOM      5  C   UNL     1       2.103   0.746  -0.014  0.00  0.00    +0.050 A 
ATOM      6  C   UNL     1       1.248   1.808  -0.000  0.00  0.00    +0.137 A 
ATOM      7  O   UNL     1      -0.016   1.345   0.009  0.00  0.00    -0.454 OA
BRANCH   6   8
ATOM      8  C   UNL     1       1.643   3.231   0.003  0.00  0.00    +0.037 A 
ATOM      9  C   UNL     1       1.073   4.119  -0.912  0.00  0.00    +0.034 A 
ATOM     10  C   UNL     1       1.446   5.447  -0.903  0.00  0.00    +0.060 A 
ATOM     11  C   UNL     1       2.384   5.901   0.011  0.00  0.00    +0.061 A 
ATOM     12  C   UNL     1       2.952   5.026   0.921  0.00  0.00    +0.042 A 
ATOM     13  C   UNL     1       2.584   3.696   0.926  0.00  0.00    +0.053 A 
ATOM     14 CL   UNL     1       3.292   2.601   2.072  0.00  0.00    -0.083 Cl
ATOM     15 CL   UNL     1       2.848   7.574   0.016  0.00  0.00    -0.082 Cl
ATOM     16 CL   UNL     1       0.739   6.553  -2.039  0.00  0.00    -0.082 Cl
ENDBRANCH   6   8
ENDBRANCH   2   3
BRANCH   1  19
ATOM     17  C   UNL     1      -4.728  -0.670   0.043  0.00  0.00    +0.265 C 
ATOM     18  O   UNL     1      -4.870   0.534   0.051  0.00  0.00    -0.271 OA
ATOM     19  N   UNL     1      -3.490  -1.203   0.028  0.00  0.00    -0.204 N 
ATOM     20  H   UNL     1      -3.377  -2.166   0.021  0.00  0.00    +0.177 HD
BRANCH  17  21
ATOM     21  C   UNL     1      -5.936  -1.572   0.049  0.00  0.00    +0.232 C 
BRANCH  21  25
ATOM     22  C   UNL     1      -6.025  -3.808   3.688  0.00  0.00    +0.000 A 
ATOM     23  C   UNL     1      -5.457  -4.357   2.553  0.00  0.00    +0.000 A 
ATOM     24  C   UNL     1      -5.428  -3.633   1.375  0.00  0.00    +0.006 A 
ATOM     25  C   UNL     1      -5.967  -2.361   1.333  0.00  0.00    -0.010 A 
ATOM     26  C   UNL     1      -6.530  -1.810   2.469  0.00  0.00    +0.006 A 
ATOM     27  C   UNL     1      -6.563  -2.536   3.645  0.00  0.00    +0.000 A 
ENDBRANCH  21  25
BRANCH  21  28
ATOM     28  O   UNL     1      -7.121  -0.780  -0.053  0.00  0.00    -0.378 OA
ATOM     29  H   UNL     1      -7.234  -0.147   0.669  0.00  0.00    +0.211 HD
ENDBRANCH  21  28
ENDBRANCH  17  21
ENDBRANCH   1  19
TORSDOF 6
