REMARK  Name = ZINC02113822
REMARK  7 active torsions:
REMARK  status: ('A' for Active; 'I' for Inactive)
REMARK    1  A    between atoms: C_1  and  C_2
REMARK    2  A    between atoms: C_2  and  C_3
REMARK    3  A    between atoms: C_3  and  C_4
REMARK    4  A    between atoms: C_4  and  S_5
REMARK    5  A    between atoms: S_5  and  C_6
REMARK    6  A    between atoms: C_19  and  C_22
REMARK    7  A    between atoms: C_28  and  C_30
REMARK                            x       y       z     vdW  Elec       q    Type
REMARK                         _______ _______ _______ _____ _____    ______ ____
ROOT
ATOM      1  C   UNL     1       1.529  -4.368  -2.621  0.00  0.00    +0.212 A 
ATOM      2  N   UNL     1       2.080  -5.117  -3.572  0.00  0.00    -0.184 NA
ATOM      3  C   UNL     1       2.033  -6.434  -3.466  0.00  0.00    +0.248 A 
ATOM      4  C   UNL     1       1.391  -7.003  -2.342  0.00  0.00    +0.156 A 
ATOM      5  N   UNL     1       0.866  -6.200  -1.429  0.00  0.00    -0.141 NA
ATOM      6  N   UNL     1       0.940  -4.922  -1.568  0.00  0.00    -0.122 NA
ATOM      7  C   UNL     1       1.314  -8.473  -2.212  0.00  0.00    +0.029 A 
ATOM      8  C   UNL     1       1.644  -9.117  -1.026  0.00  0.00    +0.012 A 
ATOM      9  C   UNL     1       1.545 -10.492  -0.942  0.00  0.00    +0.001 A 
ATOM     10  C   UNL     1       1.119 -11.232  -2.030  0.00  0.00    +0.002 A 
ATOM     11  C   UNL     1       0.792 -10.604  -3.219  0.00  0.00    +0.024 A 
ATOM     12  C   UNL     1       0.892  -9.229  -3.321  0.00  0.00    +0.049 A 
ATOM     13  N   UNL     1       0.605  -8.564  -4.520  0.00  0.00    -0.230 N 
ATOM     14  C   UNL     1       1.700  -7.948  -5.262  0.00  0.00    +0.309 C 
ATOM     15  O   UNL     1       2.586  -7.238  -4.404  0.00  0.00    -0.448 OA
ATOM     16  C   UNL     1      -0.660  -8.494  -4.980  0.00  0.00    +0.220 C 
ATOM     17  O   UNL     1      -0.897  -7.915  -6.019  0.00  0.00    -0.275 OA
ATOM     18  C   UNL     1      -1.781  -9.135  -4.202  0.00  0.00    +0.110 C 
ENDROOT
BRANCH  14  19
ATOM     19  C   UNL     1       2.473  -9.025  -5.981  0.00  0.00    +0.050 A 
ATOM     20  C   UNL     1       3.163  -8.948  -7.144  0.00  0.00    +0.018 A 
ATOM     21  C   UNL     1       3.803 -10.077  -7.620  0.00  0.00    +0.023 A 
ATOM     22  C   UNL     1       3.721 -11.228  -6.909  0.00  0.00    +0.055 A 
ATOM     23  S   UNL     1       2.722 -10.730  -5.515  0.00  0.00    -0.081 S 
ATOM     24 BR   UNL     1       4.474 -12.920  -7.289  0.00  0.00    -0.043 Br
ENDBRANCH  14  19
BRANCH   1  25
ATOM     25  S   UNL     1       1.588  -2.612  -2.758  0.00  0.00    -0.084 S 
BRANCH  25  26
ATOM     26  C   UNL     1       0.739  -2.027  -1.265  0.00  0.00    +0.077 C 
BRANCH  26  27
ATOM     27  C   UNL     1       0.718  -0.497  -1.257  0.00  0.00    +0.011 C 
BRANCH  27  29
ATOM     28  C   UNL     1      -0.019   1.526   0.010  0.00  0.00    +0.004 C 
ATOM     29  C   UNL     1       0.002  -0.004   0.002  0.00  0.00    -0.003 C 
ENDBRANCH  27  29
ENDBRANCH  26  27
ENDBRANCH  25  26
ENDBRANCH   1  25
TORSDOF 5
