REMARK  Name = ZINC46076697
REMARK  2 active torsions:
REMARK  status: ('A' for Active; 'I' for Inactive)
REMARK    1  A    between atoms: C_5  and  C_7
REMARK    2  A    between atoms: C_16  and  C_18
REMARK                            x       y       z     vdW  Elec       q    Type
REMARK                         _______ _______ _______ _____ _____    ______ ____
ROOT
ATOM      1  C   UNL     1       1.246  -2.165  -0.022  0.00  0.00    +0.013 A 
ATOM      2  C   UNL     1       0.757  -2.867  -1.086  0.00  0.00    +0.056 A 
ATOM      3  S   UNL     1       1.024  -4.561  -0.591  0.00  0.00    -0.098 S 
ATOM      4  C   UNL     1       1.758  -4.261   0.989  0.00  0.00    +0.019 A 
ATOM      5  C   UNL     1       1.794  -2.902   1.093  0.00  0.00    +0.052 A 
ATOM      6  N   UNL     1       2.340  -2.326   2.275  0.00  0.00    -0.284 N 
ATOM      7  C   UNL     1       2.994  -3.122   3.139  0.00  0.00    +0.218 C 
ATOM      8  O   UNL     1       3.296  -2.673   4.225  0.00  0.00    -0.275 OA
ATOM      9  C   UNL     1       3.367  -4.543   2.822  0.00  0.00    +0.109 C 
ATOM     10  C   UNL     1       2.245  -5.226   2.021  0.00  0.00    +0.069 C 
ATOM     11  H   UNL     1       2.243  -1.378   2.453  0.00  0.00    +0.155 HD
ENDROOT
BRANCH   1  16
ATOM     12  C   UNL     1      -0.017   1.376   0.010  0.00  0.00    +0.001 A 
ATOM     13  C   UNL     1       1.170   2.087   0.002  0.00  0.00    +0.003 A 
ATOM     14  C   UNL     1       2.382   1.422  -0.013  0.00  0.00    +0.039 A 
ATOM     15  C   UNL     1       2.414   0.040  -0.021  0.00  0.00    +0.131 A 
ATOM     16  C   UNL     1       1.219  -0.682  -0.013  0.00  0.00    +0.020 A 
ATOM     17  C   UNL     1       0.002  -0.004   0.002  0.00  0.00    +0.011 A 
ATOM     18  F   UNL     1       3.598  -0.610  -0.036  0.00  0.00    -0.205 F 
ENDBRANCH   1  16
BRANCH  10  19
ATOM     19  C   UNL     1       2.793  -6.457   1.347  0.00  0.00    -0.004 A 
ATOM     20  C   UNL     1       3.859  -6.350   0.473  0.00  0.00    +0.007 A 
ATOM     21  C   UNL     1       4.363  -7.479  -0.146  0.00  0.00    +0.000 A 
ATOM     22  C   UNL     1       3.801  -8.716   0.108  0.00  0.00    +0.003 A 
ATOM     23  C   UNL     1       2.737  -8.826   0.982  0.00  0.00    +0.038 A 
ATOM     24  C   UNL     1       2.235  -7.697   1.607  0.00  0.00    +0.127 A 
ATOM     25  F   UNL     1       1.196  -7.804   2.465  0.00  0.00    -0.205 F 
ENDBRANCH  10  19
TORSDOF 2
