REMARK  Name = ZINC00860753
REMARK  6 active torsions:
REMARK  status: ('A' for Active; 'I' for Inactive)
REMARK    1  A    between atoms: C_1  and  O_2
REMARK    2  A    between atoms: O_2  and  C_3
REMARK    3  A    between atoms: C_5  and  C_10
REMARK    4  A    between atoms: C_8  and  O_9
REMARK    5  A    between atoms: C_13  and  C_27
REMARK    6  A    between atoms: N_20  and  C_21
REMARK                            x       y       z     vdW  Elec       q    Type
REMARK                         _______ _______ _______ _____ _____    ______ ____
ROOT
ATOM      1  C   UNL     1       2.403   0.379  -4.230  0.00  0.00    +0.146 C 
ATOM      2  C   UNL     1       1.483   0.436  -5.419  0.00  0.00    +0.035 A 
ATOM      3  C   UNL     1       0.233   0.805  -5.926  0.00  0.00    +0.099 A 
ATOM      4  N   UNL     1       0.212   0.477  -7.203  0.00  0.00    -0.173 NA
ATOM      5  N   UNL     1       1.325  -0.063  -7.552  0.00  0.00    -0.272 N 
ATOM      6  H   UNL     1       1.534  -0.382  -8.444  0.00  0.00    +0.189 HD
ATOM      7  C   UNL     1       2.171  -0.121  -6.480  0.00  0.00    +0.127 A 
ATOM      8  C   UNL     1       3.498  -0.532  -6.012  0.00  0.00    +0.270 C 
ATOM      9  O   UNL     1       4.348  -1.056  -6.707  0.00  0.00    -0.268 OA
ATOM     10  N   UNL     1       3.645  -0.245  -4.704  0.00  0.00    -0.255 N 
ENDROOT
BRANCH   1  13
ATOM     11  C   UNL     1       0.606  -0.608  -1.056  0.00  0.00    +0.162 A 
ATOM     12  C   UNL     1       1.173   0.159  -2.062  0.00  0.00    +0.055 A 
ATOM     13  C   UNL     1       1.787  -0.456  -3.137  0.00  0.00    -0.018 A 
ATOM     14  C   UNL     1       1.837  -1.836  -3.212  0.00  0.00    +0.009 A 
ATOM     15  C   UNL     1       1.273  -2.606  -2.212  0.00  0.00    +0.049 A 
ATOM     16  C   UNL     1       0.662  -1.996  -1.129  0.00  0.00    +0.158 A 
BRANCH  11  18
ATOM     17  C   UNL     1      -0.017   1.425   0.010  0.00  0.00    +0.277 C 
ATOM     18  O   UNL     1       0.002  -0.004   0.002  0.00  0.00    -0.491 OA
ENDBRANCH  11  18
BRANCH  16  19
ATOM     19  O   UNL     1       0.112  -2.753  -0.142  0.00  0.00    -0.503 OA
ATOM     20  H   UNL     1      -0.816  -2.979  -0.291  0.00  0.00    +0.292 HD
ENDBRANCH  16  19
ENDBRANCH   1  13
BRANCH  10  21
ATOM     21  C   UNL     1       4.782  -0.497  -3.931  0.00  0.00    +0.038 A 
ATOM     22  C   UNL     1       4.799  -0.153  -2.586  0.00  0.00    +0.023 A 
ATOM     23  C   UNL     1       5.924  -0.403  -1.825  0.00  0.00    +0.002 A 
ATOM     24  C   UNL     1       7.033  -0.995  -2.401  0.00  0.00    +0.000 A 
ATOM     25  C   UNL     1       7.020  -1.338  -3.741  0.00  0.00    +0.002 A 
ATOM     26  C   UNL     1       5.896  -1.096  -4.506  0.00  0.00    +0.023 A 
ENDBRANCH  10  21
BRANCH   3  27
ATOM     27  C   UNL     1      -0.869   1.448  -5.166  0.00  0.00    +0.002 A 
ATOM     28  C   UNL     1      -1.078   1.123  -3.828  0.00  0.00    +0.010 A 
ATOM     29  C   UNL     1      -2.103   1.724  -3.127  0.00  0.00    +0.001 A 
ATOM     30  C   UNL     1      -2.923   2.647  -3.750  0.00  0.00    +0.000 A 
ATOM     31  C   UNL     1      -2.720   2.974  -5.079  0.00  0.00    +0.001 A 
ATOM     32  C   UNL     1      -1.693   2.384  -5.788  0.00  0.00    +0.010 A 
ENDBRANCH   3  27
TORSDOF 5
