REMARK  Name = ZINC36668076
REMARK  8 active torsions:
REMARK  status: ('A' for Active; 'I' for Inactive)
REMARK    1  A    between atoms: C_4  and  C_7
REMARK    2  A    between atoms: C_9  and  C_31
REMARK    3  A    between atoms: C_10  and  N_12
REMARK    4  A    between atoms: C_13  and  C_15
REMARK    5  A    between atoms: C_15  and  C_17
REMARK    6  A    between atoms: C_17  and  C_18
REMARK    7  A    between atoms: C_18  and  C_19
REMARK    8  A    between atoms: C_18  and  C_25
REMARK                            x       y       z     vdW  Elec       q    Type
REMARK                         _______ _______ _______ _____ _____    ______ ____
ROOT
ATOM      1  N   UNL     1       8.791  -3.342   0.639  0.00  0.00    -0.273 N 
ATOM      2  C   UNL     1       9.050  -2.027   0.505  0.00  0.00    +0.284 C 
ATOM      3  O   UNL     1       8.144  -1.220   0.569  0.00  0.00    -0.267 OA
ATOM      4  H   UNL     1       9.515  -3.987   0.588  0.00  0.00    +0.156 HD
ENDROOT
BRANCH   1   8
ATOM      5  C   UNL     1       4.907  -4.140   1.237  0.00  0.00    +0.022 A 
ATOM      6  C   UNL     1       5.674  -5.266   1.215  0.00  0.00    +0.031 A 
ATOM      7  C   UNL     1       7.042  -5.079   1.012  0.00  0.00    +0.066 A 
ATOM      8  C   UNL     1       7.496  -3.774   0.851  0.00  0.00    +0.085 A 
ATOM      9  S   UNL     1       6.101  -2.846   0.966  0.00  0.00    -0.073 S 
BRANCH   5  13
ATOM     10  C   UNL     1       0.710  -3.801   1.791  0.00  0.00    +0.000 A 
ATOM     11  C   UNL     1       1.473  -2.663   1.594  0.00  0.00    +0.001 A 
ATOM     12  C   UNL     1       2.837  -2.766   1.414  0.00  0.00    +0.009 A 
ATOM     13  C   UNL     1       3.447  -4.022   1.430  0.00  0.00    -0.011 A 
ATOM     14  C   UNL     1       2.672  -5.165   1.629  0.00  0.00    +0.009 A 
ATOM     15  C   UNL     1       1.309  -5.048   1.808  0.00  0.00    +0.001 A 
ENDBRANCH   5  13
BRANCH   7  16
ATOM     16  C   UNL     1       7.967  -6.218   0.970  0.00  0.00    +0.244 C 
ATOM     17  O   UNL     1       9.156  -6.029   0.792  0.00  0.00    -0.270 OA
ATOM     18  N   UNL     1       7.500  -7.472   1.129  0.00  0.00    -0.325 N 
ATOM     19  H   UNL     1       6.552  -7.622   1.271  0.00  0.00    +0.145 HD
ATOM     20  H   UNL     1       8.112  -8.224   1.101  0.00  0.00    +0.145 HD
ENDBRANCH   7  16
ENDBRANCH   1   8
BRANCH   2  21
ATOM     21  C   UNL     1      10.445  -1.562   0.277  0.00  0.00    +0.218 C 
ATOM     22  O   UNL     1      11.346  -2.364   0.212  0.00  0.00    -0.287 OA
BRANCH  21  23
ATOM     23  C   UNL     1      10.735  -0.091   0.126  0.00  0.00    +0.097 C 
BRANCH  23  24
ATOM     24  C   UNL     1      12.234   0.114  -0.097  0.00  0.00    +0.057 C 
BRANCH  24  25
ATOM     25  C   UNL     1      12.637  -0.507  -1.409  0.00  0.00    -0.040 A 
ATOM     26  C   UNL     1      13.691  -1.399  -1.457  0.00  0.00    +0.004 A 
ATOM     27  C   UNL     1      14.061  -1.970  -2.661  0.00  0.00    +0.000 A 
ATOM     28  C   UNL     1      13.374  -1.648  -3.817  0.00  0.00    +0.000 A 
ATOM     29  C   UNL     1      12.319  -0.757  -3.769  0.00  0.00    +0.000 A 
ATOM     30  C   UNL     1      11.947  -0.190  -2.565  0.00  0.00    +0.004 A 
ENDBRANCH  24  25
BRANCH  24  31
ATOM     31  C   UNL     1      12.541   1.589  -0.125  0.00  0.00    -0.040 A 
ATOM     32  C   UNL     1      11.826   2.428  -0.959  0.00  0.00    +0.004 A 
ATOM     33  C   UNL     1      12.107   3.782  -0.985  0.00  0.00    +0.000 A 
ATOM     34  C   UNL     1      13.104   4.296  -0.176  0.00  0.00    +0.000 A 
ATOM     35  C   UNL     1      13.818   3.457   0.659  0.00  0.00    +0.000 A 
ATOM     36  C   UNL     1      13.534   2.105   0.688  0.00  0.00    +0.004 A 
ENDBRANCH  24  31
ENDBRANCH  23  24
ENDBRANCH  21  23
ENDBRANCH   2  21
TORSDOF 8
