REMARK  Name = ZINC09271381
REMARK  15 active torsions:
REMARK  status: ('A' for Active; 'I' for Inactive)
REMARK    1  A    between atoms: C_1  and  C_2
REMARK    2  A    between atoms: C_2  and  C_3
REMARK    3  A    between atoms: C_3  and  O_4
REMARK    4  A    between atoms: O_4  and  C_5
REMARK    5  A    between atoms: C_9  and  C_11
REMARK    6  A    between atoms: C_14  and  C_15
REMARK    7  A    between atoms: C_14  and  O_22
REMARK    8  A    between atoms: N_27  and  C_28
REMARK    9  A    between atoms: C_28  and  C_29
REMARK   10  A    between atoms: C_29  and  C_30
REMARK   11  A    between atoms: C_30  and  N_67
REMARK   12  A    between atoms: C_31  and  C_32
REMARK   13  A    between atoms: C_31  and  N_67
REMARK   14  A    between atoms: C_33  and  C_34
REMARK   15  A    between atoms: C_33  and  N_67
REMARK                            x       y       z     vdW  Elec       q    Type
REMARK                         _______ _______ _______ _____ _____    ______ ____
ROOT
ATOM      1  C   UNL     1       1.143   1.742   3.001  0.00  0.00    +0.145 C 
ATOM      2  C   UNL     1       1.738   0.856   4.070  0.00  0.00    +0.071 C 
ATOM      3  C   UNL     1       2.488   1.258   5.157  0.00  0.00    +0.133 C 
ATOM      4  C   UNL     1       1.375  -0.458   3.735  0.00  0.00    +0.249 C 
ATOM      5  O   UNL     1       1.668  -1.462   4.360  0.00  0.00    -0.282 OA
ATOM      6  C   UNL     1       0.564  -0.411   2.488  0.00  0.00    +0.288 C 
ATOM      7  O   UNL     1       0.088  -1.379   1.931  0.00  0.00    -0.266 OA
ATOM      8  N   UNL     1       0.439   0.858   2.067  0.00  0.00    -0.284 N 
ENDROOT
BRANCH   3   9
ATOM      9  C   UNL     1       2.868   0.280   6.191  0.00  0.00    +0.017 A 
ATOM     10  C   UNL     1       1.897  -0.540   6.774  0.00  0.00    +0.013 A 
ATOM     11  C   UNL     1       2.261  -1.457   7.737  0.00  0.00    +0.021 A 
ATOM     12  C   UNL     1       3.584  -1.559   8.135  0.00  0.00    +0.041 A 
ATOM     13  C   UNL     1       4.551  -0.746   7.566  0.00  0.00    +0.021 A 
ATOM     14  C   UNL     1       4.202   0.171   6.598  0.00  0.00    +0.013 A 
ATOM     15 CL   UNL     1       4.033  -2.712   9.354  0.00  0.00    -0.084 Cl
ENDBRANCH   3   9
BRANCH   1  20
ATOM     16  C   UNL     1      -0.342   4.930   4.382  0.00  0.00    +0.121 A 
ATOM     17  C   UNL     1      -1.610   4.504   4.753  0.00  0.00    +0.045 A 
ATOM     18  C   UNL     1      -1.980   3.188   4.555  0.00  0.00    +0.004 A 
ATOM     19  C   UNL     1      -1.089   2.296   3.988  0.00  0.00    +0.006 A 
ATOM     20  C   UNL     1       0.174   2.718   3.618  0.00  0.00    -0.019 A 
ATOM     21  C   UNL     1       0.551   4.032   3.818  0.00  0.00    +0.051 A 
BRANCH  16  22
ATOM     22  O   UNL     1       0.025   6.224   4.577  0.00  0.00    -0.492 OA
BRANCH  22  23
ATOM     23  C   UNL     1      -0.944   7.092   5.168  0.00  0.00    +0.229 C 
BRANCH  23  25
ATOM     24  C   UNL     1      -1.392   9.425   5.940  0.00  0.00    +0.007 C 
ATOM     25  C   UNL     1      -0.354   8.496   5.307  0.00  0.00    +0.038 C 
ENDBRANCH  23  25
ENDBRANCH  22  23
ENDBRANCH  16  22
ENDBRANCH   1  20
BRANCH   3  26
ATOM     26  O   UNL     1       2.872   2.546   5.273  0.00  0.00    -0.506 OA
ATOM     27  H   UNL     1       3.403   2.662   6.113  0.00  0.00    +0.292 HD
ENDBRANCH   3  26
BRANCH   8  28
ATOM     28  C   UNL     1      -0.289   1.290   0.872  0.00  0.00    +0.107 C 
BRANCH  28  29
ATOM     29  C   UNL     1       0.662   1.307  -0.327  0.00  0.00    +0.000 C 
BRANCH  29  30
ATOM     30  C   UNL     1      -0.099   1.758  -1.575  0.00  0.00    -0.077 C 
BRANCH  30  31
ATOM     31  N   UNL     1       0.863   1.905  -2.688  0.00  0.00    +0.379 N 
ATOM     32  H   UNL     1       1.714   2.359  -2.336  0.00  0.00    -0.082 HD
BRANCH  31  33
ATOM     33  C   UNL     1       1.217   0.576  -3.229  0.00  0.00    -0.082 C 
ATOM     34  C   UNL     1       2.372   0.738  -4.219  0.00  0.00    -0.017 C 
ENDBRANCH  31  33
BRANCH  31  35
ATOM     35  C   UNL     1       0.277   2.744  -3.755  0.00  0.00    -0.082 C 
ATOM     36  C   UNL     1       0.349   4.210  -3.321  0.00  0.00    -0.017 C 
ENDBRANCH  31  35
ENDBRANCH  30  31
ENDBRANCH  29  30
ENDBRANCH  28  29
ENDBRANCH   8  28
TORSDOF 12
