REMARK  Name = ZINC00885894
REMARK  9 active torsions:
REMARK  status: ('A' for Active; 'I' for Inactive)
REMARK    1  A    between atoms: C_4  and  C_7
REMARK    2  A    between atoms: C_10  and  C_13
REMARK    3  A    between atoms: N_15  and  C_16
REMARK    4  A    between atoms: N_15  and  C_24
REMARK    5  A    between atoms: C_16  and  C_17
REMARK    6  A    between atoms: C_24  and  C_26
REMARK    7  A    between atoms: C_24  and  C_31
REMARK    8  A    between atoms: N_33  and  C_34
REMARK    9  A    between atoms: C_34  and  C_35
REMARK                            x       y       z     vdW  Elec       q    Type
REMARK                         _______ _______ _______ _____ _____    ______ ____
ROOT
ATOM      1  C   UNL     1       2.409   4.987  -1.576  0.00  0.00    +0.264 C 
ATOM      2  O   UNL     1       1.470   5.417  -0.932  0.00  0.00    -0.268 OA
ATOM      3  N   UNL     1       3.191   4.017  -1.063  0.00  0.00    -0.276 N 
ENDROOT
BRANCH   1   7
ATOM      4  C   UNL     1       3.404   5.694  -5.011  0.00  0.00    +0.047 A 
ATOM      5  C   UNL     1       2.800   6.888  -4.681  0.00  0.00    +0.028 A 
ATOM      6  C   UNL     1       2.347   6.783  -3.367  0.00  0.00    +0.033 A 
ATOM      7  C   UNL     1       2.690   5.526  -2.910  0.00  0.00    +0.102 A 
ATOM      8  N   UNL     1       3.336   4.865  -3.931  0.00  0.00    -0.351 N 
ATOM      9  H   UNL     1       3.684   3.961  -3.888  0.00  0.00    +0.166 HD
BRANCH   4  13
ATOM     10  C   UNL     1       5.174   4.757  -8.757  0.00  0.00    +0.000 A 
ATOM     11  C   UNL     1       4.600   6.000  -8.558  0.00  0.00    +0.001 A 
ATOM     12  C   UNL     1       4.023   6.311  -7.344  0.00  0.00    +0.010 A 
ATOM     13  C   UNL     1       4.020   5.368  -6.315  0.00  0.00    -0.002 A 
ATOM     14  C   UNL     1       4.606   4.118  -6.520  0.00  0.00    +0.010 A 
ATOM     15  C   UNL     1       5.173   3.818  -7.741  0.00  0.00    +0.001 A 
ENDBRANCH   4  13
ENDBRANCH   1   7
BRANCH   3  16
ATOM     16  C   UNL     1       2.854   3.411   0.228  0.00  0.00    +0.145 C 
BRANCH  16  17
ATOM     17  C   UNL     1       3.795   3.928   1.285  0.00  0.00    -0.012 A 
ATOM     18  C   UNL     1       4.774   3.101   1.804  0.00  0.00    +0.006 A 
ATOM     19  C   UNL     1       5.637   3.575   2.774  0.00  0.00    +0.000 A 
ATOM     20  C   UNL     1       5.524   4.878   3.224  0.00  0.00    +0.001 A 
ATOM     21  C   UNL     1       4.542   5.704   2.710  0.00  0.00    +0.020 A 
ATOM     22  C   UNL     1       3.678   5.230   1.738  0.00  0.00    +0.046 A 
ATOM     23 CL   UNL     1       2.448   6.268   1.089  0.00  0.00    -0.083 Cl
ENDBRANCH  16  17
ENDBRANCH   3  16
BRANCH   3  24
ATOM     24  C   UNL     1       4.376   3.567  -1.797  0.00  0.00    +0.199 C 
BRANCH  24  25
ATOM     25  C   UNL     1       4.290   2.080  -2.029  0.00  0.00    +0.019 A 
ATOM     26  C   UNL     1       4.593   1.371  -3.143  0.00  0.00    +0.013 A 
ATOM     27  C   UNL     1       4.438  -0.002  -3.127  0.00  0.00    +0.008 A 
ATOM     28  C   UNL     1       3.976  -0.598  -2.001  0.00  0.00    +0.045 A 
ATOM     29  S   UNL     1       3.753   0.797  -0.910  0.00  0.00    -0.099 S 
ENDBRANCH  24  25
BRANCH  24  30
ATOM     30  C   UNL     1       5.612   3.878  -0.993  0.00  0.00    +0.239 C 
ATOM     31  O   UNL     1       5.555   4.667  -0.073  0.00  0.00    -0.273 OA
ATOM     32  N   UNL     1       6.782   3.281  -1.295  0.00  0.00    -0.311 N 
ATOM     33  H   UNL     1       6.828   2.650  -2.031  0.00  0.00    +0.149 HD
BRANCH  32  34
ATOM     34  C   UNL     1       7.983   3.583  -0.514  0.00  0.00    +0.135 C 
BRANCH  34  35
ATOM     35  C   UNL     1       9.164   2.778  -1.060  0.00  0.00    +0.135 C 
ATOM     36  C   UNL     1      10.433   3.090  -0.244  0.00  0.00    +0.035 C 
ATOM     37  C   UNL     1      10.874   1.714   0.312  0.00  0.00    +0.031 C 
ATOM     38  C   UNL     1      10.167   0.731  -0.656  0.00  0.00    +0.160 C 
ATOM     39  O   UNL     1       8.901   1.371  -0.922  0.00  0.00    -0.375 OA
ENDBRANCH  34  35
ENDBRANCH  32  34
ENDBRANCH  24  30
ENDBRANCH   3  24
TORSDOF 9
