REMARK  Name = ZINC13576510
REMARK  6 active torsions:
REMARK  status: ('A' for Active; 'I' for Inactive)
REMARK    1  A    between atoms: C_1  and  O_2
REMARK    2  A    between atoms: O_2  and  C_3
REMARK    3  A    between atoms: C_5  and  C_13
REMARK    4  A    between atoms: C_8  and  O_9
REMARK    5  A    between atoms: O_9  and  C_10
REMARK    6  A    between atoms: C_18  and  C_19
REMARK                            x       y       z     vdW  Elec       q    Type
REMARK                         _______ _______ _______ _____ _____    ______ ____
ROOT
ATOM      1  C   UNL     1       0.302   1.107  -0.001  0.00  0.00    +0.005 A 
ATOM      2  C   UNL     1       0.713   2.447   0.004  0.00  0.00    +0.036 A 
ATOM      3  C   UNL     1       2.046   2.779  -0.005  0.00  0.00    +0.052 A 
ATOM      4  N   UNL     1       3.027   1.817  -0.023  0.00  0.00    -0.326 N 
ATOM      5  C   UNL     1       2.691   0.480  -0.020  0.00  0.00    +0.123 A 
ATOM      6  C   UNL     1       1.276   0.092  -0.009  0.00  0.00    +0.099 A 
ATOM      7  C   UNL     1       4.441   2.201  -0.047  0.00  0.00    +0.128 C 
ATOM      8  C   UNL     1       4.646   3.441  -0.918  0.00  0.00    +0.057 C 
ATOM      9  C   UNL     1       3.725   4.539  -0.454  0.00  0.00    -0.033 A 
ATOM     10  C   UNL     1       2.449   4.201   0.008  0.00  0.00    +0.005 A 
ATOM     11  C   UNL     1       1.582   5.193   0.467  0.00  0.00    +0.059 A 
ATOM     12  C   UNL     1       1.996   6.511   0.453  0.00  0.00    +0.163 A 
ATOM     13  C   UNL     1       3.264   6.843  -0.014  0.00  0.00    +0.162 A 
ATOM     14  C   UNL     1       4.128   5.855  -0.467  0.00  0.00    +0.053 A 
ATOM     15  O   UNL     1       3.655   8.149  -0.025  0.00  0.00    -0.488 OA
ATOM     16  C   UNL     1       2.975   8.998  -0.951  0.00  0.00    +0.232 C 
ATOM     17  C   UNL     1       1.673   9.511  -0.357  0.00  0.00    +0.082 C 
ATOM     18  C   UNL     1       0.673   8.395  -0.101  0.00  0.00    +0.232 C 
ATOM     19  O   UNL     1       1.162   7.495   0.896  0.00  0.00    -0.488 OA
ATOM     20  H   UNL     1       3.488  -1.404  -0.025  0.00  0.00    +0.157 HD
ATOM     21  N   UNL     1       3.691  -0.404  -0.027  0.00  0.00    -0.384 N 
ATOM     22  H   UNL     1       4.665  -0.078  -0.035  0.00  0.00    +0.157 HD
ENDROOT
BRANCH   1  25
ATOM     23  C   UNL     1      -2.986  -0.465  -0.917  0.00  0.00    +0.162 A 
ATOM     24  C   UNL     1      -1.642  -0.145  -0.928  0.00  0.00    +0.058 A 
ATOM     25  C   UNL     1      -1.136   0.764   0.004  0.00  0.00    -0.013 A 
ATOM     26  C   UNL     1      -1.993   1.354   0.936  0.00  0.00    +0.012 A 
ATOM     27  C   UNL     1      -3.334   1.034   0.938  0.00  0.00    +0.050 A 
ATOM     28  C   UNL     1      -3.836   0.127   0.016  0.00  0.00    +0.168 A 
BRANCH  23  30
ATOM     29  C   UNL     1      -2.553  -1.921  -2.747  0.00  0.00    +0.277 C 
ATOM     30  O   UNL     1      -3.481  -1.353  -1.820  0.00  0.00    -0.491 OA
ENDBRANCH  23  30
BRANCH  28  31
ATOM     31  O   UNL     1      -5.158  -0.186   0.022  0.00  0.00    -0.431 OA
BRANCH  31  32
ATOM     32  C   UNL     1      -5.972   0.458   1.005  0.00  0.00    +0.541 C 
ATOM     33  F   UNL     1      -5.503   0.134   2.283  0.00  0.00    -0.166 F 
ATOM     34  F   UNL     1      -5.914   1.844   0.825  0.00  0.00    -0.166 F 
ENDBRANCH  31  32
ENDBRANCH  28  31
ENDBRANCH   1  25
BRANCH   6  35
ATOM     35  C   UNL     1       0.895  -1.288  -0.007  0.00  0.00    +0.103 C 
ATOM     36  N   UNL     1       0.593  -2.383  -0.006  0.00  0.00    -0.191 NA
ENDBRANCH   6  35
TORSDOF 5
