REMARK  Name = ZINC36514871
REMARK  14 active torsions:
REMARK  status: ('A' for Active; 'I' for Inactive)
REMARK    1  A    between atoms: C_1  and  C_2
REMARK    2  A    between atoms: C_2  and  C_3
REMARK    3  A    between atoms: C_3  and  C_4
REMARK    4  A    between atoms: C_4  and  C_5
REMARK    5  A    between atoms: C_5  and  C_6
REMARK    6  A    between atoms: C_6  and  N_7
REMARK    7  A    between atoms: N_7  and  C_8
REMARK    8  A    between atoms: C_8  and  C_10
REMARK    9  A    between atoms: C_8  and  C_19
REMARK   10  A    between atoms: C_13  and  N_16
REMARK   11  A    between atoms: N_21  and  C_22
REMARK   12  A    between atoms: C_28  and  C_30
REMARK   13  A    between atoms: C_34  and  O_37
REMARK   14  A    between atoms: C_35  and  O_36
REMARK                            x       y       z     vdW  Elec       q    Type
REMARK                         _______ _______ _______ _____ _____    ______ ____
ROOT
ATOM      1  C   UNL     1       3.100  -4.984  -2.703  0.00  0.00    +0.192 C 
ENDROOT
BRANCH   1   2
ATOM      2  C   UNL     1       4.341  -4.159  -2.929  0.00  0.00    -0.018 A 
ATOM      3  C   UNL     1       4.548  -3.542  -4.149  0.00  0.00    +0.008 A 
ATOM      4  C   UNL     1       5.686  -2.786  -4.357  0.00  0.00    +0.033 A 
ATOM      5  C   UNL     1       6.617  -2.646  -3.345  0.00  0.00    +0.126 A 
ATOM      6  C   UNL     1       6.410  -3.262  -2.125  0.00  0.00    +0.033 A 
ATOM      7  C   UNL     1       5.270  -4.015  -1.916  0.00  0.00    +0.008 A 
BRANCH   5   8
ATOM      8  N   UNL     1       7.836  -1.837  -3.568  0.00  0.00    +0.056 N 
ATOM      9  O   UNL     1       8.018  -1.298  -4.635  0.00  0.00    -0.126 OA
ATOM     10  O   UNL     1       8.651  -1.715  -2.683  0.00  0.00    -0.126 OA
ENDBRANCH   5   8
ENDBRANCH   1   2
BRANCH   1  11
ATOM     11  C   UNL     1       3.306  -5.885  -1.512  0.00  0.00    +0.238 C 
ATOM     12  O   UNL     1       3.592  -7.052  -1.677  0.00  0.00    -0.273 OA
ATOM     13  N   UNL     1       3.172  -5.393  -0.265  0.00  0.00    -0.311 N 
ATOM     14  H   UNL     1       2.944  -4.460  -0.133  0.00  0.00    +0.149 HD
BRANCH  13  15
ATOM     15  C   UNL     1       3.373  -6.269   0.893  0.00  0.00    +0.073 C 
ATOM     16  C   UNL     1       2.070  -7.010   1.203  0.00  0.00    +0.022 C 
ATOM     17  C   UNL     1       2.279  -7.924   2.412  0.00  0.00    +0.002 C 
ATOM     18  C   UNL     1       2.689  -7.083   3.623  0.00  0.00    +0.000 C 
ATOM     19  C   UNL     1       3.991  -6.342   3.312  0.00  0.00    +0.002 C 
ATOM     20  C   UNL     1       3.782  -5.428   2.104  0.00  0.00    +0.022 C 
ENDBRANCH  13  15
ENDBRANCH   1  11
BRANCH   1  21
ATOM     21  N   UNL     1       2.831  -5.798  -3.891  0.00  0.00    -0.282 N 
ATOM     22  C   UNL     1       1.916  -5.393  -4.793  0.00  0.00    +0.251 C 
ATOM     23  O   UNL     1       1.595  -6.129  -5.706  0.00  0.00    -0.270 OA
BRANCH  22  24
ATOM     24  C   UNL     1       1.303  -4.056  -4.672  0.00  0.00    +0.082 A 
ATOM     25  C   UNL     1       2.012  -3.009  -4.076  0.00  0.00    +0.017 A 
ATOM     26  C   UNL     1       1.437  -1.763  -3.966  0.00  0.00    +0.005 A 
ATOM     27  C   UNL     1       0.156  -1.538  -4.443  0.00  0.00    +0.049 A 
ATOM     28  C   UNL     1      -0.560  -2.565  -5.035  0.00  0.00    +0.159 A 
ATOM     29  C   UNL     1       0.010  -3.829  -5.159  0.00  0.00    +0.171 A 
BRANCH  29  30
ATOM     30  O   UNL     1      -0.686  -4.836  -5.744  0.00  0.00    -0.503 OA
ATOM     31  H   UNL     1      -1.223  -5.353  -5.128  0.00  0.00    +0.292 HD
ENDBRANCH  29  30
BRANCH  28  32
ATOM     32  O   UNL     1      -1.817  -2.337  -5.500  0.00  0.00    -0.503 OA
ATOM     33  H   UNL     1      -1.849  -2.048  -6.423  0.00  0.00    +0.292 HD
ENDBRANCH  28  32
ENDBRANCH  22  24
BRANCH  21  34
ATOM     34  C   UNL     1       3.558  -7.053  -4.098  0.00  0.00    +0.109 C 
BRANCH  34  35
ATOM     35  C   UNL     1       2.563  -8.213  -4.171  0.00  0.00    +0.019 C 
BRANCH  35  36
ATOM     36  C   UNL     1       3.322  -9.524  -4.387  0.00  0.00    +0.002 C 
BRANCH  36  37
ATOM     37  C   UNL     1       2.326 -10.684  -4.460  0.00  0.00    -0.000 C 
BRANCH  37  39
ATOM     38  C   UNL     1       2.090 -13.154  -4.749  0.00  0.00    +0.004 C 
ATOM     39  C   UNL     1       3.085 -11.994  -4.676  0.00  0.00    -0.003 C 
ENDBRANCH  37  39
ENDBRANCH  36  37
ENDBRANCH  35  36
ENDBRANCH  34  35
ENDBRANCH  21  34
ENDBRANCH   1  21
TORSDOF 13
