REMARK  Name = ZINC30780892
REMARK  8 active torsions:
REMARK  status: ('A' for Active; 'I' for Inactive)
REMARK    1  A    between atoms: C_1  and  C_2
REMARK    2  A    between atoms: C_2  and  O_3
REMARK    3  A    between atoms: O_3  and  C_4
REMARK    4  A    between atoms: C_6  and  C_14
REMARK    5  A    between atoms: C_9  and  O_10
REMARK    6  A    between atoms: O_10  and  C_11
REMARK    7  A    between atoms: C_11  and  C_12
REMARK    8  A    between atoms: C_25  and  C_30
REMARK                            x       y       z     vdW  Elec       q    Type
REMARK                         _______ _______ _______ _____ _____    ______ ____
ROOT
ATOM      1  C   UNL     1      -1.333   2.112   0.020  0.00  0.00    +0.107 C 
ATOM      2  C   UNL     1      -1.892   2.133   1.433  0.00  0.00    +0.049 C 
ATOM      3  C   UNL     1      -2.239   0.700   1.904  0.00  0.00    +0.036 C 
ATOM      4  C   UNL     1      -3.355   0.968   2.939  0.00  0.00    +0.161 C 
ATOM      5  O   UNL     1      -3.901   2.264   2.662  0.00  0.00    -0.372 OA
ATOM      6  C   UNL     1      -3.266   2.820   1.492  0.00  0.00    +0.155 C 
ATOM      7  C   UNL     1      -4.112   2.492   0.290  0.00  0.00    +0.003 A 
ATOM      8  C   UNL     1      -5.451   2.856   0.315  0.00  0.00    +0.011 A 
ATOM      9  C   UNL     1      -6.272   2.577  -0.759  0.00  0.00    -0.050 A 
ATOM     10  C   UNL     1      -5.768   1.929  -1.872  0.00  0.00    +0.005 A 
ATOM     11  C   UNL     1      -4.437   1.563  -1.907  0.00  0.00    +0.023 A 
ATOM     12  C   UNL     1      -3.610   1.844  -0.825  0.00  0.00    +0.033 A 
ATOM     13  N   UNL     1      -2.282   1.429  -0.867  0.00  0.00    -0.336 N 
ATOM     14  C   UNL     1      -7.724   2.980  -0.719  0.00  0.00    +0.044 C 
ATOM     15  H   UNL     1      -1.933   0.624  -1.530  0.00  0.00    +0.147 HD
ENDROOT
BRANCH   1  18
ATOM     16  C   UNL     1       2.381   1.416  -0.013  0.00  0.00    +0.164 A 
ATOM     17  C   UNL     1       1.169   2.089   0.002  0.00  0.00    +0.055 A 
ATOM     18  C   UNL     1      -0.017   1.378   0.010  0.00  0.00    -0.022 A 
ATOM     19  C   UNL     1       0.002  -0.004   0.002  0.00  0.00    +0.029 A 
ATOM     20  C   UNL     1       1.208  -0.682  -0.014  0.00  0.00    +0.086 A 
ATOM     21  C   UNL     1       2.400   0.025  -0.021  0.00  0.00    +0.180 A 
ATOM     22 CL   UNL     1       1.228  -2.418  -0.023  0.00  0.00    -0.080 Cl
BRANCH  16  23
ATOM     23  O   UNL     1       3.548   2.114  -0.021  0.00  0.00    -0.489 OA
BRANCH  23  25
ATOM     24  C   UNL     1       4.855   4.146  -0.022  0.00  0.00    +0.048 C 
ATOM     25  C   UNL     1       3.451   3.540  -0.011  0.00  0.00    +0.226 C 
ENDBRANCH  23  25
ENDBRANCH  16  23
BRANCH  21  26
ATOM     26  O   UNL     1       3.587  -0.640  -0.037  0.00  0.00    -0.487 OA
BRANCH  26  27
ATOM     27  C   UNL     1       4.140  -0.949  -1.318  0.00  0.00    +0.226 C 
ATOM     28  C   UNL     1       5.465  -1.691  -1.135  0.00  0.00    +0.048 C 
ENDBRANCH  26  27
ENDBRANCH  21  26
ENDBRANCH   1  18
TORSDOF 5
