REMARK  Name = ZINC19594833
REMARK  9 active torsions:
REMARK  status: ('A' for Active; 'I' for Inactive)
REMARK    1  A    between atoms: C_1  and  O_2
REMARK    2  A    between atoms: O_2  and  C_3
REMARK    3  A    between atoms: C_4  and  C_11
REMARK    4  A    between atoms: C_7  and  O_9
REMARK    5  A    between atoms: O_9  and  C_10
REMARK    6  A    between atoms: C_11  and  O_33
REMARK    7  A    between atoms: N_20  and  C_22
REMARK    8  A    between atoms: C_22  and  C_23
REMARK    9  A    between atoms: C_26  and  C_29
REMARK                            x       y       z     vdW  Elec       q    Type
REMARK                         _______ _______ _______ _____ _____    ______ ____
ROOT
ATOM      1  C   UNL     1      -0.018   1.503   0.010  0.00  0.00    +0.099 C 
ATOM      2  C   UNL     1      -0.877   2.022  -1.155  0.00  0.00    +0.040 C 
ATOM      3  C   UNL     1      -0.303   1.607  -2.506  0.00  0.00    +0.003 C 
ATOM      4  C   UNL     1       1.169   2.028  -2.652  0.00  0.00    +0.002 C 
ATOM      5  C   UNL     1       1.928   1.394  -1.503  0.00  0.00    -0.023 C 
ATOM      6  C   UNL     1       1.383   2.039  -0.197  0.00  0.00    +0.010 C 
ATOM      7  C   UNL     1       2.441   1.650   0.827  0.00  0.00    -0.072 C 
ATOM      8  N   UNL     1       3.712   1.512   0.056  0.00  0.00    +0.383 N 
ATOM      9  C   UNL     1       3.414   1.744  -1.386  0.00  0.00    -0.075 C 
ATOM     10  H   UNL     1       4.137   0.507   0.194  0.00  0.00    -0.081 HD
ENDROOT
BRANCH   1  12
ATOM     11  C   UNL     1      -1.186  -0.734   0.015  0.00  0.00    +0.226 A 
ATOM     12  C   UNL     1       0.002  -0.004   0.002  0.00  0.00    +0.064 A 
ATOM     13  C   UNL     1       1.199  -0.695  -0.013  0.00  0.00    +0.128 A 
ATOM     14  N   UNL     1       1.182  -2.019  -0.020  0.00  0.00    -0.203 NA
ATOM     15  C   UNL     1       0.038  -2.684  -0.012  0.00  0.00    +0.321 A 
ATOM     16  N   UNL     1      -1.128  -2.060   0.002  0.00  0.00    -0.159 NA
BRANCH  11  18
ATOM     17  C   UNL     1      -3.553  -0.918   0.048  0.00  0.00    +0.279 C 
ATOM     18  O   UNL     1      -2.383  -0.098   0.035  0.00  0.00    -0.479 OA
ENDBRANCH  11  18
BRANCH  15  19
ATOM     19  O   UNL     1       0.062  -4.038  -0.019  0.00  0.00    -0.466 OA
ATOM     20  C   UNL     1       1.346  -4.665  -0.035  0.00  0.00    +0.280 C 
ENDBRANCH  15  19
ENDBRANCH   1  12
BRANCH   1  21
ATOM     21  O   UNL     1      -0.542   1.976   1.253  0.00  0.00    -0.384 OA
ATOM     22  H   UNL     1      -0.631   3.057   1.436  0.00  0.00    +0.211 HD
ENDBRANCH   1  21
BRANCH   8  23
ATOM     23  C   UNL     1       4.721   2.461   0.545  0.00  0.00    -0.043 C 
BRANCH  23  24
ATOM     24  C   UNL     1       6.057   2.134  -0.070  0.00  0.00    -0.064 A 
ATOM     25  C   UNL     1       6.915   1.258   0.568  0.00  0.00    +0.002 A 
ATOM     26  C   UNL     1       8.139   0.954   0.002  0.00  0.00    +0.012 A 
ATOM     27  C   UNL     1       8.510   1.535  -1.197  0.00  0.00    +0.055 A 
ATOM     28  C   UNL     1       7.654   2.415  -1.832  0.00  0.00    +0.012 A 
ATOM     29  C   UNL     1       6.427   2.714  -1.269  0.00  0.00    +0.002 A 
BRANCH  27  30
ATOM     30  C   UNL     1       9.847   1.208  -1.811  0.00  0.00    +0.417 C 
ATOM     31  F   UNL     1      10.807   2.112  -1.345  0.00  0.00    -0.166 F 
ATOM     32  F   UNL     1      10.219  -0.092  -1.454  0.00  0.00    -0.166 F 
ATOM     33  F   UNL     1       9.755   1.301  -3.204  0.00  0.00    -0.166 F 
ENDBRANCH  27  30
ENDBRANCH  23  24
ENDBRANCH   8  23
TORSDOF 7
