REMARK  Name = ZINC15906655
REMARK  12 active torsions:
REMARK  status: ('A' for Active; 'I' for Inactive)
REMARK    1  A    between atoms: C_1  and  O_2
REMARK    2  A    between atoms: O_2  and  C_3
REMARK    3  A    between atoms: C_6  and  C_9
REMARK    4  A    between atoms: N_10  and  C_11
REMARK    5  A    between atoms: C_11  and  C_12
REMARK    6  A    between atoms: C_12  and  C_13
REMARK    7  A    between atoms: C_15  and  C_23
REMARK    8  A    between atoms: C_23  and  C_24
REMARK    9  A    between atoms: C_24  and  N_25
REMARK   10  A    between atoms: C_26  and  C_27
REMARK   11  A    between atoms: C_30  and  O_33
REMARK   12  A    between atoms: O_33  and  C_34
REMARK                            x       y       z     vdW  Elec       q    Type
REMARK                         _______ _______ _______ _____ _____    ______ ____
ROOT
ATOM      1  C   UNL     1       5.100  -5.877  -6.274  0.00  0.00    -0.027 C 
ATOM      2  C   UNL     1       6.333  -6.642  -5.790  0.00  0.00    +0.014 C 
ATOM      3  C   UNL     1       7.012  -7.321  -6.981  0.00  0.00    -0.027 C 
ATOM      4  C   UNL     1       7.438  -6.261  -7.998  0.00  0.00    +0.010 C 
ATOM      5  C   UNL     1       6.205  -5.495  -8.482  0.00  0.00    -0.010 C 
ATOM      6  C   UNL     1       5.526  -4.816  -7.291  0.00  0.00    +0.010 C 
ATOM      7  C   UNL     1       5.226  -6.468  -9.141  0.00  0.00    +0.007 C 
ATOM      8  C   UNL     1       4.800  -7.529  -8.124  0.00  0.00    -0.010 C 
ATOM      9  C   UNL     1       6.033  -8.295  -7.639  0.00  0.00    +0.010 C 
ATOM     10  C   UNL     1       4.121  -6.850  -6.933  0.00  0.00    +0.010 C 
ENDROOT
BRANCH   1  11
ATOM     11  C   UNL     1       4.421  -5.198  -5.083  0.00  0.00    +0.028 C 
BRANCH  11  12
ATOM     12  C   UNL     1       3.188  -4.432  -5.568  0.00  0.00    +0.113 C 
BRANCH  12  14
ATOM     13  C   UNL     1       2.491  -2.490  -4.359  0.00  0.00    +0.086 C 
ATOM     14  N   UNL     1       2.538  -3.782  -4.427  0.00  0.00    -0.390 N 
ATOM     15  H   UNL     1       2.142  -4.319  -3.724  0.00  0.00    +0.159 HD
BRANCH  13  19
ATOM     16  C   UNL     1       0.605  -0.607  -1.055  0.00  0.00    +0.120 A 
ATOM     17  C   UNL     1       1.172   0.166  -2.061  0.00  0.00    +0.046 A 
ATOM     18  C   UNL     1       1.785  -0.442  -3.135  0.00  0.00    +0.013 A 
ATOM     19  C   UNL     1       1.837  -1.836  -3.211  0.00  0.00    -0.009 A 
ATOM     20  C   UNL     1       1.265  -2.609  -2.196  0.00  0.00    +0.013 A 
ATOM     21  C   UNL     1       0.659  -1.993  -1.123  0.00  0.00    +0.046 A 
BRANCH  16  23
ATOM     22  C   UNL     1      -0.017   1.425   0.010  0.00  0.00    +0.277 C 
ATOM     23  O   UNL     1       0.002  -0.004   0.002  0.00  0.00    -0.495 OA
ENDBRANCH  16  23
ENDBRANCH  13  19
ENDBRANCH  12  14
ENDBRANCH  11  12
ENDBRANCH   1  11
BRANCH   3  24
ATOM     24  C   UNL     1       8.245  -8.087  -6.497  0.00  0.00    +0.028 C 
BRANCH  24  25
ATOM     25  C   UNL     1       8.924  -8.766  -7.688  0.00  0.00    +0.113 C 
BRANCH  25  26
ATOM     26  N   UNL     1      10.104  -9.499  -7.224  0.00  0.00    -0.390 N 
ATOM     27  C   UNL     1      10.143 -10.790  -7.317  0.00  0.00    +0.086 C 
ATOM     28  H   UNL     1      10.857  -9.018  -6.847  0.00  0.00    +0.159 HD
BRANCH  27  29
ATOM     29  C   UNL     1      11.331 -11.528  -6.850  0.00  0.00    -0.009 A 
ATOM     30  C   UNL     1      12.414 -10.836  -6.301  0.00  0.00    +0.013 A 
ATOM     31  C   UNL     1      13.522 -11.530  -5.867  0.00  0.00    +0.046 A 
ATOM     32  C   UNL     1      13.563 -12.915  -5.973  0.00  0.00    +0.120 A 
ATOM     33  C   UNL     1      12.488 -13.606  -6.519  0.00  0.00    +0.046 A 
ATOM     34  C   UNL     1      11.374 -12.921  -6.950  0.00  0.00    +0.013 A 
BRANCH  32  35
ATOM     35  O   UNL     1      14.657 -13.594  -5.543  0.00  0.00    -0.495 OA
ATOM     36  C   UNL     1      14.633 -15.016  -5.683  0.00  0.00    +0.277 C 
ENDBRANCH  32  35
ENDBRANCH  27  29
ENDBRANCH  25  26
ENDBRANCH  24  25
ENDBRANCH   3  24
TORSDOF 10
