REMARK  Name = ZINC23157300
REMARK  8 active torsions:
REMARK  status: ('A' for Active; 'I' for Inactive)
REMARK    1  A    between atoms: C_1  and  C_2
REMARK    2  A    between atoms: C_7  and  O_32
REMARK    3  A    between atoms: C_8  and  C_10
REMARK    4  A    between atoms: C_10  and  C_12
REMARK    5  A    between atoms: C_10  and  N_20
REMARK    6  A    between atoms: C_15  and  O_18
REMARK    7  A    between atoms: O_18  and  C_19
REMARK    8  A    between atoms: N_23  and  C_26
REMARK                            x       y       z     vdW  Elec       q    Type
REMARK                         _______ _______ _______ _____ _____    ______ ____
ROOT
ATOM      1  C   UNL     1       7.443  -2.133   0.977  0.00  0.00    +0.129 C 
ENDROOT
BRANCH   1   9
ATOM      2  C   UNL     1      13.532   2.153   0.558  0.00  0.00    +0.090 C 
ATOM      3  C   UNL     1      12.251   1.387   0.760  0.00  0.00    +0.150 A 
ATOM      4  N   UNL     1      11.302   1.690   1.644  0.00  0.00    -0.205 NA
ATOM      5  C   UNL     1      10.333   0.821   1.553  0.00  0.00    +0.199 A 
ATOM      6  N   UNL     1      10.629  -0.093   0.588  0.00  0.00    -0.173 N 
ATOM      7  N   UNL     1      11.895   0.319   0.097  0.00  0.00    -0.147 NA
ATOM      8  C   UNL     1       9.708  -1.087   0.360  0.00  0.00    +0.228 A 
ATOM      9  C   UNL     1       8.573  -1.140   1.066  0.00  0.00    +0.076 A 
ATOM     10  S   UNL     1       8.745   0.279   2.137  0.00  0.00    -0.047 S 
BRANCH   8  11
ATOM     11  O   UNL     1       9.953  -2.026  -0.593  0.00  0.00    -0.492 OA
ATOM     12  H   UNL     1       9.220  -2.825  -0.780  0.00  0.00    +0.294 HD
ENDBRANCH   8  11
ENDBRANCH   1   9
BRANCH   1  13
ATOM     13  C   UNL     1       7.508  -3.075   2.152  0.00  0.00    -0.025 A 
ATOM     14  C   UNL     1       7.023  -2.676   3.384  0.00  0.00    +0.009 A 
ATOM     15  C   UNL     1       7.076  -3.540   4.461  0.00  0.00    +0.046 A 
ATOM     16  C   UNL     1       7.628  -4.803   4.309  0.00  0.00    +0.120 A 
ATOM     17  C   UNL     1       8.120  -5.199   3.073  0.00  0.00    +0.046 A 
ATOM     18  C   UNL     1       8.058  -4.334   1.998  0.00  0.00    +0.009 A 
BRANCH  16  19
ATOM     19  O   UNL     1       7.688  -5.652   5.368  0.00  0.00    -0.495 OA
ATOM     20  C   UNL     1       7.163  -5.178   6.610  0.00  0.00    +0.277 C 
ENDBRANCH  16  19
ENDBRANCH   1  13
BRANCH   1  21
ATOM     21  N   UNL     1       6.160  -1.418   0.994  0.00  0.00    -0.288 NA
ATOM     22  C   UNL     1       6.060  -0.488  -0.140  0.00  0.00    +0.104 C 
ATOM     23  C   UNL     1       4.748   0.293  -0.042  0.00  0.00    +0.120 C 
ATOM     24  N   UNL     1       3.620  -0.649  -0.037  0.00  0.00    -0.327 N 
ATOM     25  C   UNL     1       3.719  -1.579   1.097  0.00  0.00    +0.120 C 
ATOM     26  C   UNL     1       5.032  -2.360   1.000  0.00  0.00    +0.104 C 
BRANCH  24  27
ATOM     27  C   UNL     1       2.400   0.031  -0.021  0.00  0.00    +0.030 A 
ATOM     28  C   UNL     1       1.206  -0.680  -0.013  0.00  0.00    +0.023 A 
ATOM     29  C   UNL     1       0.002  -0.004   0.002  0.00  0.00    +0.002 A 
ATOM     30  C   UNL     1      -0.017   1.379   0.010  0.00  0.00    +0.000 A 
ATOM     31  C   UNL     1       1.169   2.089   0.002  0.00  0.00    +0.002 A 
ATOM     32  C   UNL     1       2.377   1.420  -0.013  0.00  0.00    +0.023 A 
ENDBRANCH  24  27
ENDBRANCH   1  21
TORSDOF 6
