REMARK  Name = ZINC06668705
REMARK  7 active torsions:
REMARK  status: ('A' for Active; 'I' for Inactive)
REMARK    1  A    between atoms: C_1  and  C_2
REMARK    2  A    between atoms: C_3  and  C_22
REMARK    3  A    between atoms: C_4  and  S_10
REMARK    4  A    between atoms: C_6  and  C_9
REMARK    5  A    between atoms: S_10  and  N_13
REMARK    6  A    between atoms: N_13  and  C_14
REMARK    7  A    between atoms: N_13  and  C_15
REMARK                            x       y       z     vdW  Elec       q    Type
REMARK                         _______ _______ _______ _____ _____    ______ ____
ROOT
ATOM      1  S   UNL     1       2.544  -2.882  -0.644  0.00  0.00    +0.093 S 
ATOM      2  O   UNL     1       2.082  -4.169  -1.032  0.00  0.00    -0.148 OA
ATOM      3  O   UNL     1       3.172  -1.991  -1.556  0.00  0.00    -0.148 OA
ENDROOT
BRANCH   1   7
ATOM      4  C   UNL     1       4.458  -5.705   3.365  0.00  0.00    +0.047 C 
ATOM      5  C   UNL     1       4.508  -4.472   2.500  0.00  0.00    -0.010 A 
ATOM      6  C   UNL     1       3.596  -4.291   1.453  0.00  0.00    +0.101 A 
ATOM      7  C   UNL     1       3.680  -3.132   0.679  0.00  0.00    +0.215 A 
ATOM      8  N   UNL     1       4.605  -2.228   0.924  0.00  0.00    -0.230 NA
ATOM      9  C   UNL     1       5.474  -2.368   1.907  0.00  0.00    +0.059 A 
ATOM     10  C   UNL     1       5.458  -3.489   2.721  0.00  0.00    +0.066 A 
ATOM     11 CL   UNL     1       6.615  -3.658   4.004  0.00  0.00    -0.081 Cl
ATOM     12  C   UNL     1       6.506  -1.296   2.143  0.00  0.00    +0.067 C 
BRANCH   6  13
ATOM     13  C   UNL     1       2.594  -5.277   1.182  0.00  0.00    +0.103 C 
ATOM     14  N   UNL     1       1.798  -6.059   0.967  0.00  0.00    -0.191 NA
ENDBRANCH   6  13
ENDBRANCH   1   7
BRANCH   1  15
ATOM     15  N   UNL     1       1.237  -2.078  -0.021  0.00  0.00    -0.205 N 
ATOM     16  C   UNL     1       0.104  -2.832   0.521  0.00  0.00    +0.157 C 
BRANCH  15  17
ATOM     17  C   UNL     1       1.215  -0.681  -0.013  0.00  0.00    +0.051 A 
ATOM     18  C   UNL     1       0.002  -0.004   0.002  0.00  0.00    +0.026 A 
ATOM     19  C   UNL     1      -0.017   1.377   0.010  0.00  0.00    +0.022 A 
ATOM     20  C   UNL     1       1.171   2.086   0.002  0.00  0.00    +0.041 A 
ATOM     21  C   UNL     1       2.381   1.415  -0.013  0.00  0.00    +0.022 A 
ATOM     22  C   UNL     1       2.406   0.034  -0.021  0.00  0.00    +0.026 A 
ATOM     23 CL   UNL     1       1.144   3.822   0.012  0.00  0.00    -0.084 Cl
ENDBRANCH  15  17
ENDBRANCH   1  15
TORSDOF 4
