REMARK  Name = ZINC39656903
REMARK  8 active torsions:
REMARK  status: ('A' for Active; 'I' for Inactive)
REMARK    1  A    between atoms: C_1  and  C_2
REMARK    2  A    between atoms: C_2  and  C_3
REMARK    3  A    between atoms: C_3  and  C_5
REMARK    4  A    between atoms: C_3  and  C_6
REMARK    5  A    between atoms: C_10  and  C_19
REMARK    6  A    between atoms: N_21  and  C_22
REMARK    7  A    between atoms: C_22  and  C_24
REMARK    8  A    between atoms: C_22  and  C_25
REMARK                            x       y       z     vdW  Elec       q    Type
REMARK                         _______ _______ _______ _____ _____    ______ ____
ROOT
ATOM      1  C   UNL     1      -1.378  -2.194  -0.100  0.00  0.00    +0.218 C 
ATOM      2  O   UNL     1      -0.340  -2.803  -0.249  0.00  0.00    -0.275 OA
ATOM      3  N   UNL     1      -2.555  -2.848  -0.145  0.00  0.00    -0.300 N 
ATOM      4  C   UNL     1      -3.916  -2.280   0.007  0.00  0.00    +0.121 C 
ATOM      5  C   UNL     1      -4.774  -3.040  -1.029  0.00  0.00    +0.100 C 
ATOM      6  C   UNL     1      -4.026  -4.363  -1.264  0.00  0.00    -0.004 C 
ATOM      7  C   UNL     1      -2.783  -4.296  -0.365  0.00  0.00    +0.115 C 
ATOM      8  C   UNL     1      -3.607  -4.481  -2.726  0.00  0.00    -0.010 C 
ATOM      9  C   UNL     1      -2.916  -5.829  -2.947  0.00  0.00    -0.082 C 
ATOM     10  N   UNL     1      -3.835  -6.917  -2.591  0.00  0.00    +0.379 N 
ATOM     11  C   UNL     1      -4.160  -6.850  -1.161  0.00  0.00    -0.082 C 
ATOM     12  C   UNL     1      -4.904  -5.545  -0.865  0.00  0.00    -0.010 C 
ATOM     13  H   UNL     1      -4.683  -6.829  -3.132  0.00  0.00    -0.086 HD
ATOM     14  H   UNL     1      -3.400  -7.804  -2.795  0.00  0.00    -0.086 HD
ENDROOT
BRANCH   5  15
ATOM     15  C   UNL     1      -6.151  -3.304  -0.477  0.00  0.00    +0.219 C 
ATOM     16  O   UNL     1      -6.307  -3.461   0.715  0.00  0.00    -0.275 OA
ATOM     17  N   UNL     1      -7.210  -3.365  -1.309  0.00  0.00    -0.308 N 
ATOM     18  H   UNL     1      -7.085  -3.240  -2.263  0.00  0.00    +0.149 HD
BRANCH  17  19
ATOM     19  C   UNL     1      -8.549  -3.622  -0.773  0.00  0.00    +0.100 C 
ATOM     20  C   UNL     1      -9.175  -2.304  -0.311  0.00  0.00    +0.033 C 
BRANCH  19  21
ATOM     21  C   UNL     1      -9.410  -4.239  -1.845  0.00  0.00    -0.027 A 
ATOM     22  C   UNL     1      -9.320  -3.786  -3.148  0.00  0.00    +0.006 A 
ATOM     23  C   UNL     1     -10.110  -4.351  -4.132  0.00  0.00    +0.015 A 
ATOM     24  C   UNL     1     -10.989  -5.370  -3.813  0.00  0.00    +0.018 A 
ATOM     25  C   UNL     1     -11.078  -5.823  -2.509  0.00  0.00    +0.015 A 
ATOM     26  C   UNL     1     -10.284  -5.260  -1.527  0.00  0.00    +0.006 A 
ATOM     27 BR   UNL     1     -12.069  -6.144  -5.159  0.00  0.00    -0.050 Br
ENDBRANCH  19  21
ENDBRANCH  17  19
ENDBRANCH   5  15
BRANCH   1  28
ATOM     28  C   UNL     1      -1.351  -0.706   0.137  0.00  0.00    +0.072 C 
ATOM     29  C   UNL     1      -2.000  -0.392   1.486  0.00  0.00    +0.017 C 
BRANCH  28  31
ATOM     30  C   UNL     1       0.122   1.309   0.258  0.00  0.00    +0.004 C 
ATOM     31  C   UNL     1       0.099  -0.216   0.142  0.00  0.00    +0.009 C 
ENDBRANCH  28  31
ENDBRANCH   1  28
TORSDOF 5
