REMARK  Name = ZINC64110489
REMARK  4 active torsions:
REMARK  status: ('A' for Active; 'I' for Inactive)
REMARK    1  A    between atoms: C_16  and  C_17
REMARK    2  A    between atoms: C_17  and  N_18
REMARK    3  A    between atoms: C_19  and  C_21
REMARK    4  A    between atoms: C_21  and  C_22
REMARK                            x       y       z     vdW  Elec       q    Type
REMARK                         _______ _______ _______ _____ _____    ______ ____
ROOT
ATOM      1  C   UNL     1      -0.017   1.397   0.010  0.00  0.00    +0.007 A 
ATOM      2  C   UNL     1       1.109   2.143   0.003  0.00  0.00    +0.026 A 
ATOM      3  C   UNL     1       2.385   1.516  -0.012  0.00  0.00    +0.043 A 
ATOM      4  N   UNL     1       3.601   2.007  -0.025  0.00  0.00    -0.378 N 
ATOM      5  C   UNL     1       4.553   0.886  -0.007  0.00  0.00    +0.106 C 
ATOM      6  C   UNL     1       5.185   0.858   1.431  0.00  0.00    +0.029 C 
ATOM      7  C   UNL     1       5.866  -0.517   1.604  0.00  0.00    +0.002 C 
ATOM      8  C   UNL     1       5.029  -1.516   2.336  0.00  0.00    +0.000 C 
ATOM      9  C   UNL     1       3.546  -1.601   2.161  0.00  0.00    +0.000 C 
ATOM     10  C   UNL     1       3.240  -2.515   0.910  0.00  0.00    +0.004 C 
ATOM     11  C   UNL     1       4.215  -1.787  -0.095  0.00  0.00    +0.033 C 
ATOM     12  C   UNL     1       3.725  -0.361  -0.048  0.00  0.00    -0.038 C 
ATOM     13  C   UNL     1       2.432   0.036  -0.027  0.00  0.00    -0.001 A 
ATOM     14  C   UNL     1       1.162  -0.699  -0.016  0.00  0.00    +0.015 A 
ATOM     15  C   UNL     1       0.002  -0.004   0.002  0.00  0.00    -0.030 A 
ATOM     16  H   UNL     1       3.833   2.949  -0.043  0.00  0.00    +0.160 HD
ENDROOT
BRANCH  15  17
ATOM     17  C   UNL     1      -1.304  -0.756   0.015  0.00  0.00    +0.139 C 
BRANCH  17  18
ATOM     18  N   UNL     1      -1.745  -0.992  -1.362  0.00  0.00    -0.311 N 
ATOM     19  C   UNL     1      -2.896  -1.652  -1.597  0.00  0.00    +0.215 C 
ATOM     20  O   UNL     1      -3.568  -2.050  -0.669  0.00  0.00    -0.276 OA
ATOM     21  H   UNL     1      -1.208  -0.674  -2.105  0.00  0.00    +0.149 HD
BRANCH  19  22
ATOM     22  C   UNL     1      -3.350  -1.895  -3.014  0.00  0.00    +0.118 C 
BRANCH  22  23
ATOM     23  C   UNL     1      -4.676  -2.658  -3.001  0.00  0.00    +0.082 C 
ATOM     24  C   UNL     1      -5.110  -3.000  -4.443  0.00  0.00    +0.032 C 
ATOM     25  C   UNL     1      -6.030  -1.805  -4.787  0.00  0.00    +0.097 C 
ATOM     26  C   UNL     1      -6.517  -1.313  -3.442  0.00  0.00    +0.213 C 
ATOM     27  O   UNL     1      -7.467  -0.578  -3.274  0.00  0.00    -0.276 OA
ATOM     28  N   UNL     1      -5.745  -1.811  -2.458  0.00  0.00    -0.312 N 
ATOM     29  H   UNL     1      -5.876  -1.633  -1.514  0.00  0.00    +0.149 HD
ENDBRANCH  22  23
ENDBRANCH  19  22
ENDBRANCH  17  18
ENDBRANCH  15  17
TORSDOF 4
