REMARK  Name = ZINC65042660
REMARK  3 active torsions:
REMARK  status: ('A' for Active; 'I' for Inactive)
REMARK    1  A    between atoms: C_6  and  C_10
REMARK    2  A    between atoms: C_10  and  S_11
REMARK    3  A    between atoms: S_11  and  C_12
REMARK                            x       y       z     vdW  Elec       q    Type
REMARK                         _______ _______ _______ _____ _____    ______ ____
ROOT
ATOM      1  C   UNL     1       3.502  -3.021  -4.082  0.00  0.00    +0.218 C 
ATOM      2  N   UNL     1       2.926  -4.376  -3.916  0.00  0.00    -0.225 NA
ATOM      3  N   UNL     1       4.055  -5.279  -3.636  0.00  0.00    -0.225 NA
ATOM      4  C   UNL     1       5.080  -4.371  -3.079  0.00  0.00    +0.222 C 
ATOM      5  N   UNL     1       4.969  -3.191  -3.984  0.00  0.00    -0.278 N 
ATOM      6  C   UNL     1       6.177  -2.689  -4.469  0.00  0.00    +0.047 A 
ATOM      7  C   UNL     1       6.375  -1.414  -5.026  0.00  0.00    +0.024 A 
ATOM      8  C   UNL     1       7.597  -1.044  -5.539  0.00  0.00    +0.002 A 
ATOM      9  C   UNL     1       8.671  -1.915  -5.524  0.00  0.00    +0.001 A 
ATOM     10  C   UNL     1       8.514  -3.167  -4.953  0.00  0.00    +0.016 A 
ATOM     11  C   UNL     1       7.300  -3.523  -4.413  0.00  0.00    +0.032 A 
ATOM     12  S   UNL     1       6.768  -4.966  -3.459  0.00  0.00    -0.084 S 
ATOM     13  H   UNL     1       2.254  -4.394  -3.165  0.00  0.00    +0.143 HD
ATOM     14  H   UNL     1       3.794  -5.986  -2.964  0.00  0.00    +0.143 HD
ENDROOT
BRANCH   1  15
ATOM     15  S   UNL     1       2.908  -1.923  -2.766  0.00  0.00    -0.118 S 
BRANCH  15  16
ATOM     16  C   UNL     1       1.237  -1.460  -3.300  0.00  0.00    +0.119 C 
BRANCH  16  22
ATOM     17  C   UNL     1       2.960   1.475   1.155  0.00  0.00    +0.002 A 
ATOM     18  C   UNL     1       2.397   0.397   1.861  0.00  0.00    +0.002 A 
ATOM     19  C   UNL     1       1.595  -0.515   1.277  0.00  0.00    +0.027 A 
ATOM     20  C   UNL     1       1.284  -0.395  -0.154  0.00  0.00    +0.060 A 
ATOM     21  N   UNL     1       0.558  -1.110  -0.965  0.00  0.00    -0.363 N 
ATOM     22  C   UNL     1       0.631  -0.483  -2.291  0.00  0.00    +0.184 C 
ATOM     23  N   UNL     1       1.498   0.693  -2.145  0.00  0.00    -0.363 N 
ATOM     24  C   UNL     1       1.879   0.746  -0.901  0.00  0.00    +0.060 A 
ATOM     25  C   UNL     1       2.740   1.678  -0.159  0.00  0.00    +0.027 A 
ATOM     26  H   UNL     1       0.059  -1.910  -0.735  0.00  0.00    +0.162 HD
ATOM     27  H   UNL     1       1.743   1.316  -2.847  0.00  0.00    +0.162 HD
ENDBRANCH  16  22
ENDBRANCH  15  16
ENDBRANCH   1  15
TORSDOF 3
