REMARK  Name = ZINC36740846
REMARK  7 active torsions:
REMARK  status: ('A' for Active; 'I' for Inactive)
REMARK    1  A    between atoms: C_3  and  S_25
REMARK    2  A    between atoms: C_6  and  C_7
REMARK    3  A    between atoms: C_7  and  C_8
REMARK    4  A    between atoms: C_8  and  N_9
REMARK    5  A    between atoms: C_10  and  C_12
REMARK    6  A    between atoms: C_12  and  N_13
REMARK    7  A    between atoms: S_25  and  N_28
REMARK                            x       y       z     vdW  Elec       q    Type
REMARK                         _______ _______ _______ _____ _____    ______ ____
ROOT
ATOM      1  N   UNL     1      -3.004  -1.778  -1.420  0.00  0.00    -0.314 N 
ATOM      2  C   UNL     1      -3.594  -2.117  -2.584  0.00  0.00    +0.233 C 
ATOM      3  O   UNL     1      -3.084  -1.801  -3.637  0.00  0.00    -0.274 OA
ATOM      4  H   UNL     1      -3.412  -2.031  -0.578  0.00  0.00    +0.149 HD
ENDROOT
BRANCH   1   5
ATOM      5  C   UNL     1      -1.745  -1.028  -1.429  0.00  0.00    +0.109 C 
BRANCH   5   6
ATOM      6  C   UNL     1      -1.293  -0.775   0.011  0.00  0.00    +0.054 C 
BRANCH   6  12
ATOM      7  C   UNL     1      -0.017   1.378   0.010  0.00  0.00    +0.005 A 
ATOM      8  C   UNL     1       1.171   2.086   0.002  0.00  0.00    +0.029 A 
ATOM      9  C   UNL     1       2.377   1.411  -0.013  0.00  0.00    +0.105 A 
ATOM     10  C   UNL     1       2.396   0.029  -0.020  0.00  0.00    +0.029 A 
ATOM     11  C   UNL     1       1.208  -0.679  -0.012  0.00  0.00    +0.005 A 
ATOM     12  C   UNL     1       0.002  -0.004   0.002  0.00  0.00    -0.046 A 
BRANCH   9  13
ATOM     13  S   UNL     1       3.891   2.312  -0.024  0.00  0.00    +0.056 S 
ATOM     14  O   UNL     1       4.872   1.453  -0.588  0.00  0.00    -0.153 OA
ATOM     15  O   UNL     1       3.597   3.593  -0.566  0.00  0.00    -0.153 OA
BRANCH  13  16
ATOM     16  N   UNL     1       4.327   2.556   1.555  0.00  0.00    -0.204 NA
ATOM     17  H   UNL     1       3.768   2.215   2.271  0.00  0.00    +0.144 HD
ATOM     18  H   UNL     1       5.142   3.039   1.764  0.00  0.00    +0.144 HD
ENDBRANCH  13  16
ENDBRANCH   9  13
ENDBRANCH   6  12
ENDBRANCH   5   6
ENDBRANCH   1   5
BRANCH   2  19
ATOM     19  C   UNL     1      -4.889  -2.888  -2.575  0.00  0.00    +0.221 C 
BRANCH  19  20
ATOM     20  N   UNL     1      -5.322  -3.131  -3.953  0.00  0.00    -0.290 N 
ATOM     21  C   UNL     1      -6.120  -2.225  -4.577  0.00  0.00    +0.203 A 
ATOM     22  N   UNL     1      -6.546  -2.368  -5.795  0.00  0.00    -0.237 NA
ATOM     23  C   UNL     1      -6.215  -3.451  -6.542  0.00  0.00    +0.078 A 
ATOM     24  C   UNL     1      -6.671  -3.605  -7.853  0.00  0.00    +0.029 A 
ATOM     25  C   UNL     1      -6.311  -4.721  -8.574  0.00  0.00    +0.017 A 
ATOM     26  C   UNL     1      -5.497  -5.698  -8.014  0.00  0.00    +0.019 A 
ATOM     27  C   UNL     1      -5.034  -5.569  -6.722  0.00  0.00    +0.030 A 
ATOM     28  C   UNL     1      -5.387  -4.446  -5.976  0.00  0.00    +0.066 A 
ATOM     29  C   UNL     1      -4.919  -4.252  -4.596  0.00  0.00    +0.262 A 
ATOM     30  O   UNL     1      -4.200  -5.069  -4.050  0.00  0.00    -0.267 OA
ATOM     31 BR   UNL     1      -5.020  -7.218  -9.033  0.00  0.00    -0.050 Br
ENDBRANCH  19  20
ENDBRANCH   2  19
TORSDOF 7
