REMARK  Name = ZINC24060900
REMARK  9 active torsions:
REMARK  status: ('A' for Active; 'I' for Inactive)
REMARK    1  A    between atoms: C_1  and  C_2
REMARK    2  A    between atoms: C_2  and  C_3
REMARK    3  A    between atoms: N_12  and  C_13
REMARK    4  A    between atoms: C_13  and  C_15
REMARK    5  A    between atoms: C_13  and  C_17
REMARK    6  A    between atoms: C_15  and  O_16
REMARK    7  A    between atoms: C_17  and  C_19
REMARK    8  A    between atoms: C_17  and  O_28
REMARK    9  A    between atoms: C_22  and  N_25
REMARK                            x       y       z     vdW  Elec       q    Type
REMARK                         _______ _______ _______ _____ _____    ______ ____
ROOT
ATOM      1  C   UNK A   1      -0.727   1.579   1.292  0.00  0.00    +0.130 C 
ENDROOT
BRANCH   1  11
ATOM      2  C   UNK A   0      -6.075  -0.744   1.671  0.00  0.00    -0.008 A 
ATOM      3  C   UNK A   0      -4.925  -0.071   1.512  0.00  0.00    +0.024 A 
ATOM      4  C   UNK A   0      -3.681  -0.681   1.947  0.00  0.00    +0.048 A 
ATOM      5  C   UNK A   0      -2.351  -0.182   1.880  0.00  0.00    +0.131 A 
ATOM      6  N   UNK A   0      -1.358  -0.927   2.337  0.00  0.00    -0.220 NA
ATOM      7  C   UNK A   0      -1.558  -2.128   2.851  0.00  0.00    +0.224 A 
ATOM      8  N   UNK A   0      -2.768  -2.647   2.934  0.00  0.00    -0.228 NA
ATOM      9  C   UNK A   0      -3.815  -1.973   2.502  0.00  0.00    +0.113 A 
ATOM     10  S   UNK A   0      -5.560  -2.277   2.423  0.00  0.00    -0.074 S 
ATOM     11  N   UNK A   1      -2.099   1.071   1.350  0.00  0.00    -0.321 N 
ATOM     12  H   UNK A   1      -2.930   1.685   0.972  0.00  0.00    +0.148 HD
BRANCH   2  14
ATOM     13  C   UNK A   0      -7.779  -0.747  -0.130  0.00  0.00    +0.009 C 
ATOM     14  C   UNK A   0      -7.469  -0.308   1.303  0.00  0.00    +0.039 C 
ENDBRANCH   2  14
ENDBRANCH   1  11
BRANCH   1  15
ATOM     15  C   UNK A   1      -0.046   1.066   0.021  0.00  0.00    +0.181 C 
BRANCH  15  16
ATOM     16  O   UNK A   1      -0.709   1.603  -1.125  0.00  0.00    -0.393 OA
ATOM     17  H   UNK A   1      -0.359   1.344  -2.135  0.00  0.00    +0.209 HD
ENDBRANCH  15  16
ENDBRANCH   1  15
BRANCH   1  18
ATOM     18  C   UNK A   1      -0.750   3.109   1.275  0.00  0.00    +0.167 C 
BRANCH  18  19
ATOM     19  C   UNK A   1      -1.353   3.616   2.560  0.00  0.00    -0.017 A 
ATOM     20  C   UNK A   1      -0.561   3.767   3.683  0.00  0.00    +0.008 A 
ATOM     21  C   UNK A   1      -1.114   4.236   4.860  0.00  0.00    +0.033 A 
ATOM     22  C   UNK A   1      -2.460   4.546   4.916  0.00  0.00    +0.126 A 
ATOM     23  C   UNK A   1      -3.253   4.390   3.795  0.00  0.00    +0.033 A 
ATOM     24  C   UNK A   1      -2.699   3.925   2.616  0.00  0.00    +0.008 A 
BRANCH  22  25
ATOM     25  N   UNK A   1      -3.053   5.043   6.178  0.00  0.00    +0.056 N 
ATOM     26  O   UNK A   1      -4.239   5.315   6.228  0.00  0.00    -0.126 OA
ATOM     27  O   UNK A   1      -2.354   5.180   7.167  0.00  0.00    -0.126 OA
ENDBRANCH  22  25
ENDBRANCH  18  19
BRANCH  18  28
ATOM     28  O   UNK A   1       0.585   3.604   1.148  0.00  0.00    -0.385 OA
ATOM     29  H   UNK A   1       0.769   4.688   1.118  0.00  0.00    +0.210 HD
ENDBRANCH  18  28
ENDBRANCH   1  18
TORSDOF 8
