REMARK  Name = ZINC03388942
REMARK  9 active torsions:
REMARK  status: ('A' for Active; 'I' for Inactive)
REMARK    1  A    between atoms: C_1  and  C_2
REMARK    2  A    between atoms: C_2  and  N_3
REMARK    3  A    between atoms: N_3  and  C_4
REMARK    4  A    between atoms: C_4  and  C_5
REMARK    5  A    between atoms: N_7  and  C_8
REMARK    6  A    between atoms: C_8  and  C_9
REMARK    7  A    between atoms: C_8  and  C_10
REMARK    8  A    between atoms: C_8  and  C_11
REMARK    9  A    between atoms: C_22  and  C_26
REMARK                            x       y       z     vdW  Elec       q    Type
REMARK                         _______ _______ _______ _____ _____    ______ ____
ROOT
ATOM      1  N   UNL     1       3.562  -0.892  -0.058  0.00  0.00    -0.306 N 
ATOM      2  C   UNL     1       2.433  -0.099  -0.152  0.00  0.00    +0.133 A 
ATOM      3  C   UNL     1       2.142   0.863   0.855  0.00  0.00    +0.051 A 
ATOM      4  C   UNL     1       2.898   1.176   2.069  0.00  0.00    -0.025 A 
ATOM      5  C   UNL     1       2.401   2.143   2.867  0.00  0.00    -0.004 A 
ATOM      6  S   UNL     1       0.917   2.688   2.064  0.00  0.00    -0.073 S 
ATOM      7  C   UNL     1       0.966   1.614   0.653  0.00  0.00    +0.114 A 
ATOM      8  N   UNL     1       0.200   1.424  -0.403  0.00  0.00    -0.228 NA
ATOM      9  C   UNL     1       0.521   0.516  -1.304  0.00  0.00    +0.224 A 
ATOM     10  N   UNL     1       1.609  -0.224  -1.180  0.00  0.00    -0.220 NA
ATOM     11  C   UNL     1       2.981   2.644   4.154  0.00  0.00    +0.046 C 
ATOM     12  C   UNL     1       4.431   2.153   4.257  0.00  0.00    -0.009 C 
ATOM     13  C   UNL     1       4.468   0.658   3.924  0.00  0.00    +0.008 C 
ATOM     14  C   UNL     1       4.191   0.452   2.434  0.00  0.00    +0.037 C 
ATOM     15  C   UNL     1       4.949   2.374   5.679  0.00  0.00    +0.008 C 
ENDROOT
BRANCH   1  17
ATOM     16  C   UNL     1       5.183   0.617  -1.104  0.00  0.00    +0.024 C 
ATOM     17  C   UNL     1       4.432  -0.710  -1.228  0.00  0.00    +0.104 C 
ENDBRANCH   1  17
BRANCH   1  18
ATOM     18  C   UNL     1       3.200  -2.305   0.114  0.00  0.00    +0.202 C 
BRANCH  18  19
ATOM     19  C   UNL     1       4.398  -3.074   0.608  0.00  0.00    +0.231 C 
ATOM     20  O   UNL     1       5.465  -2.513   0.744  0.00  0.00    -0.274 OA
ATOM     21  N   UNL     1       4.285  -4.385   0.900  0.00  0.00    -0.309 N 
ATOM     22  H   UNL     1       3.431  -4.833   0.791  0.00  0.00    +0.149 HD
BRANCH  21  23
ATOM     23  C   UNL     1       5.449  -5.132   1.381  0.00  0.00    +0.026 C 
ATOM     24  C   UNL     1       5.955  -4.507   2.682  0.00  0.00    +0.031 C 
ATOM     25  C   UNL     1       5.052  -6.588   1.635  0.00  0.00    +0.031 C 
ATOM     26  C   UNL     1       6.558  -5.082   0.327  0.00  0.00    +0.031 C 
ENDBRANCH  21  23
ENDBRANCH  18  19
ENDBRANCH   1  18
TORSDOF 4
