REMARK  Name = ZINC01155721
REMARK  11 active torsions:
REMARK  status: ('A' for Active; 'I' for Inactive)
REMARK    1  A    between atoms: C_1  and  C_2
REMARK    2  A    between atoms: C_5  and  C_26
REMARK    3  A    between atoms: C_6  and  O_8
REMARK    4  A    between atoms: O_8  and  C_9
REMARK    5  A    between atoms: C_9  and  C_10
REMARK    6  A    between atoms: C_10  and  C_12
REMARK    7  A    between atoms: C_10  and  O_25
REMARK    8  A    between atoms: C_12  and  N_59
REMARK    9  A    between atoms: N_15  and  C_18
REMARK   10  A    between atoms: C_26  and  C_27
REMARK   11  A    between atoms: C_26  and  C_28
REMARK                            x       y       z     vdW  Elec       q    Type
REMARK                         _______ _______ _______ _____ _____    ______ ____
ROOT
ATOM      1  C   UNL     1      -3.574  -0.889   0.033  0.00  0.00    +0.135 C 
ENDROOT
BRANCH   1   2
ATOM      2  O   UNL     1      -3.582  -1.638   1.250  0.00  0.00    -0.390 OA
ATOM      3  H   UNL     1      -3.645  -1.093   2.046  0.00  0.00    +0.210 HD
ENDBRANCH   1   2
BRANCH   1   4
ATOM      4  C   UNL     1      -2.374   0.060   0.026  0.00  0.00    +0.258 C 
BRANCH   4   5
ATOM      5  O   UNL     1      -1.165  -0.701   0.010  0.00  0.00    -0.489 OA
BRANCH   5  11
ATOM      6  C   UNL     1       1.151   3.596   0.010  0.00  0.00    +0.044 C 
ATOM      7  C   UNL     1       1.171   2.089   0.002  0.00  0.00    -0.047 A 
ATOM      8  C   UNL     1       2.377   1.414  -0.013  0.00  0.00    +0.004 A 
ATOM      9  C   UNL     1       2.399   0.032  -0.021  0.00  0.00    +0.008 A 
ATOM     10  C   UNL     1       1.214  -0.679  -0.013  0.00  0.00    -0.003 A 
ATOM     11  C   UNL     1       0.002  -0.004   0.002  0.00  0.00    +0.124 A 
ATOM     12  C   UNL     1      -0.017   1.383   0.010  0.00  0.00    +0.049 A 
BRANCH  10  13
ATOM     13  C   UNL     1       1.238  -2.186  -0.021  0.00  0.00    +0.016 C 
ATOM     14  C   UNL     1       1.955  -2.678  -1.280  0.00  0.00    +0.012 C 
ATOM     15  C   UNL     1       1.979  -2.690   1.219  0.00  0.00    +0.012 C 
ENDBRANCH  10  13
ENDBRANCH   5  11
ENDBRANCH   4   5
ENDBRANCH   1   4
BRANCH   1  16
ATOM     16  C   UNL     1      -4.867  -0.079  -0.076  0.00  0.00    -0.044 C 
BRANCH  16  22
ATOM     17  C   UNL     1      -6.033  -1.829  -1.276  0.00  0.00    -0.060 C 
ATOM     18  C   UNL     1      -7.200  -2.817  -1.193  0.00  0.00    +0.086 C 
ATOM     19  N   UNL     1      -8.460  -2.073  -1.057  0.00  0.00    -0.333 N 
ATOM     20  C   UNL     1      -8.445  -1.234   0.149  0.00  0.00    +0.086 C 
ATOM     21  C   UNL     1      -7.279  -0.246   0.067  0.00  0.00    -0.060 C 
ATOM     22  N   UNL     1      -6.017  -1.008  -0.047  0.00  0.00    +0.383 N 
ATOM     23  H   UNL     1      -5.926  -1.627   0.767  0.00  0.00    -0.082 HD
BRANCH  19  24
ATOM     24  C   UNL     1      -9.555  -2.939  -1.051  0.00  0.00    +0.031 A 
ATOM     25  C   UNL     1     -10.447  -2.927   0.014  0.00  0.00    +0.023 A 
ATOM     26  C   UNL     1     -11.531  -3.781   0.016  0.00  0.00    +0.003 A 
ATOM     27  C   UNL     1     -11.725  -4.657  -1.037  0.00  0.00    +0.020 A 
ATOM     28  C   UNL     1     -10.836  -4.676  -2.098  0.00  0.00    +0.043 A 
ATOM     29  C   UNL     1      -9.752  -3.820  -2.107  0.00  0.00    +0.043 A 
ATOM     30 CL   UNL     1     -11.084  -5.777  -3.417  0.00  0.00    -0.083 Cl
ENDBRANCH  19  24
ENDBRANCH  16  22
ENDBRANCH   1  16
TORSDOF 8
