REMARK  Name = ZINC44764677
REMARK  3 active torsions:
REMARK  status: ('A' for Active; 'I' for Inactive)
REMARK    1  A    between atoms: C_6  and  C_7
REMARK    2  A    between atoms: C_6  and  C_9
REMARK    3  A    between atoms: N_11  and  C_12
REMARK                            x       y       z     vdW  Elec       q    Type
REMARK                         _______ _______ _______ _____ _____    ______ ____
ROOT
ATOM      1  C   UNL     1      -1.410  -0.527  -0.065  0.00  0.00    +0.234 C 
ATOM      2  O   UNL     1      -2.342   0.248  -0.103  0.00  0.00    -0.274 OA
ATOM      3  N   UNL     1      -1.636  -1.855  -0.084  0.00  0.00    -0.308 N 
ATOM      4  H   UNL     1      -0.890  -2.475  -0.054  0.00  0.00    +0.149 HD
ENDROOT
BRANCH   3   5
ATOM      5  C   UNL     1      -3.008  -2.364  -0.149  0.00  0.00    +0.035 C 
ATOM      6  C   UNL     1      -3.793  -1.872   1.069  0.00  0.00    +0.029 C 
ATOM      7  C   UNL     1      -5.226  -2.403   1.000  0.00  0.00    -0.008 C 
ATOM      8  C   UNL     1      -5.204  -3.933   0.992  0.00  0.00    +0.007 C 
ATOM      9  C   UNL     1      -4.419  -4.425  -0.226  0.00  0.00    -0.008 C 
ATOM     10  C   UNL     1      -2.986  -3.894  -0.158  0.00  0.00    +0.029 C 
ATOM     11  C   UNL     1      -5.090  -3.918  -1.504  0.00  0.00    +0.007 C 
ATOM     12  C   UNL     1      -5.113  -2.388  -1.496  0.00  0.00    -0.008 C 
ATOM     13  C   UNL     1      -5.898  -1.896  -0.278  0.00  0.00    +0.007 C 
ATOM     14  C   UNL     1      -3.680  -1.857  -1.427  0.00  0.00    +0.029 C 
ENDBRANCH   3   5
BRANCH   1  20
ATOM     15  C   UNL     1      -0.019   1.528   0.010  0.00  0.00    +0.059 C 
ATOM     16  C   UNL     1       1.420   2.050  -0.001  0.00  0.00    +0.162 C 
ATOM     17  O   UNL     1       2.102   1.539  -1.148  0.00  0.00    -0.380 OA
ATOM     18  C   UNL     1       2.194   0.114  -1.186  0.00  0.00    +0.162 C 
ATOM     19  C   UNL     1       0.786  -0.486  -1.222  0.00  0.00    +0.059 C 
ATOM     20  C   UNL     1       0.002  -0.004   0.002  0.00  0.00    +0.137 C 
BRANCH  20  21
ATOM     21  C   UNL     1       0.653  -0.494   1.228  0.00  0.00    +0.079 C 
ATOM     22  N   UNL     1       1.155  -0.873   2.174  0.00  0.00    -0.195 NA
ENDBRANCH  20  21
ENDBRANCH   1  20
TORSDOF 3
