REMARK  Name = ZINC39988955
REMARK  4 active torsions:
REMARK  status: ('A' for Active; 'I' for Inactive)
REMARK    1  A    between atoms: C_4  and  C_7
REMARK    2  A    between atoms: C_17  and  C_19
REMARK    3  A    between atoms: C_22  and  C_25
REMARK    4  A    between atoms: C_32  and  C_34
REMARK                            x       y       z     vdW  Elec       q    Type
REMARK                         _______ _______ _______ _____ _____    ______ ____
ROOT
ATOM      1  C   UNL     1       3.648  -0.649  -0.037  0.00  0.00    -0.014 C 
ATOM      2  C   UNL     1       4.861   0.036  -0.144  0.00  0.00    +0.002 A 
ATOM      3  C   UNL     1       4.888   1.444  -0.239  0.00  0.00    +0.030 A 
ATOM      4  C   UNL     1       6.083   2.086  -0.342  0.00  0.00    +0.042 A 
ATOM      5  C   UNL     1       7.286   1.381  -0.355  0.00  0.00    +0.022 A 
ATOM      6  C   UNL     1       7.323   0.023  -0.268  0.00  0.00    +0.025 A 
ATOM      7  C   UNL     1       6.126  -0.707  -0.158  0.00  0.00    +0.041 A 
ATOM      8  N   UNL     1       6.165  -2.041  -0.071  0.00  0.00    -0.284 N 
ATOM      9  C   UNL     1       5.089  -2.796   0.033  0.00  0.00    +0.230 C 
ATOM     10  O   UNL     1       5.200  -4.006   0.108  0.00  0.00    -0.274 OA
ATOM     11  C   UNL     1       3.718  -2.161   0.066  0.00  0.00    +0.152 C 
ATOM     12 CL   UNL     1       6.111   3.818  -0.459  0.00  0.00    -0.084 Cl
ATOM     13  H   UNL     1       7.032  -2.477  -0.085  0.00  0.00    +0.155 HD
ENDROOT
BRANCH  11  14
ATOM     14  C   UNL     1       2.917  -2.740  -1.071  0.00  0.00    +0.055 C 
ATOM     15  N   UNL     1       2.381  -2.066  -2.004  0.00  0.00    -0.184 NA
ATOM     16  N   UNL     1       1.690  -2.829  -2.944  0.00  0.00    -0.179 N 
ATOM     17  C   UNL     1       1.790  -4.248  -2.565  0.00  0.00    +0.140 C 
ATOM     18  C   UNL     1       2.638  -4.212  -1.278  0.00  0.00    +0.083 C 
ATOM     19  C   UNL     1       1.039  -2.348  -4.022  0.00  0.00    +0.302 C 
ATOM     20  O   UNL     1       0.468  -3.111  -4.779  0.00  0.00    -0.265 OA
BRANCH  17  21
ATOM     21  C   UNL     1       2.491  -5.038  -3.640  0.00  0.00    +0.010 A 
ATOM     22  C   UNL     1       3.351  -4.402  -4.515  0.00  0.00    +0.008 A 
ATOM     23  C   UNL     1       3.994  -5.127  -5.501  0.00  0.00    +0.000 A 
ATOM     24  C   UNL     1       3.779  -6.488  -5.613  0.00  0.00    +0.003 A 
ATOM     25  C   UNL     1       2.920  -7.126  -4.739  0.00  0.00    +0.039 A 
ATOM     26  C   UNL     1       2.279  -6.402  -3.747  0.00  0.00    +0.128 A 
ATOM     27  F   UNL     1       1.442  -7.026  -2.889  0.00  0.00    -0.205 F 
ENDBRANCH  17  21
BRANCH  19  28
ATOM     28  C   UNL     1       1.020  -0.905  -4.282  0.00  0.00    +0.191 A 
ATOM     29  C   UNL     1       0.397  -0.287  -5.329  0.00  0.00    +0.054 A 
ATOM     30  C   UNL     1       0.636   1.089  -5.185  0.00  0.00    +0.042 A 
ATOM     31  C   UNL     1       1.385   1.248  -4.071  0.00  0.00    +0.196 A 
ATOM     32  O   UNL     1       1.609   0.045  -3.527  0.00  0.00    -0.458 OA
ENDBRANCH  19  28
ENDBRANCH  11  14
BRANCH   1  36
ATOM     33  C   UNL     1      -0.017   1.380   0.010  0.00  0.00    +0.000 A 
ATOM     34  C   UNL     1       0.905   1.649  -0.989  0.00  0.00    +0.001 A 
ATOM     35  C   UNL     1       2.112   0.987  -1.013  0.00  0.00    +0.008 A 
ATOM     36  C   UNL     1       2.408   0.038  -0.021  0.00  0.00    -0.020 A 
ATOM     37  C   UNL     1       1.466  -0.226   0.987  0.00  0.00    +0.008 A 
ATOM     38  C   UNL     1       0.265   0.446   0.994  0.00  0.00    +0.001 A 
ENDBRANCH   1  36
TORSDOF 4
