REMARK  Name = ZINC08915346
REMARK  5 active torsions:
REMARK  status: ('A' for Active; 'I' for Inactive)
REMARK    1  A    between atoms: C_4  and  C_7
REMARK    2  A    between atoms: C_7  and  C_9
REMARK    3  A    between atoms: C_11  and  C_23
REMARK    4  A    between atoms: C_14  and  O_22
REMARK    5  A    between atoms: C_16  and  C_17
REMARK                            x       y       z     vdW  Elec       q    Type
REMARK                         _______ _______ _______ _____ _____    ______ ____
ROOT
ATOM      1  C   UNL     1       3.760  -2.200   0.057  0.00  0.00    +0.149 C 
ATOM      2  C   UNL     1       5.019  -2.599   0.843  0.00  0.00    +0.120 C 
ATOM      3  N   UNL     1       6.178  -2.050   0.123  0.00  0.00    -0.293 N 
ATOM      4  C   UNL     1       6.207  -2.138  -1.247  0.00  0.00    +0.256 C 
ATOM      5  N   UNL     1       5.167  -2.461  -1.940  0.00  0.00    -0.306 N 
ATOM      6  C   UNL     1       3.868  -2.777  -1.356  0.00  0.00    +0.284 C 
ATOM      7  O   UNL     1       3.709  -4.196  -1.299  0.00  0.00    -0.194 OA
ATOM      8  H   UNL     1       6.908  -1.633   0.607  0.00  0.00    +0.151 HD
ATOM      9  H   UNL     1       5.255  -2.496  -2.906  0.00  0.00    +0.167 HD
ENDROOT
BRANCH   2  10
ATOM     10  C   UNL     1       5.123  -4.101   0.914  0.00  0.00    -0.025 A 
ATOM     11  C   UNL     1       5.623  -4.811  -0.162  0.00  0.00    +0.007 A 
ATOM     12  C   UNL     1       5.719  -6.188  -0.097  0.00  0.00    +0.022 A 
ATOM     13  C   UNL     1       5.314  -6.857   1.044  0.00  0.00    +0.059 A 
ATOM     14  C   UNL     1       4.814  -6.146   2.121  0.00  0.00    +0.060 A 
ATOM     15  C   UNL     1       4.723  -4.767   2.057  0.00  0.00    +0.027 A 
ATOM     16 CL   UNL     1       4.305  -6.984   3.554  0.00  0.00    -0.082 Cl
ATOM     17 CL   UNL     1       5.434  -8.587   1.125  0.00  0.00    -0.082 Cl
ENDBRANCH   2  10
BRANCH   6  18
ATOM     18  C   UNL     1       2.763  -2.181  -2.230  0.00  0.00    +0.441 C 
ATOM     19  F   UNL     1       2.984  -0.809  -2.390  0.00  0.00    -0.166 F 
ATOM     20  F   UNL     1       2.771  -2.804  -3.482  0.00  0.00    -0.166 F 
ATOM     21  F   UNL     1       1.522  -2.384  -1.616  0.00  0.00    -0.166 F 
ENDBRANCH   6  18
BRANCH   1  22
ATOM     22  C   UNL     1       3.662  -0.698  -0.014  0.00  0.00    +0.173 C 
ATOM     23  O   UNL     1       4.513  -0.061  -0.597  0.00  0.00    -0.292 OA
BRANCH  22  27
ATOM     24  C   UNL     1       0.406   1.304   1.826  0.00  0.00    +0.000 A 
ATOM     25  C   UNL     1       1.431   2.038   1.254  0.00  0.00    +0.001 A 
ATOM     26  C   UNL     1       2.493   1.394   0.654  0.00  0.00    +0.011 A 
ATOM     27  C   UNL     1       2.533  -0.003   0.625  0.00  0.00    +0.018 A 
ATOM     28  C   UNL     1       1.494  -0.738   1.206  0.00  0.00    +0.011 A 
ATOM     29  C   UNL     1       0.439  -0.080   1.802  0.00  0.00    +0.001 A 
ENDBRANCH  22  27
ENDBRANCH   1  22
BRANCH   4  30
ATOM     30  O   UNL     1       7.364  -1.875  -1.893  0.00  0.00    -0.483 OA
ATOM     31  H   UNL     1       7.305  -1.958  -2.854  0.00  0.00    +0.295 HD
ENDBRANCH   4  30
TORSDOF 5
