REMARK  Name = ZINC13556625
REMARK  5 active torsions:
REMARK  status: ('A' for Active; 'I' for Inactive)
REMARK    1  A    between atoms: C_1  and  C_2
REMARK    2  A    between atoms: C_6  and  C_8
REMARK    3  A    between atoms: C_13  and  C_18
REMARK    4  A    between atoms: C_13  and  C_19
REMARK    5  A    between atoms: C_25  and  O_27
REMARK                            x       y       z     vdW  Elec       q    Type
REMARK                         _______ _______ _______ _____ _____    ______ ____
ROOT
ATOM      1  C   UNL     1       0.054  -2.845   2.490  0.00  0.00    +0.058 C 
ATOM      2  C   UNL     1      -1.207  -3.714   2.565  0.00  0.00    +0.081 C 
ATOM      3  C   UNL     1      -1.042  -4.750   3.672  0.00  0.00    +0.180 C 
ATOM      4  C   UNL     1      -2.291  -5.615   3.832  0.00  0.00    +0.096 C 
ATOM      5  C   UNL     1      -3.483  -4.834   4.368  0.00  0.00    +0.040 C 
ATOM      6  N   UNL     1      -3.092  -3.781   5.296  0.00  0.00    -0.362 N 
ATOM      7  C   UNL     1      -1.807  -3.451   5.576  0.00  0.00    +0.142 C 
ATOM      8  N   UNL     1      -0.768  -4.082   4.950  0.00  0.00    -0.288 N 
ATOM      9  S   UNL     1      -1.490  -2.264   6.692  0.00  0.00    -0.016 SA
ATOM     10  C   UNL     1      -4.303  -4.247   3.218  0.00  0.00    +0.034 C 
ATOM     11  C   UNL     1      -4.390  -5.817   5.134  0.00  0.00    +0.034 C 
ATOM     12  O   UNL     1       0.059  -5.602   3.339  0.00  0.00    -0.468 OA
ATOM     13  C   UNL     1       1.230  -5.021   2.974  0.00  0.00    +0.131 A 
ATOM     14  C   UNL     1       1.292  -3.699   2.566  0.00  0.00    +0.002 A 
ATOM     15  C   UNL     1       2.517  -3.143   2.234  0.00  0.00    +0.011 A 
ATOM     16  C   UNL     1       3.668  -3.905   2.274  0.00  0.00    +0.046 A 
ATOM     17  C   UNL     1       3.605  -5.236   2.661  0.00  0.00    +0.120 A 
ATOM     18  C   UNL     1       2.387  -5.791   3.013  0.00  0.00    +0.091 A 
ATOM     19  H   UNL     1       0.119  -4.089   5.337  0.00  0.00    +0.152 HD
ATOM     20  H   UNL     1      -3.799  -3.281   5.743  0.00  0.00    +0.162 HD
ENDROOT
BRANCH   1  26
ATOM     21  C   UNL     1      -0.018   1.503   0.010  0.00  0.00    +0.044 C 
ATOM     22  C   UNL     1       0.002  -0.004   0.002  0.00  0.00    -0.050 A 
ATOM     23  C   UNL     1       0.006  -0.689  -1.199  0.00  0.00    +0.003 A 
ATOM     24  C   UNL     1       0.025  -2.071  -1.207  0.00  0.00    +0.001 A 
ATOM     25  C   UNL     1       0.040  -2.768  -0.013  0.00  0.00    +0.004 A 
ATOM     26  C   UNL     1       0.037  -2.084   1.188  0.00  0.00    -0.039 A 
ATOM     27  C   UNL     1       0.023  -0.702   1.195  0.00  0.00    +0.007 A 
ENDBRANCH   1  26
BRANCH  17  28
ATOM     28  O   UNL     1       4.734  -5.991   2.694  0.00  0.00    -0.507 OA
ATOM     29  H   UNL     1       5.196  -5.972   3.543  0.00  0.00    +0.292 HD
ENDBRANCH  17  28
TORSDOF 2
