REMARK  Name = ZINC04222457
REMARK  8 active torsions:
REMARK  status: ('A' for Active; 'I' for Inactive)
REMARK    1  A    between atoms: C_1  and  C_2
REMARK    2  A    between atoms: C_5  and  O_37
REMARK    3  A    between atoms: C_7  and  C_34
REMARK    4  A    between atoms: C_7  and  C_35
REMARK    5  A    between atoms: C_17  and  C_19
REMARK    6  A    between atoms: C_23  and  C_25
REMARK    7  A    between atoms: C_25  and  C_26
REMARK    8  A    between atoms: C_35  and  O_36
REMARK                            x       y       z     vdW  Elec       q    Type
REMARK                         _______ _______ _______ _____ _____    ______ ____
ROOT
ATOM      1  C   UNL     1      -3.934   1.237   5.179  0.00  0.00    +0.012 C 
ATOM      2  C   UNL     1      -2.754   0.294   5.423  0.00  0.00    -0.019 C 
ATOM      3  C   UNL     1      -1.555   1.084   5.957  0.00  0.00    +0.010 C 
ATOM      4  C   UNL     1      -1.891   1.714   7.306  0.00  0.00    +0.032 C 
ATOM      5  C   UNL     1      -2.227   0.599   8.301  0.00  0.00    +0.123 C 
ATOM      6  C   UNL     1      -3.453  -0.158   7.793  0.00  0.00    +0.021 C 
ATOM      7  C   UNL     1      -3.161  -0.787   6.427  0.00  0.00    +0.011 C 
ATOM      8  C   UNL     1      -4.465  -1.453   5.944  0.00  0.00    +0.049 C 
ATOM      9  C   UNL     1      -4.340  -1.770   4.496  0.00  0.00    +0.015 A 
ATOM     10  C   UNL     1      -3.409  -1.307   3.623  0.00  0.00    +0.058 A 
ATOM     11  N   UNL     1      -3.517  -1.744   2.370  0.00  0.00    -0.229 NA
ATOM     12  C   UNL     1      -4.466  -2.576   1.996  0.00  0.00    +0.165 A 
ATOM     13  S   UNL     1      -5.339  -2.824   3.479  0.00  0.00    -0.057 S 
ATOM     14  N   UNL     1      -4.708  -3.119   0.739  0.00  0.00    -0.264 N 
ATOM     15  C   UNL     1      -5.742  -3.963   0.557  0.00  0.00    +0.222 C 
ATOM     16  O   UNL     1      -6.463  -4.250   1.490  0.00  0.00    -0.275 OA
ATOM     17  C   UNL     1      -2.327  -0.349   4.096  0.00  0.00    +0.054 C 
ATOM     18  C   UNL     1      -3.816  -1.260   8.790  0.00  0.00    +0.016 C 
ATOM     19  H   UNL     1      -4.132  -2.890  -0.007  0.00  0.00    +0.157 HD
ENDROOT
BRANCH  15  20
ATOM     20  C   UNL     1      -6.004  -4.551  -0.805  0.00  0.00    +0.075 C 
ATOM     21  C   UNL     1      -6.795  -3.618  -1.737  0.00  0.00    +0.013 C 
ATOM     22  C   UNL     1      -7.560  -4.866  -2.209  0.00  0.00    +0.001 C 
ATOM     23  C   UNL     1      -7.219  -5.493  -0.847  0.00  0.00    +0.013 C 
ENDBRANCH  15  20
BRANCH   5  24
ATOM     24  O   UNL     1      -2.512   1.168   9.581  0.00  0.00    -0.391 OA
ATOM     25  H   UNL     1      -1.780   1.674   9.958  0.00  0.00    +0.210 HD
ENDBRANCH   5  24
BRANCH  17  26
ATOM     26  C   UNL     1      -2.118   0.743   3.045  0.00  0.00    +0.106 C 
BRANCH  26  27
ATOM     27  C   UNL     1      -1.514   0.137   1.805  0.00  0.00    +0.216 C 
ATOM     28  O   UNL     1      -1.276  -1.051   1.765  0.00  0.00    -0.276 OA
ATOM     29  N   UNL     1      -1.240   0.916   0.739  0.00  0.00    -0.297 N 
ATOM     30  C   UNL     1      -0.651   0.347  -0.483  0.00  0.00    +0.136 C 
ATOM     31  C   UNL     1      -1.489   0.804  -1.683  0.00  0.00    +0.179 C 
ATOM     32  O   UNL     1      -1.626   2.226  -1.647  0.00  0.00    -0.377 OA
ATOM     33  C   UNL     1      -2.318   2.719  -0.497  0.00  0.00    +0.179 C 
ATOM     34  C   UNL     1      -1.522   2.360   0.763  0.00  0.00    +0.136 C 
ENDBRANCH  26  27
ENDBRANCH  17  26
BRANCH   6  35
ATOM     35  C   UNL     1      -4.630   0.811   7.664  0.00  0.00    +0.165 C 
BRANCH  35  36
ATOM     36  O   UNL     1      -5.009   1.275   8.961  0.00  0.00    -0.394 OA
ATOM     37  H   UNL     1      -5.751   1.895   8.955  0.00  0.00    +0.209 HD
ENDBRANCH  35  36
ENDBRANCH   6  35
TORSDOF 6
