REMARK  Name = ZINC21976636
REMARK  12 active torsions:
REMARK  status: ('A' for Active; 'I' for Inactive)
REMARK    1  A    between atoms: C_1  and  C_2
REMARK    2  A    between atoms: C_2  and  O_3
REMARK    3  A    between atoms: O_3  and  C_4
REMARK    4  A    between atoms: C_4  and  C_6
REMARK    5  A    between atoms: C_7  and  C_19
REMARK    6  A    between atoms: C_12  and  C_14
REMARK    7  A    between atoms: C_19  and  O_20
REMARK    8  A    between atoms: O_20  and  C_21
REMARK    9  A    between atoms: C_21  and  C_23
REMARK   10  A    between atoms: C_26  and  N_31
REMARK   11  A    between atoms: C_28  and  O_29
REMARK   12  A    between atoms: O_29  and  C_30
REMARK                            x       y       z     vdW  Elec       q    Type
REMARK                         _______ _______ _______ _____ _____    ______ ____
ROOT
ATOM      1  C   UNL     1      -0.636   1.529  -1.252  0.00  0.00    +0.082 C 
ATOM      2  C   UNL     1      -1.749   2.291  -1.197  0.00  0.00    +0.061 C 
ATOM      3  N   UNL     1      -2.284   2.670   0.001  0.00  0.00    -0.269 N 
ATOM      4  C   UNL     1      -1.766   2.327   1.187  0.00  0.00    +0.304 C 
ATOM      5  O   UNL     1      -2.314   2.712   2.202  0.00  0.00    -0.252 OA
ATOM      6  N   UNL     1      -0.657   1.568   1.294  0.00  0.00    -0.288 N 
ATOM      7  C   UNL     1      -0.002   1.107   0.058  0.00  0.00    +0.150 C 
ATOM      8  H   UNL     1      -3.191   3.291   0.026  0.00  0.00    +0.156 HD
ATOM      9  H   UNL     1      -0.240   1.292   2.273  0.00  0.00    +0.151 HD
ENDROOT
BRANCH   7  10
ATOM     10  C   UNL     1       1.418   1.611   0.070  0.00  0.00    +0.015 A 
ATOM     11  C   UNL     1       2.559   0.956  -0.260  0.00  0.00    +0.013 A 
ATOM     12  C   UNL     1       3.765   1.625  -0.173  0.00  0.00    +0.008 A 
ATOM     13  C   UNL     1       3.772   2.917   0.238  0.00  0.00    +0.045 A 
ATOM     14  S   UNL     1       2.035   3.226   0.513  0.00  0.00    -0.099 S 
ENDBRANCH   7  10
BRANCH   1  15
ATOM     15  C   UNL     1      -0.081   1.136  -2.493  0.00  0.00    +0.339 C 
ATOM     16  O   UNL     1      -0.542   1.573  -3.531  0.00  0.00    -0.245 OA
BRANCH  15  17
ATOM     17  O   UNL     1       0.960   0.278  -2.525  0.00  0.00    -0.462 OA
BRANCH  17  19
ATOM     18  C   UNL     1       2.639  -1.048  -3.648  0.00  0.00    +0.048 C 
ATOM     19  C   UNL     1       1.471  -0.074  -3.812  0.00  0.00    +0.229 C 
ENDBRANCH  17  19
ENDBRANCH  15  17
ENDBRANCH   1  15
BRANCH   2  20
ATOM     20  C   UNL     1      -2.411   2.731  -2.477  0.00  0.00    +0.283 C 
BRANCH  20  21
ATOM     21  O   UNL     1      -3.641   3.437  -2.167  0.00  0.00    -0.455 OA
BRANCH  21  22
ATOM     22  C   UNL     1      -4.360   3.901  -3.209  0.00  0.00    +0.343 C 
ATOM     23  O   UNL     1      -3.969   3.719  -4.346  0.00  0.00    -0.245 OA
BRANCH  22  24
ATOM     24  C   UNL     1      -5.617   4.626  -2.971  0.00  0.00    +0.102 A 
ATOM     25  C   UNL     1      -6.073   4.831  -1.664  0.00  0.00    +0.040 A 
ATOM     26  C   UNL     1      -7.237   5.508  -1.443  0.00  0.00    +0.063 A 
ATOM     27  C   UNL     1      -7.986   5.991  -2.517  0.00  0.00    +0.047 A 
ATOM     28  C   UNL     1      -7.549   5.790  -3.820  0.00  0.00    +0.070 A 
ATOM     29  C   UNL     1      -6.367   5.109  -4.055  0.00  0.00    +0.136 A 
ATOM     30 CL   UNL     1      -7.793   5.765   0.181  0.00  0.00    -0.082 Cl
BRANCH  27  31
ATOM     31  N   UNL     1      -9.174   6.675  -2.282  0.00  0.00    -0.357 N 
ATOM     32  H   UNL     1      -9.765   7.056  -3.127  0.00  0.00    +0.142 HD
ATOM     33  H   UNL     1      -9.521   6.835  -1.250  0.00  0.00    +0.142 HD
ENDBRANCH  27  31
BRANCH  29  34
ATOM     34  O   UNL     1      -5.936   4.911  -5.326  0.00  0.00    -0.494 OA
ATOM     35  C   UNL     1      -6.752   5.431  -6.377  0.00  0.00    +0.277 C 
ENDBRANCH  29  34
ENDBRANCH  22  24
ENDBRANCH  21  22
ENDBRANCH  20  21
ENDBRANCH   2  20
TORSDOF 10
