REMARK  Name = ZINC04890920
REMARK  7 active torsions:
REMARK  status: ('A' for Active; 'I' for Inactive)
REMARK    1  A    between atoms: C_1  and  C_2
REMARK    2  A    between atoms: C_2  and  C_3
REMARK    3  A    between atoms: C_3  and  C_5
REMARK    4  A    between atoms: C_3  and  N_47
REMARK    5  A    between atoms: N_15  and  C_16
REMARK    6  A    between atoms: C_23  and  C_24
REMARK    7  A    between atoms: C_23  and  N_47
REMARK                            x       y       z     vdW  Elec       q    Type
REMARK                         _______ _______ _______ _____ _____    ______ ____
ROOT
ATOM      1  C   UNL     1      -1.258   4.095   3.002  0.00  0.00    +0.103 A 
ATOM      2  N   UNL     1      -1.867   3.276   3.806  0.00  0.00    -0.235 NA
ATOM      3  C   UNL     1      -1.555   3.210   5.124  0.00  0.00    +0.078 A 
ATOM      4  C   UNL     1      -2.210   2.329   5.988  0.00  0.00    +0.028 A 
ATOM      5  C   UNL     1      -1.861   2.295   7.319  0.00  0.00    +0.002 A 
ATOM      6  C   UNL     1      -0.865   3.126   7.816  0.00  0.00    +0.001 A 
ATOM      7  C   UNL     1      -0.205   4.003   6.984  0.00  0.00    +0.015 A 
ATOM      8  C   UNL     1      -0.543   4.053   5.633  0.00  0.00    +0.065 A 
ATOM      9  C   UNL     1       0.128   4.968   4.697  0.00  0.00    +0.266 A 
ATOM     10  O   UNL     1       1.009   5.721   5.071  0.00  0.00    -0.267 OA
ATOM     11  N   UNL     1      -0.269   4.938   3.404  0.00  0.00    -0.266 N 
ENDROOT
BRANCH  11  12
ATOM     12  C   UNL     1       0.342   5.786   2.470  0.00  0.00    +0.051 A 
ATOM     13  C   UNL     1      -0.073   7.106   2.355  0.00  0.00    +0.028 A 
ATOM     14  C   UNL     1       0.534   7.942   1.438  0.00  0.00    +0.022 A 
ATOM     15  C   UNL     1       1.547   7.461   0.627  0.00  0.00    +0.041 A 
ATOM     16  C   UNL     1       1.959   6.145   0.737  0.00  0.00    +0.022 A 
ATOM     17  C   UNL     1       1.359   5.306   1.656  0.00  0.00    +0.028 A 
ATOM     18 CL   UNL     1       2.303   8.512  -0.530  0.00  0.00    -0.084 Cl
ENDBRANCH  11  12
BRANCH   1  19
ATOM     19  C   UNL     1      -1.663   4.106   1.551  0.00  0.00    -0.003 C 
BRANCH  19  20
ATOM     20  N   UNL     1      -2.021   2.739   1.129  0.00  0.00    +0.390 N 
ATOM     21  H   UNL     1      -2.684   2.789   0.347  0.00  0.00    -0.084 HD
ATOM     22  H   UNL     1      -2.456   2.244   1.916  0.00  0.00    -0.084 HD
BRANCH  20  23
ATOM     23  C   UNL     1      -0.816   2.005   0.698  0.00  0.00    -0.006 C 
BRANCH  23  24
ATOM     24  C   UNL     1      -1.204   0.598   0.322  0.00  0.00    +0.088 A 
ATOM     25  C   UNL     1      -1.577   0.186  -0.903  0.00  0.00    +0.042 A 
ATOM     26  C   UNL     1      -1.849  -1.198  -0.804  0.00  0.00    +0.041 A 
ATOM     27  C   UNL     1      -1.626  -1.549   0.475  0.00  0.00    +0.195 A 
ATOM     28  O   UNL     1      -1.229  -0.458   1.151  0.00  0.00    -0.470 OA
ENDBRANCH  23  24
ENDBRANCH  20  23
ENDBRANCH  19  20
BRANCH  19  30
ATOM     29  C   UNL     1      -3.197   5.148  -0.123  0.00  0.00    +0.002 C 
ATOM     30  C   UNL     1      -2.875   5.022   1.367  0.00  0.00    -0.012 C 
ENDBRANCH  19  30
ENDBRANCH   1  19
TORSDOF 6
