REMARK  Name = ZINC34787026
REMARK  6 active torsions:
REMARK  status: ('A' for Active; 'I' for Inactive)
REMARK    1  A    between atoms: C_4  and  C_7
REMARK    2  A    between atoms: N_16  and  C_17
REMARK    3  A    between atoms: C_17  and  C_18
REMARK    4  A    between atoms: C_26  and  C_28
REMARK    5  A    between atoms: C_28  and  O_29
REMARK    6  A    between atoms: O_29  and  C_30
REMARK                            x       y       z     vdW  Elec       q    Type
REMARK                         _______ _______ _______ _____ _____    ______ ____
ROOT
ATOM      1  C   UNL     1       3.162  -2.601  -3.200  0.00  0.00    +0.199 C 
ATOM      2  O   UNL     1       3.187  -3.722  -2.737  0.00  0.00    -0.278 OA
ATOM      3  N   UNL     1       2.934  -2.420  -4.515  0.00  0.00    -0.300 N 
ATOM      4  C   UNL     1       2.908  -1.067  -5.090  0.00  0.00    +0.126 C 
ATOM      5  C   UNL     1       3.917  -1.005  -6.243  0.00  0.00    +0.127 C 
ATOM      6  N   UNL     1       3.691  -2.156  -7.128  0.00  0.00    -0.296 N 
ATOM      7  C   UNL     1       3.717  -3.508  -6.553  0.00  0.00    +0.127 C 
ATOM      8  C   UNL     1       2.713  -3.571  -5.402  0.00  0.00    +0.126 C 
ATOM      9  C   UNL     1       3.462  -1.974  -8.444  0.00  0.00    +0.253 C 
ATOM     10  O   UNL     1       3.442  -0.854  -8.907  0.00  0.00    -0.272 OA
ENDROOT
BRANCH   1  11
ATOM     11  C   UNL     1       3.387  -1.411  -2.303  0.00  0.00    +0.020 C 
BRANCH  11  20
ATOM     12  C   UNL     1       3.711  -0.707  -0.038  0.00  0.00    -0.005 C 
ATOM     13  C   UNL     1       4.047  -1.188   1.371  0.00  0.00    -0.047 A 
ATOM     14  C   UNL     1       3.840  -0.433   2.522  0.00  0.00    +0.010 A 
ATOM     15  C   UNL     1       4.166  -0.943   3.733  0.00  0.00    +0.045 A 
ATOM     16  S   UNL     1       4.799  -2.556   3.297  0.00  0.00    -0.101 S 
ATOM     17  C   UNL     1       4.584  -2.429   1.545  0.00  0.00    -0.010 A 
ATOM     18  C   UNL     1       4.902  -3.416   0.470  0.00  0.00    +0.024 C 
ATOM     19  C   UNL     1       4.843  -2.672  -0.875  0.00  0.00    -0.072 C 
ATOM     20  N   UNL     1       3.612  -1.871  -0.926  0.00  0.00    +0.393 N 
ATOM     21  H   UNL     1       2.833  -2.444  -0.637  0.00  0.00    -0.080 HD
BRANCH  12  25
ATOM     22  C   UNL     1      -0.017   1.378   0.010  0.00  0.00    +0.000 A 
ATOM     23  C   UNL     1       1.171   2.086   0.002  0.00  0.00    +0.000 A 
ATOM     24  C   UNL     1       2.377   1.411  -0.013  0.00  0.00    +0.002 A 
ATOM     25  C   UNL     1       2.396   0.029  -0.020  0.00  0.00    -0.057 A 
ATOM     26  C   UNL     1       1.208  -0.679  -0.012  0.00  0.00    +0.002 A 
ATOM     27  C   UNL     1       0.002  -0.004   0.002  0.00  0.00    +0.000 A 
ENDBRANCH  12  25
ENDBRANCH  11  20
ENDBRANCH   1  11
BRANCH   9  28
ATOM     28  C   UNL     1       3.232  -3.164  -9.340  0.00  0.00    +0.324 C 
BRANCH  28  29
ATOM     29  O   UNL     1       3.014  -2.716 -10.680  0.00  0.00    -0.483 OA
BRANCH  29  30
ATOM     30  C   UNL     1       2.789  -3.671 -11.620  0.00  0.00    +0.121 A 
ATOM     31  C   UNL     1       2.772  -5.011 -11.260  0.00  0.00    +0.045 A 
ATOM     32  C   UNL     1       2.542  -5.979 -12.218  0.00  0.00    +0.004 A 
ATOM     33  C   UNL     1       2.330  -5.614 -13.535  0.00  0.00    +0.000 A 
ATOM     34  C   UNL     1       2.347  -4.280 -13.896  0.00  0.00    +0.004 A 
ATOM     35  C   UNL     1       2.570  -3.307 -12.941  0.00  0.00    +0.045 A 
ENDBRANCH  29  30
ENDBRANCH  28  29
ENDBRANCH   9  28
TORSDOF 6
