REMARK  Name = ZINC09150191
REMARK  8 active torsions:
REMARK  status: ('A' for Active; 'I' for Inactive)
REMARK    1  A    between atoms: C_1  and  C_2
REMARK    2  A    between atoms: C_4  and  C_27
REMARK    3  A    between atoms: N_10  and  C_11
REMARK    4  A    between atoms: C_11  and  C_13
REMARK    5  A    between atoms: C_13  and  C_14
REMARK    6  A    between atoms: C_14  and  S_15
REMARK    7  A    between atoms: S_15  and  C_18
REMARK    8  A    between atoms: N_25  and  C_26
REMARK                            x       y       z     vdW  Elec       q    Type
REMARK                         _______ _______ _______ _____ _____    ______ ____
ROOT
ATOM      1  C   UNL     1       6.244  -1.616  -3.348  0.00  0.00    +0.240 C 
ATOM      2  O   UNL     1       6.280  -0.474  -3.765  0.00  0.00    -0.274 OA
ENDROOT
BRANCH   1  12
ATOM      3  C   UNL     1       8.561  -4.339 -11.050  0.00  0.00    +0.044 C 
ATOM      4  C   UNL     1       8.020  -3.819  -9.743  0.00  0.00    -0.049 A 
ATOM      5  C   UNL     1       6.854  -3.074  -9.714  0.00  0.00    +0.008 A 
ATOM      6  C   UNL     1       6.345  -2.591  -8.532  0.00  0.00    -0.026 A 
ATOM      7  C   UNL     1       6.997  -2.842  -7.314  0.00  0.00    +0.060 A 
ATOM      8  C   UNL     1       8.176  -3.599  -7.374  0.00  0.00    +0.039 A 
ATOM      9  C   UNL     1       8.684  -4.081  -8.557  0.00  0.00    +0.020 A 
ATOM     10  S   UNL     1       8.690  -3.688  -5.677  0.00  0.00    -0.052 S 
ATOM     11  C   UNL     1       7.393  -2.777  -4.973  0.00  0.00    +0.166 A 
ATOM     12  N   UNL     1       7.195  -2.479  -3.690  0.00  0.00    -0.156 NA
ATOM     13  N   UNL     1       6.629  -2.437  -6.045  0.00  0.00    -0.324 N 
ATOM     14  C   UNL     1       5.415  -1.640  -5.854  0.00  0.00    +0.151 C 
ATOM     15  C   UNL     1       5.072  -1.785  -8.542  0.00  0.00    +0.046 C 
ENDBRANCH   1  12
BRANCH   1  16
ATOM     16  C   UNL     1       5.121  -2.053  -2.443  0.00  0.00    +0.121 C 
BRANCH  16  17
ATOM     17  C   UNL     1       4.169  -0.878  -2.208  0.00  0.00    +0.181 C 
BRANCH  17  18
ATOM     18  S   UNL     1       2.818  -1.403  -1.118  0.00  0.00    -0.003 S 
ATOM     19  O   UNL     1       3.315  -1.669   0.186  0.00  0.00    -0.169 OA
ATOM     20  O   UNL     1       1.991  -2.348  -1.784  0.00  0.00    -0.169 OA
BRANCH  18  21
ATOM     21  C   UNL     1       1.806   0.027  -0.930  0.00  0.00    +0.088 A 
ATOM     22  C   UNL     1       0.766   0.259  -1.812  0.00  0.00    +0.028 A 
ATOM     23  C   UNL     1      -0.027   1.381  -1.666  0.00  0.00    +0.022 A 
ATOM     24  C   UNL     1       0.218   2.272  -0.636  0.00  0.00    +0.041 A 
ATOM     25  C   UNL     1       1.258   2.039   0.246  0.00  0.00    +0.022 A 
ATOM     26  C   UNL     1       2.051   0.917   0.099  0.00  0.00    +0.028 A 
ATOM     27 CL   UNL     1      -0.774   3.685  -0.456  0.00  0.00    -0.084 Cl
ENDBRANCH  18  21
ENDBRANCH  17  18
ENDBRANCH  16  17
ENDBRANCH   1  16
TORSDOF 5
