REMARK  Name = ZINC59170880
REMARK  3 active torsions:
REMARK  status: ('A' for Active; 'I' for Inactive)
REMARK    1  A    between atoms: C_5  and  N_7
REMARK    2  A    between atoms: C_9  and  C_20
REMARK    3  A    between atoms: C_20  and  N_22
REMARK                            x       y       z     vdW  Elec       q    Type
REMARK                         _______ _______ _______ _____ _____    ______ ____
ROOT
ATOM      1  N   UNL     1       1.407  -2.140   0.419  0.00  0.00    -0.324 N 
ATOM      2  C   UNL     1       0.239  -2.733   0.308  0.00  0.00    +0.209 A 
ATOM      3  C   UNL     1       0.139  -4.203   0.196  0.00  0.00    +0.064 A 
ATOM      4  C   UNL     1      -1.037  -4.792   0.642  0.00  0.00    +0.027 A 
ATOM      5  C   UNL     1      -2.071  -3.906   1.184  0.00  0.00    +0.020 A 
ATOM      6  C   UNL     1      -3.160  -4.427   1.893  0.00  0.00    +0.027 A 
ATOM      7  C   UNL     1      -4.117  -3.572   2.395  0.00  0.00    +0.020 A 
ATOM      8  C   UNL     1      -4.005  -2.202   2.202  0.00  0.00    +0.034 A 
ATOM      9  C   UNL     1      -2.936  -1.674   1.504  0.00  0.00    +0.062 A 
ATOM     10  C   UNL     1      -1.962  -2.517   0.987  0.00  0.00    +0.151 A 
ATOM     11  O   UNL     1      -0.912  -2.014   0.298  0.00  0.00    -0.438 OA
ATOM     12 BR   UNL     1      -2.801   0.195   1.252  0.00  0.00    -0.046 Br
ATOM     13 BR   UNL     1      -5.590  -4.269   3.353  0.00  0.00    -0.050 Br
ATOM     14  H   UNL     1       2.213  -2.671   0.520  0.00  0.00    +0.169 HD
ENDROOT
BRANCH   1  19
ATOM     15  C   UNL     1       0.968   1.320  -0.660  0.00  0.00    +0.002 A 
ATOM     16  C   UNL     1       1.648   1.990   0.342  0.00  0.00    +0.002 A 
ATOM     17  C   UNL     1       2.249   1.285   1.370  0.00  0.00    +0.022 A 
ATOM     18  C   UNL     1       2.173  -0.093   1.403  0.00  0.00    +0.064 A 
ATOM     19  C   UNL     1       1.487  -0.775   0.394  0.00  0.00    +0.060 A 
ATOM     20  C   UNL     1       0.884  -0.056  -0.640  0.00  0.00    +0.027 A 
ATOM     21 CL   UNL     1       2.928  -0.976   2.693  0.00  0.00    -0.081 Cl
ENDBRANCH   1  19
BRANCH   3  22
ATOM     22  C   UNL     1       1.236  -5.007  -0.364  0.00  0.00    +0.082 C 
ATOM     23  S   UNL     1       2.600  -4.233  -1.051  0.00  0.00    -0.035 S 
BRANCH  22  24
ATOM     24  N   UNL     1       1.168  -6.352  -0.336  0.00  0.00    -0.352 N 
ATOM     25  H   UNL     1       0.395  -6.791   0.054  0.00  0.00    +0.143 HD
ATOM     26  H   UNL     1       1.891  -6.883  -0.705  0.00  0.00    +0.143 HD
ENDBRANCH  22  24
ENDBRANCH   3  22
TORSDOF 3
