REMARK  Name = ZINC39968568
REMARK  11 active torsions:
REMARK  status: ('A' for Active; 'I' for Inactive)
REMARK    1  A    between atoms: C_1  and  C_2
REMARK    2  A    between atoms: C_2  and  C_3
REMARK    3  A    between atoms: C_3  and  C_5
REMARK    4  A    between atoms: C_3  and  C_6
REMARK    5  A    between atoms: C_9  and  C_12
REMARK    6  A    between atoms: C_12  and  C_14
REMARK    7  A    between atoms: C_12  and  N_16
REMARK    8  A    between atoms: C_14  and  C_15
REMARK    9  A    between atoms: N_16  and  S_17
REMARK   10  A    between atoms: S_17  and  C_20
REMARK   11  A    between atoms: C_25  and  C_26
REMARK                            x       y       z     vdW  Elec       q    Type
REMARK                         _______ _______ _______ _____ _____    ______ ____
ROOT
ATOM      1  C   UNL     1      -1.554  -6.462  -0.533  0.00  0.00    +0.106 C 
ENDROOT
BRANCH   1   5
ATOM      2  C   UNL     1      -1.567  -2.417   0.841  0.00  0.00    -0.045 A 
ATOM      3  C   UNL     1      -0.670  -3.325   1.373  0.00  0.00    +0.004 A 
ATOM      4  C   UNL     1      -0.666  -4.634   0.929  0.00  0.00    +0.005 A 
ATOM      5  C   UNL     1      -1.559  -5.035  -0.048  0.00  0.00    -0.029 A 
ATOM      6  C   UNL     1      -2.456  -4.127  -0.580  0.00  0.00    +0.005 A 
ATOM      7  C   UNL     1      -2.462  -2.819  -0.132  0.00  0.00    +0.004 A 
BRANCH   2   8
ATOM      8  C   UNL     1      -1.571  -0.990   1.325  0.00  0.00    +0.016 C 
ATOM      9  C   UNL     1      -1.857  -0.963   2.828  0.00  0.00    +0.012 C 
BRANCH   8  11
ATOM     10  C   UNL     1      -0.248   1.127   1.431  0.00  0.00    +0.004 C 
ATOM     11  C   UNL     1      -0.205  -0.355   1.055  0.00  0.00    +0.004 C 
ENDBRANCH   8  11
ENDBRANCH   2   8
ENDBRANCH   1   5
BRANCH   1  12
ATOM     12  C   UNL     1      -0.796  -6.547  -1.859  0.00  0.00    +0.022 C 
ATOM     13  C   UNL     1      -0.684  -8.011  -2.290  0.00  0.00    +0.006 C 
ENDBRANCH   1  12
BRANCH   1  14
ATOM     14  N   UNL     1      -2.933  -6.916  -0.729  0.00  0.00    -0.183 NA
ATOM     15  H   UNL     1      -3.506  -6.464  -1.367  0.00  0.00    +0.149 HD
BRANCH  14  16
ATOM     16  S   UNL     1      -3.513  -8.201   0.140  0.00  0.00    +0.059 S 
ATOM     17  O   UNL     1      -4.880  -8.348  -0.217  0.00  0.00    -0.153 OA
ATOM     18  O   UNL     1      -2.568  -9.252  -0.011  0.00  0.00    -0.153 OA
BRANCH  16  19
ATOM     19  C   UNL     1      -3.483  -7.737   1.839  0.00  0.00    +0.110 A 
ATOM     20  C   UNL     1      -2.641  -8.392   2.720  0.00  0.00    +0.029 A 
ATOM     21  C   UNL     1      -2.618  -8.028   4.053  0.00  0.00    +0.003 A 
ATOM     22  C   UNL     1      -3.436  -7.011   4.507  0.00  0.00    +0.020 A 
ATOM     23  C   UNL     1      -4.278  -6.356   3.627  0.00  0.00    +0.046 A 
ATOM     24  C   UNL     1      -4.297  -6.716   2.291  0.00  0.00    -0.006 A 
ATOM     25  C   UNL     1      -5.210  -5.999   1.330  0.00  0.00    +0.047 C 
ATOM     26 CL   UNL     1      -5.306  -5.078   4.196  0.00  0.00    -0.083 Cl
ENDBRANCH  16  19
ENDBRANCH  14  16
ENDBRANCH   1  14
TORSDOF 7
