REMARK  Name = ZINC12372343
REMARK  4 active torsions:
REMARK  status: ('A' for Active; 'I' for Inactive)
REMARK    1  A    between atoms: C_1  and  C_2
REMARK    2  A    between atoms: C_3  and  C_12
REMARK    3  A    between atoms: N_19  and  C_22
REMARK    4  A    between atoms: C_22  and  C_23
REMARK                            x       y       z     vdW  Elec       q    Type
REMARK                         _______ _______ _______ _____ _____    ______ ____
ROOT
ATOM      1  C   UNL     1       0.633   4.601   0.014  0.00  0.00    +0.028 C 
ATOM      2  C   UNL     1       0.854   5.672   0.869  0.00  0.00    +0.100 C 
ATOM      3  C   UNL     1      -0.118   6.774   0.987  0.00  0.00    +0.257 C 
ATOM      4  O   UNL     1      -1.145   6.774   0.335  0.00  0.00    -0.270 OA
ATOM      5  N   UNL     1       0.162   7.782   1.839  0.00  0.00    -0.236 N 
ATOM      6  C   UNL     1       1.289   7.794   2.564  0.00  0.00    +0.316 C 
ATOM      7  O   UNL     1       1.482   8.732   3.312  0.00  0.00    -0.252 OA
ATOM      8  N   UNL     1       2.216   6.827   2.507  0.00  0.00    -0.217 N 
ATOM      9  C   UNL     1       2.066   5.754   1.703  0.00  0.00    +0.259 C 
ATOM     10  O   UNL     1       2.911   4.879   1.664  0.00  0.00    -0.269 OA
ATOM     11  H   UNL     1      -0.467   8.515   1.928  0.00  0.00    +0.159 HD
ENDROOT
BRANCH   1  14
ATOM     12  C   UNL     1       2.326   3.626  -2.397  0.00  0.00    +0.064 C 
ATOM     13  C   UNL     1       2.278   3.024  -1.016  0.00  0.00    +0.021 A 
ATOM     14  C   UNL     1       1.506   3.493   0.033  0.00  0.00    +0.004 A 
ATOM     15  C   UNL     1       1.781   2.599   1.176  0.00  0.00    +0.007 A 
ATOM     16  C   UNL     1       1.326   2.542   2.489  0.00  0.00    +0.010 A 
ATOM     17  C   UNL     1       1.790   1.554   3.330  0.00  0.00    +0.001 A 
ATOM     18  C   UNL     1       2.707   0.619   2.871  0.00  0.00    +0.002 A 
ATOM     19  C   UNL     1       3.166   0.665   1.573  0.00  0.00    +0.026 A 
ATOM     20  C   UNL     1       2.708   1.655   0.709  0.00  0.00    +0.047 A 
ATOM     21  N   UNL     1       2.978   1.949  -0.613  0.00  0.00    -0.358 N 
ATOM     22  H   UNL     1       3.591   1.448  -1.175  0.00  0.00    +0.166 HD
ENDBRANCH   1  14
BRANCH   8  23
ATOM     23  C   UNL     1       3.415   6.934   3.341  0.00  0.00    +0.153 C 
BRANCH  23  24
ATOM     24  C   UNL     1       3.162   6.274   4.672  0.00  0.00    -0.030 A 
ATOM     25  C   UNL     1       2.652   7.011   5.724  0.00  0.00    +0.005 A 
ATOM     26  C   UNL     1       2.415   6.404   6.943  0.00  0.00    +0.000 A 
ATOM     27  C   UNL     1       2.699   5.062   7.113  0.00  0.00    +0.000 A 
ATOM     28  C   UNL     1       3.214   4.326   6.062  0.00  0.00    +0.000 A 
ATOM     29  C   UNL     1       3.445   4.931   4.842  0.00  0.00    +0.005 A 
ENDBRANCH  23  24
ENDBRANCH   8  23
TORSDOF 3
