REMARK  Name = ZINC20884563
REMARK  2 active torsions:
REMARK  status: ('A' for Active; 'I' for Inactive)
REMARK    1  A    between atoms: C_5  and  C_7
REMARK    2  A    between atoms: C_12  and  C_17
REMARK                            x       y       z     vdW  Elec       q    Type
REMARK                         _______ _______ _______ _____ _____    ______ ____
ROOT
ATOM      1  C   UNL     1      -2.619   2.371   2.570  0.00  0.00    +0.137 C 
ATOM      2  C   UNL     1      -2.184   1.838   1.226  0.00  0.00    +0.036 C 
ATOM      3  C   UNL     1      -2.970   1.679   0.148  0.00  0.00    +0.017 C 
ATOM      4  C   UNL     1      -2.402   1.105  -1.140  0.00  0.00    +0.059 C 
ATOM      5  C   UNL     1      -0.944   1.533  -1.300  0.00  0.00    +0.032 C 
ATOM      6  C   UNL     1      -0.165   0.996  -0.094  0.00  0.00    +0.088 C 
ATOM      7  C   UNL     1      -0.806   1.507   1.162  0.00  0.00    +0.163 C 
ATOM      8  O   UNL     1      -0.120   1.641   2.156  0.00  0.00    -0.292 OA
ATOM      9  N   UNL     1      -4.289   1.993   0.096  0.00  0.00    -0.316 N 
ATOM     10  C   UNL     1      -5.225   1.647   1.064  0.00  0.00    +0.052 A 
ATOM     11  C   UNL     1      -6.276   0.785   0.802  0.00  0.00    +0.025 A 
ATOM     12  C   UNL     1      -7.199   0.519   1.800  0.00  0.00    +0.002 A 
ATOM     13  C   UNL     1      -7.073   1.110   3.043  0.00  0.00    +0.002 A 
ATOM     14  C   UNL     1      -6.013   1.959   3.311  0.00  0.00    +0.025 A 
ATOM     15  C   UNL     1      -5.076   2.212   2.322  0.00  0.00    +0.049 A 
ATOM     16  N   UNL     1      -3.936   2.972   2.577  0.00  0.00    -0.331 N 
ATOM     17  H   UNL     1      -4.685   2.562  -0.758  0.00  0.00    +0.152 HD
ATOM     18  H   UNL     1      -4.050   4.046   2.787  0.00  0.00    +0.147 HD
ENDROOT
BRANCH   1  23
ATOM     19  C   UNL     1      -2.666  -1.115   4.018  0.00  0.00    +0.000 A 
ATOM     20  C   UNL     1      -2.584  -0.853   5.373  0.00  0.00    +0.001 A 
ATOM     21  C   UNL     1      -2.515   0.453   5.821  0.00  0.00    +0.015 A 
ATOM     22  C   UNL     1      -2.526   1.497   4.914  0.00  0.00    +0.023 A 
ATOM     23  C   UNL     1      -2.607   1.234   3.559  0.00  0.00    -0.009 A 
ATOM     24  C   UNL     1      -2.681  -0.072   3.111  0.00  0.00    +0.007 A 
ATOM     25 BR   UNL     1      -2.431   3.284   5.527  0.00  0.00    -0.050 Br
ENDBRANCH   1  23
BRANCH   5  26
ATOM     26  C   UNL     1      -0.379   0.956  -2.572  0.00  0.00    -0.043 A 
ATOM     27  C   UNL     1      -0.369  -0.413  -2.764  0.00  0.00    +0.007 A 
ATOM     28  C   UNL     1       0.145  -0.944  -3.932  0.00  0.00    +0.038 A 
ATOM     29  C   UNL     1       0.659  -0.105  -4.905  0.00  0.00    +0.123 A 
ATOM     30  C   UNL     1       0.653   1.266  -4.710  0.00  0.00    +0.038 A 
ATOM     31  C   UNL     1       0.134   1.795  -3.543  0.00  0.00    +0.007 A 
ATOM     32  F   UNL     1       1.166  -0.623  -6.046  0.00  0.00    -0.205 F 
ENDBRANCH   5  26
TORSDOF 2
