REMARK  Name = ZINC08839156
REMARK  5 active torsions:
REMARK  status: ('A' for Active; 'I' for Inactive)
REMARK    1  A    between atoms: C_4  and  N_7
REMARK    2  A    between atoms: C_9  and  C_14
REMARK    3  A    between atoms: C_14  and  N_15
REMARK    4  A    between atoms: N_18  and  C_19
REMARK    5  A    between atoms: C_19  and  C_20
REMARK                            x       y       z     vdW  Elec       q    Type
REMARK                         _______ _______ _______ _____ _____    ______ ____
ROOT
ATOM      1  N   UNL     1       5.864   6.505  -1.298  0.00  0.00    -0.296 N 
ATOM      2  C   UNL     1       6.456   7.153  -2.321  0.00  0.00    +0.300 C 
ATOM      3  O   UNL     1       5.779   7.623  -3.215  0.00  0.00    -0.253 OA
ATOM      4  N   UNL     1       7.797   7.278  -2.355  0.00  0.00    -0.295 N 
ATOM      5  H   UNL     1       6.405   6.130  -0.585  0.00  0.00    +0.150 HD
ATOM      6  H   UNL     1       8.337   6.903  -1.642  0.00  0.00    +0.151 HD
ENDROOT
BRANCH   1   7
ATOM      7  C   UNL     1       4.406   6.369  -1.262  0.00  0.00    +0.152 C 
BRANCH   7  10
ATOM      8  N   UNL     1       2.356   3.889   0.001  0.00  0.00    -0.234 N 
ATOM      9  C   UNL     1       2.476   5.355   0.002  0.00  0.00    +0.163 C 
ATOM     10  C   UNL     1       3.997   5.599  -0.005  0.00  0.00    +0.213 C 
ATOM     11  O   UNL     1       4.569   4.258  -0.018  0.00  0.00    -0.444 OA
ATOM     12  C   UNL     1       3.584   3.353  -0.014  0.00  0.00    +0.408 C 
ATOM     13  O   UNL     1       3.785   2.155  -0.023  0.00  0.00    -0.226 OA
BRANCH   8  17
ATOM     14  C   UNL     1      -1.220   1.750   0.017  0.00  0.00    +0.000 A 
ATOM     15  C   UNL     1      -0.013   1.076   0.008  0.00  0.00    +0.002 A 
ATOM     16  C   UNL     1       1.174   1.782   0.000  0.00  0.00    +0.023 A 
ATOM     17  C   UNL     1       1.155   3.170   0.008  0.00  0.00    +0.040 A 
ATOM     18  C   UNL     1      -0.059   3.845   0.023  0.00  0.00    +0.023 A 
ATOM     19  C   UNL     1      -1.243   3.133   0.031  0.00  0.00    +0.002 A 
ENDBRANCH   8  17
ENDBRANCH   7  10
ENDBRANCH   1   7
BRANCH   4  20
ATOM     20  C   UNL     1       8.440   7.982  -3.467  0.00  0.00    +0.141 C 
BRANCH  20  21
ATOM     21  C   UNL     1       9.933   7.982  -3.266  0.00  0.00    -0.023 A 
ATOM     22  C   UNL     1      10.556   9.086  -2.769  0.00  0.00    +0.006 A 
ATOM     23  C   UNL     1      11.935   9.103  -2.572  0.00  0.00    +0.001 A 
ATOM     24  C   UNL     1      12.701   8.021  -2.880  0.00  0.00    +0.008 A 
ATOM     25  C   UNL     1      12.094   6.865  -3.400  0.00  0.00    -0.018 A 
ATOM     26  C   UNL     1      10.690   6.846  -3.596  0.00  0.00    -0.013 A 
ATOM     27  C   UNL     1      10.083   5.690  -4.116  0.00  0.00    +0.009 A 
ATOM     28  C   UNL     1      10.849   4.607  -4.422  0.00  0.00    +0.001 A 
ATOM     29  C   UNL     1      12.229   4.626  -4.230  0.00  0.00    +0.001 A 
ATOM     30  C   UNL     1      12.851   5.728  -3.729  0.00  0.00    +0.008 A 
ENDBRANCH  20  21
ENDBRANCH   4  20
TORSDOF 5
