REMARK  Name = ZINC10663629
REMARK  6 active torsions:
REMARK  status: ('A' for Active; 'I' for Inactive)
REMARK    1  A    between atoms: C_1  and  C_2
REMARK    2  A    between atoms: C_5  and  O_14
REMARK    3  A    between atoms: C_8  and  C_13
REMARK    4  A    between atoms: O_14  and  S_15
REMARK    5  A    between atoms: S_15  and  C_18
REMARK    6  A    between atoms: C_21  and  N_24
REMARK                            x       y       z     vdW  Elec       q    Type
REMARK                         _______ _______ _______ _____ _____    ______ ____
ROOT
ATOM      1  O   UNL     1       2.776   0.329  -0.042  0.00  0.00    -0.342 OA
ENDROOT
BRANCH   1   6
ATOM      2  C   UNL     1       1.376   5.787   0.137  0.00  0.00    +0.044 C 
ATOM      3  C   UNL     1       1.740   4.326   0.088  0.00  0.00    -0.046 A 
ATOM      4  C   UNL     1       3.073   3.949   0.080  0.00  0.00    +0.007 A 
ATOM      5  C   UNL     1       3.420   2.614   0.036  0.00  0.00    +0.049 A 
ATOM      6  C   UNL     1       2.434   1.641   0.001  0.00  0.00    +0.168 A 
ATOM      7  C   UNL     1       1.076   2.017   0.009  0.00  0.00    +0.066 A 
ATOM      8  C   UNL     1       0.743   3.372   0.054  0.00  0.00    -0.027 A 
ATOM      9  C   UNL     1      -0.759   3.524   0.054  0.00  0.00    +0.024 C 
ATOM     10  C   UNL     1      -1.334   2.102  -0.001  0.00  0.00    +0.087 C 
ATOM     11  C   UNL     1      -0.135   1.186  -0.022  0.00  0.00    +0.168 C 
ATOM     12  O   UNL     1      -0.165  -0.026  -0.063  0.00  0.00    -0.292 OA
ATOM     13  C   UNL     1      -1.216   4.231   1.331  0.00  0.00    +0.013 C 
ENDBRANCH   1   6
BRANCH   1  14
ATOM     14  S   UNL     1       2.935  -0.223  -1.451  0.00  0.00    +0.151 S 
ATOM     15  O   UNL     1       3.083  -1.631  -1.321  0.00  0.00    -0.131 OA
ATOM     16  O   UNL     1       1.908   0.365  -2.237  0.00  0.00    -0.131 OA
BRANCH  14  17
ATOM     17  C   UNL     1       4.463   0.387  -2.080  0.00  0.00    +0.128 A 
ATOM     18  C   UNL     1       4.497   1.583  -2.772  0.00  0.00    +0.033 A 
ATOM     19  C   UNL     1       5.697   2.065  -3.261  0.00  0.00    +0.035 A 
ATOM     20  C   UNL     1       6.861   1.345  -3.068  0.00  0.00    +0.126 A 
ATOM     21  C   UNL     1       6.827   0.146  -2.381  0.00  0.00    +0.035 A 
ATOM     22  C   UNL     1       5.628  -0.333  -1.887  0.00  0.00    +0.033 A 
BRANCH  20  23
ATOM     23  N   UNL     1       8.145   1.858  -3.597  0.00  0.00    +0.056 N 
ATOM     24  O   UNL     1       9.171   1.224  -3.426  0.00  0.00    -0.126 OA
ATOM     25  O   UNL     1       8.176   2.914  -4.203  0.00  0.00    -0.126 OA
ENDBRANCH  20  23
ENDBRANCH  14  17
ENDBRANCH   1  14
TORSDOF 4
