REMARK  Name = ZINC02131875
REMARK  5 active torsions:
REMARK  status: ('A' for Active; 'I' for Inactive)
REMARK    1  A    between atoms: C_1  and  C_2
REMARK    2  A    between atoms: C_2  and  C_3
REMARK    3  A    between atoms: C_6  and  C_9
REMARK    4  A    between atoms: N_16  and  C_31
REMARK    5  A    between atoms: C_19  and  C_30
REMARK                            x       y       z     vdW  Elec       q    Type
REMARK                         _______ _______ _______ _____ _____    ______ ____
ROOT
ATOM      1  C   UNL     1       1.253  -0.844  -0.019  0.00  0.00    +0.069 C 
ATOM      2  C   UNL     1       2.445   0.019   0.410  0.00  0.00    +0.122 C 
ATOM      3  N   UNL     1       2.371   1.315  -0.291  0.00  0.00    -0.280 N 
ATOM      4  C   UNL     1       3.330   1.645  -1.160  0.00  0.00    +0.234 C 
ATOM      5  O   UNL     1       4.303   0.924  -1.232  0.00  0.00    -0.274 OA
ATOM      6  C   UNL     1       3.282   2.845  -2.049  0.00  0.00    +0.203 C 
ATOM      7  N   UNL     1       2.042   3.588  -1.900  0.00  0.00    -0.294 N 
ATOM      8  C   UNL     1       1.115   3.303  -0.985  0.00  0.00    +0.245 C 
ATOM      9  O   UNL     1       0.114   3.987  -0.954  0.00  0.00    -0.273 OA
ATOM     10  C   UNL     1       1.237   2.190   0.002  0.00  0.00    +0.151 C 
ATOM     11  C   UNL     1      -0.016   1.348   0.009  0.00  0.00    +0.054 A 
ATOM     12  C   UNL     1       0.002  -0.004   0.002  0.00  0.00    -0.008 A 
ATOM     13  C   UNL     1      -1.378  -0.445   0.015  0.00  0.00    +0.004 A 
ATOM     14  C   UNL     1      -1.967  -1.713   0.016  0.00  0.00    +0.010 A 
ATOM     15  C   UNL     1      -3.340  -1.759   0.030  0.00  0.00    +0.001 A 
ATOM     16  C   UNL     1      -4.114  -0.611   0.043  0.00  0.00    +0.002 A 
ATOM     17  C   UNL     1      -3.558   0.656   0.044  0.00  0.00    +0.026 A 
ATOM     18  C   UNL     1      -2.167   0.734   0.029  0.00  0.00    +0.047 A 
ATOM     19  N   UNL     1      -1.309   1.796   0.030  0.00  0.00    -0.356 N 
ATOM     20  H   UNL     1      -1.576   2.729   0.038  0.00  0.00    +0.166 HD
ATOM     21  C   UNL     1       1.429   2.801   1.391  0.00  0.00    +0.048 C 
ATOM     22  C   UNL     1       1.798   4.714  -2.805  0.00  0.00    +0.132 C 
ENDROOT
BRANCH   1  26
ATOM     23  C   UNL     1       0.819  -4.123   2.683  0.00  0.00    -0.048 A 
ATOM     24  C   UNL     1       1.038  -4.360   1.339  0.00  0.00    +0.004 A 
ATOM     25  C   UNL     1       1.178  -3.299   0.465  0.00  0.00    +0.004 A 
ATOM     26  C   UNL     1       1.100  -2.001   0.934  0.00  0.00    -0.038 A 
ATOM     27  C   UNL     1       0.886  -1.764   2.279  0.00  0.00    +0.004 A 
ATOM     28  C   UNL     1       0.739  -2.826   3.153  0.00  0.00    +0.004 A 
BRANCH  23  30
ATOM     29  C   UNL     1       2.037  -5.669   4.191  0.00  0.00    +0.009 C 
ATOM     30  C   UNL     1       0.665  -5.280   3.637  0.00  0.00    +0.032 C 
ENDBRANCH  23  30
ENDBRANCH   1  26
TORSDOF 2
