REMARK  Name = ZINC03338094
REMARK  3 active torsions:
REMARK  status: ('A' for Active; 'I' for Inactive)
REMARK    1  A    between atoms: C_4  and  N_22
REMARK    2  A    between atoms: C_6  and  C_7
REMARK    3  A    between atoms: C_12  and  C_14
REMARK                            x       y       z     vdW  Elec       q    Type
REMARK                         _______ _______ _______ _____ _____    ______ ____
ROOT
ATOM      1  C   UNL     1       2.407   3.936   0.000  0.00  0.00    +0.043 C 
ATOM      2  C   UNL     1       3.611   3.273   0.090  0.00  0.00    +0.152 C 
ATOM      3  C   UNL     1       3.829   1.814   0.103  0.00  0.00    +0.364 C 
ATOM      4  O   UNL     1       2.985   0.940   0.037  0.00  0.00    -0.243 OA
ATOM      5  O   UNL     1       5.167   1.656   0.202  0.00  0.00    -0.402 OA
ATOM      6  C   UNL     1       5.742   2.872   0.255  0.00  0.00    +0.233 C 
ATOM      7  N   UNL     1       4.854   3.826   0.192  0.00  0.00    -0.205 NA
ENDROOT
BRANCH   6   8
ATOM      8  C   UNL     1       7.196   3.098   0.371  0.00  0.00    +0.055 A 
ATOM      9  C   UNL     1       8.072   2.012   0.432  0.00  0.00    +0.016 A 
ATOM     10  C   UNL     1       9.429   2.229   0.540  0.00  0.00    +0.021 A 
ATOM     11  C   UNL     1       9.925   3.522   0.587  0.00  0.00    +0.042 A 
ATOM     12  C   UNL     1       9.064   4.604   0.526  0.00  0.00    +0.040 A 
ATOM     13  C   UNL     1       7.703   4.400   0.413  0.00  0.00    +0.055 A 
ATOM     14 CL   UNL     1       6.624   5.758   0.330  0.00  0.00    -0.083 Cl
ATOM     15 CL   UNL     1      11.636   3.786   0.722  0.00  0.00    -0.083 Cl
ENDBRANCH   6   8
BRANCH   1  21
ATOM     16  C   UNL     1       1.187   2.114  -1.170  0.00  0.00    +0.009 A 
ATOM     17  C   UNL     1       0.025   1.415  -1.417  0.00  0.00    +0.023 A 
ATOM     18  C   UNL     1      -1.153   1.774  -0.781  0.00  0.00    +0.071 A 
ATOM     19  C   UNL     1      -1.171   2.832   0.115  0.00  0.00    +0.145 A 
ATOM     20  C   UNL     1      -0.019   3.541   0.373  0.00  0.00    +0.042 A 
ATOM     21  C   UNL     1       1.176   3.187  -0.269  0.00  0.00    -0.021 A 
ATOM     22 CL   UNL     1      -2.612   0.891  -1.105  0.00  0.00    -0.081 Cl
BRANCH  19  23
ATOM     23  N   UNL     1      -2.434   3.203   0.792  0.00  0.00    +0.058 N 
ATOM     24  O   UNL     1      -2.453   4.135   1.577  0.00  0.00    -0.126 OA
ATOM     25  O   UNL     1      -3.454   2.577   0.565  0.00  0.00    -0.126 OA
ENDBRANCH  19  23
ENDBRANCH   1  21
TORSDOF 3
