REMARK  Name = ZINC05047259
REMARK  5 active torsions:
REMARK  status: ('A' for Active; 'I' for Inactive)
REMARK    1  A    between atoms: C_5  and  N_7
REMARK    2  A    between atoms: N_7  and  C_8
REMARK    3  A    between atoms: N_15  and  C_18
REMARK    4  A    between atoms: C_18  and  C_19
REMARK    5  A    between atoms: C_19  and  C_20
REMARK                            x       y       z     vdW  Elec       q    Type
REMARK                         _______ _______ _______ _____ _____    ______ ____
ROOT
ATOM      1  C   UNL     1       0.079  -2.772  -0.014  0.00  0.00    +0.090 C 
ATOM      2  C   UNL     1       0.098  -4.151  -0.126  0.00  0.00    +0.113 C 
ATOM      3  C   UNL     1       1.365  -4.904  -0.139  0.00  0.00    +0.256 C 
ATOM      4  O   UNL     1       2.434  -4.330  -0.051  0.00  0.00    -0.270 OA
ATOM      5  N   UNL     1       1.306  -6.247  -0.251  0.00  0.00    -0.263 N 
ATOM      6  C   UNL     1       0.135  -6.892  -0.348  0.00  0.00    +0.146 C 
ATOM      7  S   UNL     1       0.158  -8.598  -0.487  0.00  0.00    -0.018 S 
ATOM      8  N   UNL     1      -1.053  -6.271  -0.343  0.00  0.00    -0.249 N 
ATOM      9  C   UNL     1      -1.148  -4.931  -0.231  0.00  0.00    +0.258 C 
ATOM     10  O   UNL     1      -2.233  -4.380  -0.221  0.00  0.00    -0.269 OA
ATOM     11  H   UNL     1       2.131  -6.758  -0.262  0.00  0.00    +0.157 HD
ENDROOT
BRANCH   1  12
ATOM     12  N   UNL     1       1.230  -2.073  -0.095  0.00  0.00    -0.317 N 
ATOM     13  H   UNL     1       2.065  -2.533  -0.276  0.00  0.00    +0.152 HD
BRANCH  12  18
ATOM     14  C   UNL     1       0.019   1.344   0.516  0.00  0.00    +0.002 A 
ATOM     15  C   UNL     1       1.199   2.060   0.433  0.00  0.00    +0.003 A 
ATOM     16  C   UNL     1       2.391   1.408   0.175  0.00  0.00    +0.040 A 
ATOM     17  C   UNL     1       2.406   0.036  -0.001  0.00  0.00    +0.144 A 
ATOM     18  C   UNL     1       1.220  -0.686   0.082  0.00  0.00    +0.067 A 
ATOM     19  C   UNL     1       0.026  -0.026   0.342  0.00  0.00    +0.026 A 
ATOM     20  F   UNL     1       3.570  -0.601  -0.253  0.00  0.00    -0.204 F 
ENDBRANCH  12  18
ENDBRANCH   1  12
BRANCH   8  21
ATOM     21  C   UNL     1      -2.277  -7.069  -0.455  0.00  0.00    +0.120 C 
BRANCH  21  22
ATOM     22  C   UNL     1      -2.758  -7.464   0.942  0.00  0.00    +0.050 C 
BRANCH  22  23
ATOM     23  C   UNL     1      -4.017  -8.284   0.827  0.00  0.00    -0.072 C 
ATOM     24  C   UNL     1      -3.904  -9.574   0.831  0.00  0.00    -0.028 C 
ATOM     25  C   UNL     1      -5.063 -10.520   0.713  0.00  0.00    +0.027 C 
ATOM     26  C   UNL     1      -6.373  -9.789   1.015  0.00  0.00    +0.004 C 
ATOM     27  C   UNL     1      -6.410  -8.497   0.189  0.00  0.00    +0.005 C 
ATOM     28  C   UNL     1      -5.325  -7.555   0.721  0.00  0.00    +0.030 C 
ENDBRANCH  22  23
ENDBRANCH  21  22
ENDBRANCH   8  21
TORSDOF 5
