REMARK  Name = ZINC31808305
REMARK  7 active torsions:
REMARK  status: ('A' for Active; 'I' for Inactive)
REMARK    1  A    between atoms: C_1  and  O_2
REMARK    2  A    between atoms: O_2  and  C_3
REMARK    3  A    between atoms: C_6  and  C_17
REMARK    4  A    between atoms: C_8  and  O_9
REMARK    5  A    between atoms: O_9  and  C_10
REMARK    6  A    between atoms: C_10  and  C_11
REMARK    7  A    between atoms: C_20  and  O_28
REMARK                            x       y       z     vdW  Elec       q    Type
REMARK                         _______ _______ _______ _____ _____    ______ ____
ROOT
ATOM      1  C   UNL     1       0.606  -0.608  -1.056  0.00  0.00    +0.162 A 
ATOM      2  C   UNL     1       1.173   0.159  -2.062  0.00  0.00    +0.050 A 
ATOM      3  C   UNL     1       1.787  -0.456  -3.137  0.00  0.00    +0.008 A 
ATOM      4  C   UNL     1       1.837  -1.836  -3.212  0.00  0.00    -0.036 A 
ATOM      5  C   UNL     1       1.273  -2.606  -2.212  0.00  0.00    +0.053 A 
ATOM      6  C   UNL     1       0.662  -1.996  -1.129  0.00  0.00    +0.163 A 
ENDROOT
BRANCH   4   7
ATOM      7  C   UNL     1       2.507  -2.501  -4.386  0.00  0.00    +0.063 C 
ATOM      8  C   UNL     1       3.973  -2.061  -4.466  0.00  0.00    +0.108 C 
ATOM      9  C   UNL     1       4.116  -0.682  -5.034  0.00  0.00    +0.190 C 
ATOM     10  N   UNL     1       3.332  -0.183  -5.940  0.00  0.00    -0.196 NA
ATOM     11  C   UNL     1       2.277  -0.939  -6.393  0.00  0.00    +0.181 A 
ATOM     12  C   UNL     1       1.831  -2.079  -5.667  0.00  0.00    +0.024 A 
ATOM     13  C   UNL     1       0.798  -2.614  -6.324  0.00  0.00    +0.111 A 
ATOM     14  N   UNL     1       0.579  -1.864  -7.431  0.00  0.00    -0.282 N 
ATOM     15  H   UNL     1      -0.110  -2.019  -8.097  0.00  0.00    +0.188 HD
ATOM     16  N   UNL     1       1.523  -0.819  -7.449  0.00  0.00    -0.154 NA
BRANCH   9  17
ATOM     17  O   UNL     1       5.122   0.090  -4.575  0.00  0.00    -0.495 OA
ATOM     18  H   UNL     1       5.161   0.968  -4.980  0.00  0.00    +0.293 HD
ENDBRANCH   9  17
ENDBRANCH   4   7
BRANCH   1  20
ATOM     19  C   UNL     1      -0.017   1.425   0.010  0.00  0.00    +0.277 C 
ATOM     20  O   UNL     1       0.002  -0.004   0.002  0.00  0.00    -0.491 OA
ENDBRANCH   1  20
BRANCH   6  21
ATOM     21  O   UNL     1       0.112  -2.753  -0.142  0.00  0.00    -0.484 OA
BRANCH  21  22
ATOM     22  C   UNL     1       0.206  -4.171  -0.283  0.00  0.00    +0.264 C 
BRANCH  22  23
ATOM     23  C   UNL     1      -0.453  -4.838   0.897  0.00  0.00    -0.010 A 
ATOM     24  C   UNL     1       0.286  -5.128   2.029  0.00  0.00    +0.007 A 
ATOM     25  C   UNL     1      -0.319  -5.740   3.111  0.00  0.00    +0.000 A 
ATOM     26  C   UNL     1      -1.663  -6.062   3.061  0.00  0.00    +0.000 A 
ATOM     27  C   UNL     1      -2.401  -5.771   1.929  0.00  0.00    +0.000 A 
ATOM     28  C   UNL     1      -1.798  -5.155   0.849  0.00  0.00    +0.007 A 
ENDBRANCH  22  23
ENDBRANCH  21  22
ENDBRANCH   6  21
TORSDOF 6
