REMARK  Name = ZINC09449326
REMARK  5 active torsions:
REMARK  status: ('A' for Active; 'I' for Inactive)
REMARK    1  A    between atoms: C_16  and  C_18
REMARK    2  A    between atoms: C_18  and  S_19
REMARK    3  A    between atoms: S_19  and  C_20
REMARK    4  A    between atoms: C_23  and  C_26
REMARK    5  A    between atoms: N_24  and  N_25
REMARK                            x       y       z     vdW  Elec       q    Type
REMARK                         _______ _______ _______ _____ _____    ______ ____
ROOT
ATOM      1  C   UNL     1       0.058  -4.187  -0.670  0.00  0.00    +0.174 C 
ENDROOT
BRANCH   1  17
ATOM      2  C   UNL     1       0.037   1.390  -0.096  0.00  0.00    +0.002 A 
ATOM      3  C   UNL     1       1.047   2.141  -0.669  0.00  0.00    +0.001 A 
ATOM      4  C   UNL     1       2.144   1.511  -1.225  0.00  0.00    +0.017 A 
ATOM      5  C   UNL     1       2.234   0.125  -1.211  0.00  0.00    +0.035 A 
ATOM      6  C   UNL     1       1.217  -0.634  -0.638  0.00  0.00    +0.055 A 
ATOM      7  C   UNL     1       0.119   0.012  -0.079  0.00  0.00    +0.025 A 
ATOM      8  N   UNL     1       1.262  -2.027  -0.615  0.00  0.00    -0.237 N 
ATOM      9  C   UNL     1       2.429  -2.787  -0.682  0.00  0.00    +0.056 A 
ATOM     10  C   UNL     1       2.422  -4.076  -0.158  0.00  0.00    +0.045 A 
ATOM     11  C   UNL     1       3.559  -4.858  -0.213  0.00  0.00    +0.043 A 
ATOM     12  C   UNL     1       4.716  -4.365  -0.791  0.00  0.00    +0.021 A 
ATOM     13  C   UNL     1       4.735  -3.086  -1.313  0.00  0.00    +0.018 A 
ATOM     14  C   UNL     1       3.596  -2.293  -1.258  0.00  0.00    +0.035 A 
ATOM     15  S   UNL     1       3.642  -0.661  -1.919  0.00  0.00    -0.086 S 
ATOM     16 CL   UNL     1       3.538  -6.465   0.445  0.00  0.00    -0.083 Cl
ATOM     17  C   UNL     1       0.092  -2.688  -0.519  0.00  0.00    +0.234 C 
ATOM     18  O   UNL     1      -0.935  -2.076  -0.310  0.00  0.00    -0.274 OA
ENDBRANCH   1  17
BRANCH   1  19
ATOM     19  S   UNL     1      -1.490  -4.678  -1.479  0.00  0.00    -0.075 S 
BRANCH  19  20
ATOM     20  C   UNL     1      -1.378  -6.434  -1.582  0.00  0.00    +0.209 A 
ATOM     21  N   UNL     1      -0.385  -7.178  -1.151  0.00  0.00    -0.120 NA
ATOM     22  N   UNL     1      -0.629  -8.418  -1.385  0.00  0.00    -0.125 NA
ATOM     23  C   UNL     1      -1.793  -8.542  -1.978  0.00  0.00    +0.202 A 
ATOM     24  N   UNL     1      -2.311  -7.275  -2.118  0.00  0.00    -0.222 N 
BRANCH  23  25
ATOM     25  C   UNL     1      -2.430  -9.805  -2.411  0.00  0.00    +0.134 A 
ATOM     26  C   UNL     1      -1.894 -11.103  -2.253  0.00  0.00    +0.004 A 
ATOM     27  C   UNL     1      -2.775 -11.979  -2.775  0.00  0.00    +0.040 A 
ATOM     28  N   UNL     1      -3.832 -11.278  -3.249  0.00  0.00    -0.281 N 
ATOM     29  H   UNL     1      -4.616 -11.652  -3.679  0.00  0.00    +0.189 HD
ATOM     30  N   UNL     1      -3.599  -9.919  -3.006  0.00  0.00    -0.170 NA
ATOM     31  C   UNL     1      -2.255 -13.394  -2.635  0.00  0.00    +0.055 C 
ATOM     32  C   UNL     1      -0.746 -13.238  -2.345  0.00  0.00    +0.011 C 
ATOM     33  C   UNL     1      -0.687 -11.834  -1.705  0.00  0.00    +0.039 C 
ENDBRANCH  23  25
BRANCH  24  34
ATOM     34  N   UNL     1      -3.508  -6.930  -2.679  0.00  0.00    -0.295 N 
ATOM     35  H   UNL     1      -3.409  -6.764  -3.669  0.00  0.00    +0.163 HD
ATOM     36  H   UNL     1      -4.208  -7.635  -2.499  0.00  0.00    +0.163 HD
ENDBRANCH  24  34
ENDBRANCH  19  20
ENDBRANCH   1  19
TORSDOF 5
