REMARK  Name = ZINC18200568
REMARK  6 active torsions:
REMARK  status: ('A' for Active; 'I' for Inactive)
REMARK    1  A    between atoms: C_1  and  O_2
REMARK    2  A    between atoms: O_2  and  C_3
REMARK    3  A    between atoms: C_6  and  C_11
REMARK    4  A    between atoms: C_8  and  O_9
REMARK    5  A    between atoms: O_9  and  C_10
REMARK    6  A    between atoms: C_16  and  C_29
REMARK                            x       y       z     vdW  Elec       q    Type
REMARK                         _______ _______ _______ _____ _____    ______ ____
ROOT
ATOM      1  C   UNL     1      -4.848   1.538  -0.433  0.00  0.00    +0.032 C 
ATOM      2  C   UNL     1      -3.543   2.263  -0.770  0.00  0.00    +0.059 C 
ATOM      3  C   UNL     1      -2.369   1.407  -0.364  0.00  0.00    +0.017 C 
ATOM      4  C   UNL     1      -2.450   0.060  -0.381  0.00  0.00    +0.025 C 
ATOM      5  C   UNL     1      -1.275  -0.792   0.022  0.00  0.00    +0.099 C 
ATOM      6  C   UNL     1       0.002  -0.004   0.002  0.00  0.00    +0.067 A 
ATOM      7  C   UNL     1      -0.016   1.358   0.009  0.00  0.00    +0.113 A 
ATOM      8  N   UNL     1       1.169   2.053   0.002  0.00  0.00    -0.295 N 
ATOM      9  H   UNL     1       1.160   3.053   0.010  0.00  0.00    +0.172 HD
ATOM     10  C   UNL     1       2.343   1.394  -0.016  0.00  0.00    +0.328 A 
ATOM     11  O   UNL     1       3.383   2.023  -0.021  0.00  0.00    -0.247 OA
ATOM     12  N   UNL     1       2.381   0.049  -0.028  0.00  0.00    -0.275 N 
ATOM     13  H   UNL     1       3.264  -0.421  -0.042  0.00  0.00    +0.173 HD
ATOM     14  C   UNL     1       1.242  -0.670  -0.020  0.00  0.00    +0.260 A 
ATOM     15  O   UNL     1       1.284  -1.888  -0.032  0.00  0.00    -0.267 OA
ATOM     16  N   UNL     1      -1.212   2.031   0.019  0.00  0.00    -0.303 N 
ATOM     17  C   UNL     1      -3.635  -0.589  -0.774  0.00  0.00    +0.162 C 
ATOM     18  O   UNL     1      -3.670  -1.803  -0.794  0.00  0.00    -0.292 OA
ATOM     19  C   UNL     1      -4.858   0.193  -1.167  0.00  0.00    +0.088 C 
ATOM     20  H   UNL     1      -1.239   2.958   0.303  0.00  0.00    +0.153 HD
ENDROOT
BRANCH   1  24
ATOM     21  C   UNL     1      -8.175   3.898  -1.718  0.00  0.00    +0.161 A 
ATOM     22  C   UNL     1      -7.222   3.482  -2.634  0.00  0.00    +0.049 A 
ATOM     23  C   UNL     1      -6.145   2.724  -2.215  0.00  0.00    +0.008 A 
ATOM     24  C   UNL     1      -6.021   2.370  -0.884  0.00  0.00    -0.040 A 
ATOM     25  C   UNL     1      -6.968   2.782   0.035  0.00  0.00    +0.053 A 
ATOM     26  C   UNL     1      -8.047   3.547  -0.378  0.00  0.00    +0.162 A 
BRANCH  21  28
ATOM     27  C   UNL     1      -9.298   4.972  -3.518  0.00  0.00    +0.277 C 
ATOM     28  O   UNL     1      -9.232   4.649  -2.128  0.00  0.00    -0.491 OA
ENDBRANCH  21  28
BRANCH  26  29
ATOM     29  O   UNL     1      -8.979   3.953   0.525  0.00  0.00    -0.491 OA
ATOM     30  C   UNL     1      -8.784   3.555   1.884  0.00  0.00    +0.277 C 
ENDBRANCH  26  29
ENDBRANCH   1  24
BRANCH   5  31
ATOM     31  C   UNL     1      -1.505  -1.323   1.414  0.00  0.00    +0.002 A 
ATOM     32  C   UNL     1      -1.624  -2.607   1.829  0.00  0.00    +0.012 A 
ATOM     33  C   UNL     1      -1.832  -2.861   3.172  0.00  0.00    +0.008 A 
ATOM     34  C   UNL     1      -1.921  -1.818   4.032  0.00  0.00    +0.045 A 
ATOM     35  S   UNL     1      -1.701  -0.421   2.942  0.00  0.00    -0.101 S 
ENDBRANCH   5  31
TORSDOF 4
