REMARK  Name = ZINC09406894
REMARK  8 active torsions:
REMARK  status: ('A' for Active; 'I' for Inactive)
REMARK    1  A    between atoms: C_1  and  C_2
REMARK    2  A    between atoms: C_8  and  N_10
REMARK    3  A    between atoms: C_11  and  C_13
REMARK    4  A    between atoms: C_13  and  N_14
REMARK    5  A    between atoms: N_14  and  C_15
REMARK    6  A    between atoms: N_14  and  S_16
REMARK    7  A    between atoms: S_16  and  C_19
REMARK    8  A    between atoms: C_26  and  C_29
REMARK                            x       y       z     vdW  Elec       q    Type
REMARK                         _______ _______ _______ _____ _____    ______ ____
ROOT
ATOM      1  S   UNL     1      -1.679   6.377   2.668  0.00  0.00    +0.061 S 
ATOM      2  O   UNL     1      -2.620   7.427   2.842  0.00  0.00    -0.153 OA
ATOM      3  O   UNL     1      -0.795   5.967   3.703  0.00  0.00    -0.153 OA
ENDROOT
BRANCH   1   4
ATOM      4  C   UNL     1      -0.671   6.826   1.294  0.00  0.00    +0.108 A 
ATOM      5  C   UNL     1       0.607   6.299   1.179  0.00  0.00    +0.030 A 
ATOM      6  C   UNL     1       1.408   6.634   0.107  0.00  0.00    +0.030 A 
ATOM      7  C   UNL     1       0.935   7.515  -0.856  0.00  0.00    +0.067 A 
ATOM      8  C   UNL     1      -0.358   8.054  -0.736  0.00  0.00    +0.091 A 
ATOM      9  C   UNL     1      -1.154   7.694   0.357  0.00  0.00    +0.058 A 
ATOM     10  N   UNL     1      -0.553   8.870  -1.800  0.00  0.00    -0.228 NA
ATOM     11  C   UNL     1       0.518   8.869  -2.556  0.00  0.00    +0.139 A 
ATOM     12  N   UNL     1       1.467   8.046  -2.014  0.00  0.00    -0.338 N 
ATOM     13  H   UNL     1       2.377   7.863  -2.387  0.00  0.00    +0.167 HD
BRANCH  11  14
ATOM     14  C   UNL     1       0.676   9.642  -3.808  0.00  0.00    +0.017 A 
ATOM     15  C   UNL     1       1.867   9.568  -4.531  0.00  0.00    +0.011 A 
ATOM     16  C   UNL     1       2.006  10.286  -5.701  0.00  0.00    +0.001 A 
ATOM     17  C   UNL     1       0.971  11.088  -6.151  0.00  0.00    +0.000 A 
ATOM     18  C   UNL     1      -0.210  11.169  -5.435  0.00  0.00    +0.001 A 
ATOM     19  C   UNL     1      -0.364  10.452  -4.267  0.00  0.00    +0.011 A 
ENDBRANCH  11  14
ENDBRANCH   1   4
BRANCH   1  20
ATOM     20  N   UNL     1      -2.542   5.035   2.224  0.00  0.00    -0.171 NA
ATOM     21  C   UNL     1      -3.854   5.186   1.589  0.00  0.00    +0.132 C 
BRANCH  20  22
ATOM     22  C   UNL     1      -1.995   3.698   2.466  0.00  0.00    +0.204 C 
BRANCH  22  24
ATOM     23  N   UNL     1      -0.704   1.998   1.216  0.00  0.00    -0.311 N 
ATOM     24  C   UNL     1      -1.290   3.212   1.226  0.00  0.00    +0.229 C 
ATOM     25  O   UNL     1      -1.248   3.914   0.237  0.00  0.00    -0.274 OA
ATOM     26  H   UNL     1      -0.737   1.437   2.006  0.00  0.00    +0.149 HD
BRANCH  23  33
ATOM     27  C   UNL     1      -1.433  -0.534   0.013  0.00  0.00    +0.009 C 
ATOM     28  C   UNL     1       0.002  -0.004   0.002  0.00  0.00    +0.006 C 
ATOM     29  C   UNL     1       0.718  -0.497  -1.257  0.00  0.00    +0.005 C 
ATOM     30  C   UNL     1       2.154   0.032  -1.268  0.00  0.00    +0.000 C 
ATOM     31  C   UNL     1       2.133   1.562  -1.259  0.00  0.00    +0.002 C 
ATOM     32  C   UNL     1       1.417   2.055  -0.000  0.00  0.00    +0.022 C 
ATOM     33  C   UNL     1      -0.019   1.526   0.010  0.00  0.00    +0.076 C 
ENDBRANCH  23  33
ENDBRANCH  22  24
ENDBRANCH  20  22
ENDBRANCH   1  20
TORSDOF 6
