REMARK  Name = ZINC22291843
REMARK  7 active torsions:
REMARK  status: ('A' for Active; 'I' for Inactive)
REMARK    1  A    between atoms: C_1  and  C_2
REMARK    2  A    between atoms: C_5  and  C_8
REMARK    3  A    between atoms: C_10  and  C_13
REMARK    4  A    between atoms: C_13  and  C_14
REMARK    5  A    between atoms: C_19  and  C_22
REMARK    6  A    between atoms: C_22  and  N_23
REMARK    7  A    between atoms: C_26  and  C_29
REMARK                            x       y       z     vdW  Elec       q    Type
REMARK                         _______ _______ _______ _____ _____    ______ ____
ROOT
ATOM      1  C   UNL     1       1.262  -6.992   2.886  0.00  0.00    +0.224 C 
ATOM      2  O   UNL     1       2.004  -6.078   2.598  0.00  0.00    -0.275 OA
ATOM      3  N   UNL     1       1.473  -7.704   4.011  0.00  0.00    -0.264 N 
ATOM      4  C   UNL     1       2.542  -7.388   4.842  0.00  0.00    +0.165 A 
ATOM      5  N   UNL     1       2.903  -7.969   5.966  0.00  0.00    -0.231 NA
ATOM      6  C   UNL     1       3.954  -7.548   6.645  0.00  0.00    +0.034 A 
ATOM      7  C   UNL     1       4.637  -6.496   6.132  0.00  0.00    +0.070 A 
ATOM      8  S   UNL     1       3.693  -6.176   4.651  0.00  0.00    -0.060 S 
ATOM      9  H   UNL     1       0.879  -8.435   4.242  0.00  0.00    +0.157 HD
ENDROOT
BRANCH   1  10
ATOM     10  C   UNL     1       0.102  -7.334   1.986  0.00  0.00    +0.152 C 
BRANCH  10  13
ATOM     11  C   UNL     1       0.061  -4.251  -0.021  0.00  0.00    +0.109 A 
ATOM     12  N   UNL     1       0.072  -5.098   0.998  0.00  0.00    -0.243 NA
ATOM     13  C   UNL     1       0.089  -6.396   0.806  0.00  0.00    +0.058 A 
ATOM     14  C   UNL     1       0.097  -6.894  -0.459  0.00  0.00    +0.071 A 
ATOM     15  S   UNL     1       0.068  -5.379  -1.409  0.00  0.00    -0.075 S 
BRANCH  11  20
ATOM     16  C   UNL     1      -0.018   1.503   0.010  0.00  0.00    +0.044 C 
ATOM     17  C   UNL     1       0.002  -0.004   0.002  0.00  0.00    -0.050 A 
ATOM     18  C   UNL     1       0.006  -0.686  -1.202  0.00  0.00    +0.004 A 
ATOM     19  C   UNL     1       0.025  -2.066  -1.216  0.00  0.00    +0.011 A 
ATOM     20  C   UNL     1       0.041  -2.773  -0.013  0.00  0.00    +0.007 A 
ATOM     21  C   UNL     1       0.037  -2.079   1.197  0.00  0.00    +0.011 A 
ATOM     22  C   UNL     1       0.023  -0.699   1.198  0.00  0.00    +0.004 A 
ENDBRANCH  11  20
ENDBRANCH  10  13
ENDBRANCH   1  10
BRANCH   6  23
ATOM     23  C   UNL     1       4.374  -8.207   7.933  0.00  0.00    -0.022 C 
BRANCH  23  24
ATOM     24  N   UNL     1       3.613  -7.630   9.049  0.00  0.00    +0.383 N 
ATOM     25  C   UNL     1       3.962  -6.212   9.197  0.00  0.00    -0.078 C 
ATOM     26  C   UNL     1       3.112  -5.587  10.305  0.00  0.00    -0.016 C 
ATOM     27  C   UNL     1       3.382  -6.320  11.623  0.00  0.00    -0.018 C 
ATOM     28  C   UNL     1       3.085  -7.811  11.435  0.00  0.00    -0.016 C 
ATOM     29  C   UNL     1       3.936  -8.354  10.285  0.00  0.00    -0.078 C 
ATOM     30  C   UNL     1       2.477  -5.752  12.718  0.00  0.00    +0.007 C 
ATOM     31  H   UNL     1       2.625  -7.714   8.860  0.00  0.00    -0.081 HD
ENDBRANCH  23  24
ENDBRANCH   6  23
TORSDOF 5
