REMARK  Name = ZINC44875745
REMARK  10 active torsions:
REMARK  status: ('A' for Active; 'I' for Inactive)
REMARK    1  A    between atoms: C_1  and  C_2
REMARK    2  A    between atoms: N_5  and  C_8
REMARK    3  A    between atoms: C_8  and  C_9
REMARK    4  A    between atoms: C_12  and  C_15
REMARK    5  A    between atoms: C_15  and  N_16
REMARK    6  A    between atoms: C_17  and  C_19
REMARK    7  A    between atoms: C_19  and  N_20
REMARK    8  A    between atoms: N_20  and  C_21
REMARK    9  A    between atoms: N_20  and  S_28
REMARK   10  A    between atoms: S_28  and  C_31
REMARK                            x       y       z     vdW  Elec       q    Type
REMARK                         _______ _______ _______ _____ _____    ______ ____
ROOT
ATOM      1  N   UNL     1       1.536  -6.709   9.470  0.00  0.00    -0.310 N 
ATOM      2  C   UNL     1       2.357  -5.863  10.123  0.00  0.00    +0.232 C 
ATOM      3  O   UNL     1       2.848  -6.191  11.182  0.00  0.00    -0.274 OA
ATOM      4  H   UNL     1       1.143  -6.446   8.622  0.00  0.00    +0.149 HD
ENDROOT
BRANCH   1   5
ATOM      5  C   UNL     1       1.236  -8.024  10.040  0.00  0.00    +0.139 C 
BRANCH   5   9
ATOM      6  C   UNL     1      -1.414 -10.135   7.437  0.00  0.00    -0.064 A 
ATOM      7  C   UNL     1      -0.046 -10.258   7.279  0.00  0.00    +0.002 A 
ATOM      8  C   UNL     1       0.811  -9.575   8.121  0.00  0.00    +0.005 A 
ATOM      9  C   UNL     1       0.301  -8.768   9.121  0.00  0.00    -0.030 A 
ATOM     10  C   UNL     1      -1.067  -8.645   9.279  0.00  0.00    +0.005 A 
ATOM     11  C   UNL     1      -1.924  -9.325   8.434  0.00  0.00    +0.002 A 
BRANCH   6  12
ATOM     12  C   UNL     1      -2.349 -10.880   6.519  0.00  0.00    -0.043 C 
BRANCH  12  17
ATOM     13  C   UNL     1      -3.138  -8.571   1.365  0.00  0.00    +0.007 C 
ATOM     14  C   UNL     1      -2.782  -9.534   2.500  0.00  0.00    -0.018 C 
ATOM     15  C   UNL     1      -4.032  -9.823   3.336  0.00  0.00    -0.016 C 
ATOM     16  C   UNL     1      -3.654 -10.722   4.515  0.00  0.00    -0.078 C 
ATOM     17  N   UNL     1      -2.651 -10.047   5.348  0.00  0.00    +0.382 N 
ATOM     18  C   UNL     1      -1.424  -9.830   4.573  0.00  0.00    -0.078 C 
ATOM     19  C   UNL     1      -1.717  -8.897   3.397  0.00  0.00    -0.016 C 
ATOM     20  H   UNL     1      -3.015  -9.157   5.655  0.00  0.00    -0.081 HD
ENDBRANCH  12  17
ENDBRANCH   6  12
ENDBRANCH   5   9
ENDBRANCH   1   5
BRANCH   2  21
ATOM     21  C   UNL     1       2.666  -4.509   9.536  0.00  0.00    +0.227 C 
BRANCH  21  22
ATOM     22  N   UNL     1       3.575  -3.786  10.429  0.00  0.00    -0.194 N 
BRANCH  22  23
ATOM     23  C   UNL     1       4.954  -3.992  10.338  0.00  0.00    +0.052 A 
ATOM     24  C   UNL     1       5.634  -4.617  11.376  0.00  0.00    +0.026 A 
ATOM     25  C   UNL     1       6.997  -4.819  11.283  0.00  0.00    +0.022 A 
ATOM     26  C   UNL     1       7.685  -4.399  10.158  0.00  0.00    +0.041 A 
ATOM     27  C   UNL     1       7.010  -3.776   9.123  0.00  0.00    +0.022 A 
ATOM     28  C   UNL     1       5.646  -3.577   9.208  0.00  0.00    +0.026 A 
ATOM     29 CL   UNL     1       9.399  -4.654  10.046  0.00  0.00    -0.084 Cl
ENDBRANCH  22  23
BRANCH  22  30
ATOM     30  S   UNL     1       2.967  -2.725  11.546  0.00  0.00    +0.075 S 
ATOM     31  O   UNL     1       4.049  -1.897  11.950  0.00  0.00    -0.150 OA
ATOM     32  O   UNL     1       1.769  -2.197  10.995  0.00  0.00    -0.150 OA
BRANCH  30  33
ATOM     33  C   UNL     1       2.500  -3.668  12.960  0.00  0.00    +0.109 A 
ATOM     34  C   UNL     1       1.271  -4.300  12.993  0.00  0.00    +0.029 A 
ATOM     35  C   UNL     1       0.904  -5.040  14.102  0.00  0.00    +0.002 A 
ATOM     36  C   UNL     1       1.766  -5.147  15.177  0.00  0.00    +0.000 A 
ATOM     37  C   UNL     1       2.995  -4.515  15.143  0.00  0.00    +0.002 A 
ATOM     38  C   UNL     1       3.364  -3.779  14.033  0.00  0.00    +0.029 A 
ENDBRANCH  30  33
ENDBRANCH  22  30
ENDBRANCH  21  22
ENDBRANCH   2  21
TORSDOF 9
