REMARK  Name = ZINC06564153
REMARK  17 active torsions:
REMARK  status: ('A' for Active; 'I' for Inactive)
REMARK    1  A    between atoms: C_1  and  C_2
REMARK    2  A    between atoms: C_2  and  C_3
REMARK    3  A    between atoms: C_2  and  C_4
REMARK    4  A    between atoms: C_4  and  C_6
REMARK    5  A    between atoms: C_4  and  N_20
REMARK    6  A    between atoms: C_6  and  O_8
REMARK    7  A    between atoms: O_8  and  C_9
REMARK    8  A    between atoms: C_9  and  C_10
REMARK    9  A    between atoms: N_15  and  C_16
REMARK   10  A    between atoms: C_16  and  C_17
REMARK   11  A    between atoms: C_16  and  C_18
REMARK   12  A    between atoms: C_16  and  C_19
REMARK   13  A    between atoms: C_21  and  C_23
REMARK   14  A    between atoms: C_26  and  C_29
REMARK   15  A    between atoms: C_29  and  C_30
REMARK   16  A    between atoms: C_29  and  C_31
REMARK   17  A    between atoms: C_29  and  C_32
REMARK                            x       y       z     vdW  Elec       q    Type
REMARK                         _______ _______ _______ _____ _____    ______ ____
ROOT
ATOM      1  C   UNL     1      -2.597   4.183   0.037  0.00  0.00    +0.185 C 
ENDROOT
BRANCH   1   2
ATOM      2  N   UNL     1      -1.320   3.464   0.027  0.00  0.00    -0.298 N 
ATOM      3  C   UNL     1      -1.305   2.116   0.020  0.00  0.00    +0.245 C 
ATOM      4  O   UNL     1      -2.351   1.497   0.021  0.00  0.00    -0.270 OA
ATOM      5  H   UNL     1      -0.486   3.958   0.026  0.00  0.00    +0.150 HD
BRANCH   3   6
ATOM      6  C   UNL     1      -0.017   1.391   0.010  0.00  0.00    +0.037 A 
ATOM      7  C   UNL     1       1.186   2.100   0.002  0.00  0.00    +0.013 A 
ATOM      8  C   UNL     1       2.385   1.417  -0.013  0.00  0.00    +0.005 A 
ATOM      9  C   UNL     1       2.396   0.034  -0.021  0.00  0.00    -0.042 A 
ATOM     10  C   UNL     1       1.208  -0.674  -0.013  0.00  0.00    +0.005 A 
ATOM     11  C   UNL     1       0.002  -0.004   0.002  0.00  0.00    +0.013 A 
BRANCH   9  12
ATOM     12  C   UNL     1       3.710  -0.705  -0.038  0.00  0.00    -0.013 C 
ATOM     13  C   UNL     1       3.788  -1.577  -1.293  0.00  0.00    +0.015 C 
ATOM     14  C   UNL     1       4.862   0.302  -0.044  0.00  0.00    +0.015 C 
ATOM     15  C   UNL     1       3.813  -1.591   1.205  0.00  0.00    +0.015 C 
ENDBRANCH   9  12
ENDBRANCH   3   6
ENDBRANCH   1   2
BRANCH   1  17
ATOM     16  C   UNL     1      -3.290   2.922   2.080  0.00  0.00    +0.009 C 
ATOM     17  C   UNL     1      -3.096   4.315   1.477  0.00  0.00    +0.014 C 
ATOM     18  C   UNL     1      -2.068   5.090   2.304  0.00  0.00    +0.009 C 
ENDBRANCH   1  17
BRANCH   1  19
ATOM     19  C   UNL     1      -2.406   5.554  -0.557  0.00  0.00    +0.328 C 
ATOM     20  O   UNL     1      -1.315   5.897  -0.948  0.00  0.00    -0.249 OA
BRANCH  19  21
ATOM     21  O   UNL     1      -3.448   6.396  -0.651  0.00  0.00    -0.454 OA
BRANCH  21  22
ATOM     22  C   UNL     1      -3.190   7.701  -1.234  0.00  0.00    +0.328 C 
BRANCH  22  23
ATOM     23  C   UNL     1      -4.467   8.501  -1.256  0.00  0.00    +0.258 C 
ATOM     24  O   UNL     1      -5.492   8.020  -0.825  0.00  0.00    -0.272 OA
ATOM     25  N   UNL     1      -4.469   9.752  -1.757  0.00  0.00    -0.237 N 
ATOM     26  C   UNL     1      -5.611  10.468  -1.778  0.00  0.00    +0.306 C 
ATOM     27  O   UNL     1      -6.639   9.986  -1.345  0.00  0.00    -0.252 OA
ATOM     28  N   UNL     1      -5.613  11.720  -2.278  0.00  0.00    -0.294 N 
ATOM     29  H   UNL     1      -3.649  10.138  -2.103  0.00  0.00    +0.159 HD
ATOM     30  H   UNL     1      -4.792  12.105  -2.624  0.00  0.00    +0.151 HD
BRANCH  28  31
ATOM     31  C   UNL     1      -6.854  12.498  -2.301  0.00  0.00    +0.028 C 
ATOM     32  C   UNL     1      -7.373  12.671  -0.872  0.00  0.00    +0.031 C 
ATOM     33  C   UNL     1      -6.583  13.873  -2.915  0.00  0.00    +0.031 C 
ATOM     34  C   UNL     1      -7.902  11.763  -3.139  0.00  0.00    +0.031 C 
ENDBRANCH  28  31
ENDBRANCH  22  23
ENDBRANCH  21  22
ENDBRANCH  19  21
ENDBRANCH   1  19
TORSDOF 9
