REMARK  Name = ZINC19941381
REMARK  7 active torsions:
REMARK  status: ('A' for Active; 'I' for Inactive)
REMARK    1  A    between atoms: C_1  and  C_2
REMARK    2  A    between atoms: C_2  and  C_3
REMARK    3  A    between atoms: C_10  and  C_15
REMARK    4  A    between atoms: C_15  and  C_17
REMARK    5  A    between atoms: C_15  and  N_28
REMARK    6  A    between atoms: N_21  and  C_22
REMARK    7  A    between atoms: N_31  and  C_34
REMARK                            x       y       z     vdW  Elec       q    Type
REMARK                         _______ _______ _______ _____ _____    ______ ____
ROOT
ATOM      1  C   UNL     1       1.817  -1.796  -0.025  0.00  0.00    +0.162 C 
ENDROOT
BRANCH   1   9
ATOM      2  C   UNL     1       2.132  -4.638  -5.512  0.00  0.00    -0.047 A 
ATOM      3  C   UNL     1       3.231  -3.935  -5.988  0.00  0.00    +0.005 A 
ATOM      4  C   UNL     1       3.833  -2.964  -5.218  0.00  0.00    +0.026 A 
ATOM      5  C   UNL     1       3.336  -2.683  -3.949  0.00  0.00    +0.049 A 
ATOM      6  C   UNL     1       2.222  -3.397  -3.470  0.00  0.00    -0.001 A 
ATOM      7  C   UNL     1       1.627  -4.379  -4.270  0.00  0.00    +0.013 A 
ATOM      8  C   UNL     1       1.706  -3.094  -2.134  0.00  0.00    +0.021 A 
ATOM      9  C   UNL     1       2.323  -2.132  -1.403  0.00  0.00    +0.042 A 
ATOM     10  C   UNL     1       3.434  -1.441  -1.933  0.00  0.00    +0.254 A 
ATOM     11  O   UNL     1       3.970  -0.577  -1.262  0.00  0.00    -0.268 OA
ATOM     12  N   UNL     1       3.918  -1.716  -3.157  0.00  0.00    -0.322 N 
ATOM     13  H   UNL     1       4.792  -1.157  -3.523  0.00  0.00    +0.169 HD
BRANCH   2  15
ATOM     14  C   UNL     1       0.395  -5.059  -7.230  0.00  0.00    +0.009 C 
ATOM     15  C   UNL     1       1.492  -5.695  -6.373  0.00  0.00    +0.032 C 
ENDBRANCH   2  15
ENDBRANCH   1   9
BRANCH   1  16
ATOM     16  N   UNL     1       2.915  -1.920   0.944  0.00  0.00    -0.292 NA
ATOM     17  C   UNL     1       3.510  -3.263   0.895  0.00  0.00    +0.067 C 
ATOM     18  C   UNL     1       4.698  -3.326   1.859  0.00  0.00    -0.063 C 
ATOM     19  N   UNL     1       4.240  -3.005   3.218  0.00  0.00    +0.383 N 
ATOM     20  C   UNL     1       3.644  -1.662   3.266  0.00  0.00    -0.063 C 
ATOM     21  C   UNL     1       2.457  -1.599   2.303  0.00  0.00    +0.067 C 
ATOM     22  H   UNL     1       3.463  -3.732   3.495  0.00  0.00    -0.081 HD
BRANCH  19  23
ATOM     23  C   UNL     1       5.338  -3.129   4.186  0.00  0.00    -0.068 C 
ATOM     24  C   UNL     1       6.422  -2.099   3.862  0.00  0.00    -0.015 C 
ATOM     25  C   UNL     1       7.566  -2.228   4.871  0.00  0.00    -0.002 C 
ATOM     26  C   UNL     1       8.159  -3.636   4.791  0.00  0.00    -0.000 C 
ATOM     27  C   UNL     1       7.075  -4.666   5.115  0.00  0.00    -0.002 C 
ATOM     28  C   UNL     1       5.931  -4.537   4.106  0.00  0.00    -0.015 C 
ENDBRANCH  19  23
ENDBRANCH   1  16
BRANCH   1  29
ATOM     29  C   UNL     1       1.294  -0.383  -0.012  0.00  0.00    +0.173 A 
ATOM     30  N   UNL     1       2.008   0.716  -0.013  0.00  0.00    -0.111 NA
ATOM     31  N   UNL     1       1.197   1.718  -0.000  0.00  0.00    -0.023 NA
ATOM     32  N   UNL     1      -0.015   1.286   0.009  0.00  0.00    -0.044 NA
ATOM     33  N   UNL     1       0.002  -0.004   0.002  0.00  0.00    -0.224 N 
BRANCH  33  34
ATOM     34  C   UNL     1      -1.165  -0.890   0.008  0.00  0.00    +0.111 C 
ATOM     35  C   UNL     1      -2.019  -0.617  -1.231  0.00  0.00    +0.027 C 
ATOM     36  C   UNL     1      -3.237  -1.543  -1.224  0.00  0.00    +0.002 C 
ATOM     37  C   UNL     1      -4.068  -1.284   0.035  0.00  0.00    +0.000 C 
ATOM     38  C   UNL     1      -3.213  -1.557   1.274  0.00  0.00    +0.002 C 
ATOM     39  C   UNL     1      -1.995  -0.631   1.267  0.00  0.00    +0.027 C 
ENDBRANCH  33  34
ENDBRANCH   1  29
TORSDOF 6
