REMARK  Name = ZINC19502323
REMARK  7 active torsions:
REMARK  status: ('A' for Active; 'I' for Inactive)
REMARK    1  A    between atoms: C_1  and  C_2
REMARK    2  A    between atoms: C_2  and  C_3
REMARK    3  A    between atoms: C_3  and  C_4
REMARK    4  A    between atoms: C_4  and  C_5
REMARK    5  A    between atoms: C_9  and  C_11
REMARK    6  A    between atoms: C_11  and  N_12
REMARK    7  A    between atoms: C_26  and  C_29
REMARK                            x       y       z     vdW  Elec       q    Type
REMARK                         _______ _______ _______ _____ _____    ______ ____
ROOT
ATOM      1  N   UNL     1       2.609  -2.208  -4.354  0.00  0.00    -0.291 NA
ATOM      2  C   UNL     1       2.808  -1.310  -5.503  0.00  0.00    +0.090 C 
ATOM      3  C   UNL     1       1.478  -0.620  -5.812  0.00  0.00    +0.058 C 
ATOM      4  C   UNL     1       0.899  -0.032  -4.554  0.00  0.00    +0.041 A 
ATOM      5  C   UNL     1       1.325  -0.407  -3.318  0.00  0.00    +0.067 A 
ATOM      6  N   UNL     1       0.770   0.142  -2.233  0.00  0.00    -0.219 NA
ATOM      7  C   UNL     1      -0.185   1.043  -2.324  0.00  0.00    +0.199 A 
ATOM      8  N   UNL     1      -0.649   1.454  -3.535  0.00  0.00    -0.295 N 
ATOM      9  H   UNL     1      -1.452   2.204  -3.590  0.00  0.00    +0.172 HD
ATOM     10  C   UNL     1      -0.119   0.936  -4.662  0.00  0.00    +0.256 A 
ATOM     11  O   UNL     1      -0.518   1.296  -5.758  0.00  0.00    -0.267 OA
ATOM     12  N   UNL     1      -0.723   1.572  -1.182  0.00  0.00    -0.301 N 
ATOM     13  C   UNL     1      -0.013   1.086   0.008  0.00  0.00    +0.108 C 
ATOM     14  C   UNL     1      -0.729   1.579   1.267  0.00  0.00    +0.022 C 
ATOM     15  C   UNL     1      -0.764   3.110   1.262  0.00  0.00    -0.011 C 
ATOM     16  C   UNL     1      -1.466   3.591  -0.011  0.00  0.00    +0.022 C 
ATOM     17  C   UNL     1      -0.729   3.040  -1.234  0.00  0.00    +0.108 C 
ATOM     18  C   UNL     1      -1.532   3.608   2.488  0.00  0.00    +0.007 C 
ATOM     19  C   UNL     1       2.416  -1.428  -3.128  0.00  0.00    +0.140 C 
ENDROOT
BRANCH   1  20
ATOM     20  C   UNL     1       3.737  -3.140  -4.213  0.00  0.00    +0.141 C 
BRANCH  20  25
ATOM     21  C   UNL     1       3.230  -5.172  -1.266  0.00  0.00    +0.086 A 
ATOM     22  N   UNL     1       2.688  -5.992  -2.194  0.00  0.00    -0.334 N 
ATOM     23  H   UNL     1       2.270  -6.964  -1.892  0.00  0.00    +0.168 HD
ATOM     24  C   UNL     1       2.798  -5.362  -3.404  0.00  0.00    +0.129 A 
ATOM     25  C   UNL     1       3.402  -4.180  -3.174  0.00  0.00    +0.067 A 
ATOM     26  N   UNL     1       3.659  -4.093  -1.860  0.00  0.00    -0.345 N 
ATOM     27 CL   UNL     1       2.262  -5.970  -4.939  0.00  0.00    -0.062 Cl
ATOM     28  H   UNL     1       4.142  -3.297  -1.274  0.00  0.00    +0.167 HD
BRANCH  21  29
ATOM     29  C   UNL     1       3.327  -5.460   0.210  0.00  0.00    +0.072 C 
BRANCH  29  30
ATOM     30  C   UNL     1       4.784  -5.332   0.660  0.00  0.00    +0.007 C 
BRANCH  30  32
ATOM     31  C   UNL     1       6.340  -5.496   2.608  0.00  0.00    +0.004 C 
ATOM     32  C   UNL     1       4.883  -5.623   2.158  0.00  0.00    -0.003 C 
ENDBRANCH  30  32
ENDBRANCH  29  30
ENDBRANCH  21  29
ENDBRANCH  20  25
ENDBRANCH   1  20
TORSDOF 5
