REMARK  Name = ZINC11898833
REMARK  8 active torsions:
REMARK  status: ('A' for Active; 'I' for Inactive)
REMARK    1  A    between atoms: C_1  and  N_2
REMARK    2  A    between atoms: C_6  and  C_7
REMARK    3  A    between atoms: C_7  and  C_9
REMARK    4  A    between atoms: C_7  and  N_58
REMARK    5  A    between atoms: C_9  and  N_10
REMARK    6  A    between atoms: C_11  and  C_13
REMARK    7  A    between atoms: N_15  and  C_16
REMARK    8  A    between atoms: C_16  and  C_17
REMARK                            x       y       z     vdW  Elec       q    Type
REMARK                         _______ _______ _______ _____ _____    ______ ____
ROOT
ATOM      1  C   UNL     1       1.520   1.624   0.112  0.00  0.00    +0.095 C 
ENDROOT
BRANCH   1   2
ATOM      2  N   UNL     1       1.497   3.083   0.238  0.00  0.00    -0.309 N 
ATOM      3  C   UNL     1       2.647   3.762   0.420  0.00  0.00    +0.299 C 
ATOM      4  O   UNL     1       3.709   3.176   0.388  0.00  0.00    -0.265 OA
ATOM      5  H   UNL     1       0.654   3.561   0.191  0.00  0.00    +0.149 HD
BRANCH   3   6
ATOM      6  C   UNL     1       2.614   5.237   0.663  0.00  0.00    +0.299 C 
ATOM      7  O   UNL     1       1.551   5.807   0.788  0.00  0.00    -0.265 OA
ATOM      8  N   UNL     1       3.766   5.932   0.743  0.00  0.00    -0.303 N 
ATOM      9  H   UNL     1       4.616   5.476   0.642  0.00  0.00    +0.149 HD
BRANCH   8  10
ATOM     10  C   UNL     1       3.733   7.378   0.980  0.00  0.00    +0.141 C 
BRANCH  10  11
ATOM     11  C   UNL     1       5.142   7.911   1.026  0.00  0.00    -0.012 A 
ATOM     12  C   UNL     1       5.748   8.162   2.243  0.00  0.00    +0.006 A 
ATOM     13  C   UNL     1       7.041   8.647   2.284  0.00  0.00    +0.000 A 
ATOM     14  C   UNL     1       7.727   8.890   1.109  0.00  0.00    +0.001 A 
ATOM     15  C   UNL     1       7.121   8.645  -0.109  0.00  0.00    +0.020 A 
ATOM     16  C   UNL     1       5.828   8.155  -0.151  0.00  0.00    +0.046 A 
ATOM     17 CL   UNL     1       5.066   7.846  -1.680  0.00  0.00    -0.083 Cl
ENDBRANCH  10  11
ENDBRANCH   8  10
ENDBRANCH   3   6
ENDBRANCH   1   2
BRANCH   1  18
ATOM     18  C   UNL     1       0.086   1.096   0.037  0.00  0.00    -0.003 C 
BRANCH  18  25
ATOM     19  C   UNL     1       0.138   1.491   2.434  0.00  0.00    -0.078 C 
ATOM     20  C   UNL     1      -0.674   1.710   3.682  0.00  0.00    -0.019 C 
ATOM     21  C   UNL     1      -1.126   0.336   4.219  0.00  0.00    -0.002 C 
ATOM     22  C   UNL     1      -2.263  -0.198   3.477  0.00  0.00    -0.002 C 
ATOM     23  C   UNL     1      -1.934  -0.419   1.985  0.00  0.00    -0.019 C 
ATOM     24  C   UNL     1      -1.993   0.910   1.282  0.00  0.00    -0.078 C 
ATOM     25  N   UNL     1      -0.676   1.626   1.179  0.00  0.00    +0.386 N 
ATOM     26  H   UNL     1      -0.861   2.623   1.019  0.00  0.00    -0.081 HD
ENDBRANCH  18  25
BRANCH  18  32
ATOM     27  C   UNL     1       0.948   0.423  -2.865  0.00  0.00    +0.148 C 
ATOM     28  N   UNL     1      -0.178   1.287  -2.499  0.00  0.00    -0.355 N 
ATOM     29  C   UNL     1      -1.010   1.921  -3.374  0.00  0.00    +0.085 A 
ATOM     30  C   UNL     1      -1.917   2.620  -2.663  0.00  0.00    +0.019 A 
ATOM     31  C   UNL     1      -1.638   2.406  -1.298  0.00  0.00    +0.021 A 
ATOM     32  C   UNL     1      -0.566   1.591  -1.228  0.00  0.00    +0.006 A 
ENDBRANCH  18  32
ENDBRANCH   1  18
TORSDOF 7
