REMARK  Name = ZINC59593487
REMARK  6 active torsions:
REMARK  status: ('A' for Active; 'I' for Inactive)
REMARK    1  A    between atoms: C_1  and  N_2
REMARK    2  A    between atoms: N_2  and  C_3
REMARK    3  A    between atoms: N_2  and  C_4
REMARK    4  A    between atoms: C_5  and  C_6
REMARK    5  A    between atoms: C_7  and  C_8
REMARK    6  A    between atoms: C_19  and  N_22
REMARK                            x       y       z     vdW  Elec       q    Type
REMARK                         _______ _______ _______ _____ _____    ______ ____
ROOT
ATOM      1  C   UNL     1       0.043   1.404  -4.787  0.00  0.00    +0.009 C 
ATOM      2  C   UNL     1       0.232   2.079  -6.011  0.00  0.00    -0.010 C 
ATOM      3  C   UNL     1       0.045   1.511  -7.356  0.00  0.00    -0.010 A 
ATOM      4  C   UNL     1      -0.343   0.243  -7.796  0.00  0.00    +0.009 A 
ATOM      5  C   UNL     1      -0.438  -0.016  -9.154  0.00  0.00    +0.001 A 
ATOM      6  C   UNL     1      -0.150   0.974 -10.073  0.00  0.00    +0.001 A 
ATOM      7  C   UNL     1       0.237   2.241  -9.649  0.00  0.00    +0.009 A 
ATOM      8  C   UNL     1       0.337   2.518  -8.296  0.00  0.00    -0.010 A 
ATOM      9  C   UNL     1       0.718   3.751  -7.559  0.00  0.00    -0.009 A 
ATOM     10  C   UNL     1       0.647   3.481  -6.177  0.00  0.00    -0.007 A 
ATOM     11  C   UNL     1       0.954   4.487  -5.258  0.00  0.00    +0.041 A 
ATOM     12  C   UNL     1       1.323   5.744  -5.709  0.00  0.00    +0.127 A 
ATOM     13  C   UNL     1       1.388   6.007  -7.063  0.00  0.00    +0.033 A 
ATOM     14  C   UNL     1       1.092   5.012  -7.990  0.00  0.00    +0.011 A 
ENDROOT
BRANCH  12  15
ATOM     15  N   UNL     1       1.648   6.810  -4.735  0.00  0.00    +0.056 N 
ATOM     16  O   UNL     1       1.586   6.563  -3.443  0.00  0.00    -0.126 OA
ATOM     17  O   UNL     1       1.998   8.006  -5.161  0.00  0.00    -0.126 OA
ENDBRANCH  12  15
BRANCH   1  19
ATOM     18  C   UNL     1      -0.034   1.416  -2.378  0.00  0.00    +0.001 C 
ATOM     19  C   UNL     1       0.044   2.105  -3.614  0.00  0.00    +0.001 C 
BRANCH  18  21
ATOM     20  C   UNL     1      -0.292  -0.623  -1.140  0.00  0.00    +0.069 C 
ATOM     21  C   UNL     1      -0.109   0.055  -2.359  0.00  0.00    +0.015 C 
BRANCH  20  23
ATOM     22  C   UNL     1      -1.558   1.175  -0.116  0.00  0.00    +0.128 C 
ATOM     23  N   UNL     1      -0.611   0.060  -0.038  0.00  0.00    -0.342 N 
ATOM     24  C   UNL     1      -0.013  -0.305   1.248  0.00  0.00    +0.128 C 
ENDBRANCH  20  23
ENDBRANCH  18  21
ENDBRANCH   1  19
TORSDOF 4
