REMARK  Name = ZINC34261606
REMARK  6 active torsions:
REMARK  status: ('A' for Active; 'I' for Inactive)
REMARK    1  A    between atoms: C_1  and  C_2
REMARK    2  A    between atoms: C_2  and  C_3
REMARK    3  A    between atoms: C_2  and  C_4
REMARK    4  A    between atoms: C_2  and  C_5
REMARK    5  A    between atoms: C_8  and  C_11
REMARK    6  A    between atoms: N_26  and  C_27
REMARK                            x       y       z     vdW  Elec       q    Type
REMARK                         _______ _______ _______ _____ _____    ______ ____
ROOT
ATOM      1  C   UNL     1       2.707  -1.868  -4.752  0.00  0.00    +0.144 C 
ATOM      2  C   UNL     1       2.758  -0.782  -5.776  0.00  0.00    +0.072 A 
ATOM      3  C   UNL     1       1.688  -0.059  -6.472  0.00  0.00    +0.199 A 
ATOM      4  O   UNL     1       0.513  -0.146  -6.162  0.00  0.00    -0.287 OA
ATOM      5  C   UNL     1       2.173   0.789  -7.590  0.00  0.00    +0.065 A 
ATOM      6  C   UNL     1       1.268   1.381  -8.471  0.00  0.00    +0.030 A 
ATOM      7  C   UNL     1       1.737   2.160  -9.506  0.00  0.00    +0.019 A 
ATOM      8  C   UNL     1       3.103   2.353  -9.668  0.00  0.00    +0.019 A 
ATOM      9  C   UNL     1       4.004   1.775  -8.804  0.00  0.00    +0.048 A 
ATOM     10  C   UNL     1       3.555   0.984  -7.747  0.00  0.00    +0.140 A 
ATOM     11  O   UNL     1       4.462   0.436  -6.906  0.00  0.00    -0.450 OA
ATOM     12  C   UNL     1       4.072  -0.507  -6.027  0.00  0.00    +0.199 A 
ATOM     13  C   UNL     1       4.898  -1.397  -5.192  0.00  0.00    +0.283 C 
ATOM     14  O   UNL     1       6.113  -1.410  -5.179  0.00  0.00    -0.267 OA
ATOM     15  N   UNL     1       4.108  -2.196  -4.443  0.00  0.00    -0.287 N 
ATOM     16  C   UNL     1       4.565  -3.211  -3.490  0.00  0.00    +0.133 C 
ATOM     17 BR   UNL     1       0.519   2.968 -10.706  0.00  0.00    -0.050 Br
ENDROOT
BRANCH   1  21
ATOM     18  C   UNL     1       0.707  -0.490  -1.238  0.00  0.00    -0.042 A 
ATOM     19  C   UNL     1       0.036  -1.284  -2.148  0.00  0.00    +0.004 A 
ATOM     20  C   UNL     1       0.683  -1.730  -3.286  0.00  0.00    +0.006 A 
ATOM     21  C   UNL     1       2.001  -1.381  -3.513  0.00  0.00    -0.022 A 
ATOM     22  C   UNL     1       2.672  -0.586  -2.603  0.00  0.00    +0.006 A 
ATOM     23  C   UNL     1       2.024  -0.137  -1.467  0.00  0.00    +0.004 A 
BRANCH  18  25
ATOM     24  C   UNL     1      -0.019   1.526   0.010  0.00  0.00    +0.015 C 
ATOM     25  C   UNL     1       0.002  -0.004   0.002  0.00  0.00    -0.013 C 
ATOM     26  C   UNL     1       0.742  -0.511   1.242  0.00  0.00    +0.015 C 
ATOM     27  C   UNL     1      -1.433  -0.534   0.013  0.00  0.00    +0.015 C 
ENDBRANCH  18  25
ENDBRANCH   1  21
TORSDOF 2
