REMARK  Name = ZINC33459791
REMARK  9 active torsions:
REMARK  status: ('A' for Active; 'I' for Inactive)
REMARK    1  A    between atoms: C_1  and  C_2
REMARK    2  A    between atoms: C_7  and  N_27
REMARK    3  A    between atoms: C_16  and  O_25
REMARK    4  A    between atoms: C_18  and  O_23
REMARK    5  A    between atoms: O_23  and  C_24
REMARK    6  A    between atoms: O_25  and  C_26
REMARK    7  A    between atoms: N_27  and  C_28
REMARK    8  A    between atoms: C_28  and  C_29
REMARK    9  A    between atoms: C_29  and  C_30
REMARK                            x       y       z     vdW  Elec       q    Type
REMARK                         _______ _______ _______ _____ _____    ______ ____
ROOT
ATOM      1  C   UNL     1      -2.835  -0.497  -0.628  0.00  0.00    +0.052 C 
ATOM      2  C   UNL     1      -3.103   0.556   0.449  0.00  0.00    +0.174 C 
ATOM      3  C   UNL     1      -2.920  -0.072   1.832  0.00  0.00    +0.044 C 
ATOM      4  C   UNL     1      -3.462  -1.502   1.818  0.00  0.00    +0.002 C 
ATOM      5  C   UNL     1      -2.555  -2.402   2.660  0.00  0.00    -0.016 C 
ATOM      6  C   UNL     1      -1.098  -2.190   2.246  0.00  0.00    -0.072 C 
ATOM      7  C   UNL     1      -0.422  -1.235   3.231  0.00  0.00    -0.015 C 
ATOM      8  C   UNL     1       0.977  -0.880   2.723  0.00  0.00    +0.002 C 
ATOM      9  C   UNL     1       0.875   0.227   1.673  0.00  0.00    +0.027 C 
ATOM     10  C   UNL     1       1.661  -0.168   0.451  0.00  0.00    -0.026 C 
ATOM     11  C   UNL     1       1.932   0.712  -0.506  0.00  0.00    +0.005 C 
ATOM     12  C   UNL     1       1.455   2.102  -0.424  0.00  0.00    -0.004 A 
ATOM     13  C   UNL     1       2.369   3.139  -0.614  0.00  0.00    +0.054 A 
ATOM     14  C   UNL     1       1.959   4.460  -0.508  0.00  0.00    +0.124 A 
ATOM     15  C   UNL     1       0.637   4.765  -0.211  0.00  0.00    +0.092 A 
ATOM     16  C   UNL     1      -0.287   3.752  -0.030  0.00  0.00    +0.138 A 
ATOM     17  C   UNL     1       0.109   2.409  -0.143  0.00  0.00    +0.108 A 
ATOM     18  C   UNL     1      -0.887   1.342   0.026  0.00  0.00    +0.344 C 
ATOM     19  O   UNL     1      -0.553   0.177  -0.071  0.00  0.00    -0.245 OA
ATOM     20  O   UNL     1      -2.172   1.658   0.285  0.00  0.00    -0.458 OA
ENDROOT
BRANCH   6  21
ATOM     21  N   UNL     1      -1.051  -1.615   0.895  0.00  0.00    +0.381 N 
ATOM     22  H   UNL     1      -1.877  -0.899   0.773  0.00  0.00    -0.086 HD
ATOM     23  H   UNL     1      -0.092  -1.095   0.751  0.00  0.00    -0.086 HD
BRANCH  21  24
ATOM     24  C   UNL     1      -1.178  -2.661  -0.128  0.00  0.00    -0.078 C 
BRANCH  24  25
ATOM     25  C   UNL     1      -0.600  -2.154  -1.450  0.00  0.00    +0.016 C 
BRANCH  25  26
ATOM     26  C   UNL     1      -0.779  -3.207  -2.513  0.00  0.00    -0.049 A 
ATOM     27  C   UNL     1       0.246  -4.092  -2.790  0.00  0.00    +0.003 A 
ATOM     28  C   UNL     1       0.079  -5.061  -3.762  0.00  0.00    +0.000 A 
ATOM     29  C   UNL     1      -1.110  -5.138  -4.464  0.00  0.00    +0.000 A 
ATOM     30  C   UNL     1      -2.133  -4.250  -4.191  0.00  0.00    +0.000 A 
ATOM     31  C   UNL     1      -1.968  -3.284  -3.216  0.00  0.00    +0.003 A 
ENDBRANCH  25  26
ENDBRANCH  24  25
ENDBRANCH  21  24
ENDBRANCH   6  21
BRANCH  16  32
ATOM     32  O   UNL     1      -1.577   4.055   0.258  0.00  0.00    -0.494 OA
ATOM     33  C   UNL     1      -1.911   5.441   0.358  0.00  0.00    +0.277 C 
ENDBRANCH  16  32
BRANCH  14  34
ATOM     34  O   UNL     1       2.856   5.461  -0.694  0.00  0.00    -0.495 OA
ATOM     35  C   UNL     1       2.369   6.799  -0.571  0.00  0.00    +0.277 C 
ENDBRANCH  14  34
TORSDOF 6
