REMARK  Name = ZINC00093438
REMARK  1 active torsions:
REMARK  status: ('A' for Active; 'I' for Inactive)
REMARK    1  A    between atoms: C_8  and  C_12
REMARK                            x       y       z     vdW  Elec       q    Type
REMARK                         _______ _______ _______ _____ _____    ______ ____
ROOT
ATOM      1  C   UNL     1       4.834   3.978  -0.025  0.00  0.00    +0.257 C 
ATOM      2  O   UNL     1       5.884   3.364  -0.038  0.00  0.00    -0.270 OA
ATOM      3  N   UNL     1       4.842   5.326  -0.018  0.00  0.00    -0.260 N 
ATOM      4  C   UNL     1       6.049   6.013  -0.027  0.00  0.00    +0.165 A 
ATOM      5  N   UNL     1       7.275   5.533  -0.036  0.00  0.00    -0.229 NA
ATOM      6  C   UNL     1       8.346   6.323  -0.049  0.00  0.00    +0.054 A 
ATOM      7  C   UNL     1       8.100   7.659  -0.040  0.00  0.00    +0.014 A 
ATOM      8  S   UNL     1       6.329   7.729  -0.022  0.00  0.00    -0.057 S 
ATOM      9  C   UNL     1       9.092   8.772  -0.043  0.00  0.00    +0.044 C 
ATOM     10  C   UNL     1      10.470   8.189   0.309  0.00  0.00    +0.006 C 
ATOM     11  C   UNL     1      10.703   6.933  -0.535  0.00  0.00    +0.006 C 
ATOM     12  C   UNL     1       9.780   5.806  -0.066  0.00  0.00    +0.056 C 
ATOM     13  H   UNL     1       4.005   5.816  -0.008  0.00  0.00    +0.157 HD
ENDROOT
BRANCH   1  21
ATOM     14  C   UNL     1      -1.250   3.137   0.030  0.00  0.00    +0.001 A 
ATOM     15  C   UNL     1      -1.216   1.749   0.017  0.00  0.00    +0.004 A 
ATOM     16  C   UNL     1      -0.013   1.076   0.008  0.00  0.00    +0.047 A 
ATOM     17  C   UNL     1       1.182   1.788   0.000  0.00  0.00    +0.139 A 
ATOM     18  C   UNL     1       1.145   3.193   0.008  0.00  0.00    +0.018 A 
ATOM     19  C   UNL     1      -0.091   3.857   0.023  0.00  0.00    +0.011 A 
ATOM     20  C   UNL     1       2.353   3.936  -0.000  0.00  0.00    +0.031 A 
ATOM     21  C   UNL     1       3.555   3.249  -0.015  0.00  0.00    +0.122 A 
ATOM     22  C   UNL     1       3.531   1.782  -0.022  0.00  0.00    +0.350 A 
ATOM     23  O   UNL     1       4.576   1.158  -0.036  0.00  0.00    -0.244 OA
ATOM     24  O   UNL     1       2.359   1.126  -0.014  0.00  0.00    -0.422 OA
ENDBRANCH   1  21
TORSDOF 1
