REMARK  Name = ZINC38587346
REMARK  7 active torsions:
REMARK  status: ('A' for Active; 'I' for Inactive)
REMARK    1  A    between atoms: C_1  and  C_2
REMARK    2  A    between atoms: C_2  and  C_3
REMARK    3  A    between atoms: C_2  and  C_4
REMARK    4  A    between atoms: C_4  and  C_5
REMARK    5  A    between atoms: C_7  and  C_11
REMARK    6  A    between atoms: C_15  and  C_20
REMARK    7  A    between atoms: C_20  and  C_21
REMARK                            x       y       z     vdW  Elec       q    Type
REMARK                         _______ _______ _______ _____ _____    ______ ____
ROOT
ATOM      1  C   UNL     1      -1.046  -0.750   5.601  0.00  0.00    +0.182 C 
ATOM      2  N   UNL     1      -1.526   0.055   6.756  0.00  0.00    -0.265 N 
ATOM      3  N   UNL     1      -0.701   0.052   7.842  0.00  0.00    -0.224 N 
ATOM      4  C   UNL     1      -0.805   0.309   9.197  0.00  0.00    +0.156 A 
ATOM      5  N   UNL     1       0.377   0.178   9.722  0.00  0.00    -0.132 NA
ATOM      6  N   UNL     1       1.228  -0.159   8.817  0.00  0.00    -0.121 NA
ATOM      7  C   UNL     1       0.623  -0.265   7.676  0.00  0.00    +0.210 A 
ATOM      8  S   UNL     1       0.765  -0.673   5.947  0.00  0.00    -0.058 S 
ATOM      9  H   UNL     1      -1.747   0.998   6.473  0.00  0.00    +0.168 HD
ENDROOT
BRANCH   1  12
ATOM     10  C   UNL     1      -0.030  -0.130   2.478  0.00  0.00    +0.062 C 
ATOM     11  C   UNL     1      -0.901  -0.924   3.103  0.00  0.00    +0.029 C 
ATOM     12  C   UNL     1      -1.393  -0.084   4.268  0.00  0.00    +0.185 C 
ATOM     13  N   UNL     1      -0.650   1.178   4.103  0.00  0.00    -0.177 NA
ATOM     14  N   UNL     1       0.071   1.062   3.109  0.00  0.00    -0.159 NA
BRANCH  10  15
ATOM     15  C   UNL     1       0.742  -0.511   1.242  0.00  0.00    +0.060 C 
BRANCH  15  17
ATOM     16  C   UNL     1      -0.019   1.526   0.010  0.00  0.00    +0.007 C 
ATOM     17  C   UNL     1       0.002  -0.004   0.002  0.00  0.00    -0.011 C 
ATOM     18  C   UNL     1       0.718  -0.497  -1.257  0.00  0.00    +0.007 C 
ENDBRANCH  15  17
ENDBRANCH  10  15
ENDBRANCH   1  12
BRANCH   4  19
ATOM     19  C   UNL     1      -2.066   0.678   9.935  0.00  0.00    +0.113 C 
BRANCH  19  20
ATOM     20  C   UNL     1      -2.748  -0.574  10.422  0.00  0.00    -0.040 A 
ATOM     21  C   UNL     1      -3.674  -1.214   9.619  0.00  0.00    +0.005 A 
ATOM     22  C   UNL     1      -4.299  -2.363  10.065  0.00  0.00    +0.020 A 
ATOM     23  C   UNL     1      -3.999  -2.872  11.316  0.00  0.00    +0.041 A 
ATOM     24  C   UNL     1      -3.072  -2.232  12.119  0.00  0.00    +0.020 A 
ATOM     25  C   UNL     1      -2.443  -1.086  11.669  0.00  0.00    +0.005 A 
ATOM     26 CL   UNL     1      -4.785  -4.315  11.877  0.00  0.00    -0.084 Cl
ENDBRANCH  19  20
ENDBRANCH   4  19
TORSDOF 5
