REMARK  Name = ZINC06587784
REMARK  7 active torsions:
REMARK  status: ('A' for Active; 'I' for Inactive)
REMARK    1  A    between atoms: C_1  and  C_2
REMARK    2  A    between atoms: C_7  and  N_12
REMARK    3  A    between atoms: C_9  and  C_11
REMARK    4  A    between atoms: C_13  and  C_15
REMARK    5  A    between atoms: C_15  and  O_16
REMARK    6  A    between atoms: O_16  and  C_17
REMARK    7  A    between atoms: C_17  and  C_19
REMARK                            x       y       z     vdW  Elec       q    Type
REMARK                         _______ _______ _______ _____ _____    ______ ____
ROOT
ATOM      1  C   UNL     1      -2.287  -4.298   1.743  0.00  0.00    +0.328 C 
ENDROOT
BRANCH   1   3
ATOM      2  N   UNL     1      -0.612  -2.548   1.244  0.00  0.00    -0.309 N 
ATOM      3  C   UNL     1      -0.873  -3.776   1.733  0.00  0.00    +0.251 C 
ATOM      4  O   UNL     1       0.030  -4.462   2.164  0.00  0.00    -0.272 OA
ATOM      5  H   UNL     1      -1.333  -2.000   0.898  0.00  0.00    +0.149 HD
BRANCH   2  11
ATOM      6  C   UNL     1      -0.019   1.526   0.010  0.00  0.00    +0.008 C 
ATOM      7  C   UNL     1       0.002  -0.004   0.002  0.00  0.00    -0.009 C 
ATOM      8  C   UNL     1       0.718  -0.497  -1.257  0.00  0.00    +0.003 C 
ATOM      9  C   UNL     1       0.739  -2.027  -1.265  0.00  0.00    +0.002 C 
ATOM     10  C   UNL     1       1.479  -2.534  -0.026  0.00  0.00    +0.022 C 
ATOM     11  C   UNL     1       0.763  -2.041   1.233  0.00  0.00    +0.076 C 
ATOM     12  C   UNL     1       0.742  -0.511   1.242  0.00  0.00    +0.009 C 
ATOM     13  C   UNL     1       0.026  -0.018   2.500  0.00  0.00    +0.009 C 
ENDBRANCH   2  11
ENDBRANCH   1   3
BRANCH   1  14
ATOM     14  O   UNL     1      -2.306  -5.611   2.306  0.00  0.00    -0.451 OA
BRANCH  14  15
ATOM     15  C   UNL     1      -3.504  -6.225   2.389  0.00  0.00    +0.348 C 
ATOM     16  O   UNL     1      -4.505  -5.659   1.994  0.00  0.00    -0.244 OA
BRANCH  15  17
ATOM     17  C   UNL     1      -3.599  -7.574   2.955  0.00  0.00    +0.116 A 
ATOM     18  C   UNL     1      -4.706  -8.351   3.116  0.00  0.00    +0.070 A 
ATOM     19  C   UNL     1      -4.587  -9.632   3.686  0.00  0.00    +0.008 A 
ATOM     20  C   UNL     1      -5.611 -10.581   3.934  0.00  0.00    +0.010 A 
ATOM     21  C   UNL     1      -5.323 -11.783   4.497  0.00  0.00    +0.001 A 
ATOM     22  C   UNL     1      -4.024 -12.130   4.850  0.00  0.00    +0.001 A 
ATOM     23  C   UNL     1      -2.997 -11.236   4.625  0.00  0.00    +0.016 A 
ATOM     24  C   UNL     1      -3.275 -10.011   4.055  0.00  0.00    +0.022 A 
ATOM     25  S   UNL     1      -2.292  -8.606   3.596  0.00  0.00    -0.080 S 
ATOM     26 CL   UNL     1      -6.262  -7.761   2.619  0.00  0.00    -0.082 Cl
ENDBRANCH  15  17
ENDBRANCH  14  15
ENDBRANCH   1  14
TORSDOF 5
