REMARK  Name = ZINC59588809
REMARK  8 active torsions:
REMARK  status: ('A' for Active; 'I' for Inactive)
REMARK    1  A    between atoms: C_1  and  C_2
REMARK    2  A    between atoms: C_2  and  C_3
REMARK    3  A    between atoms: C_2  and  C_4
REMARK    4  A    between atoms: C_4  and  C_6
REMARK    5  A    between atoms: C_4  and  N_24
REMARK    6  A    between atoms: N_8  and  C_9
REMARK    7  A    between atoms: C_12  and  C_15
REMARK    8  A    between atoms: C_25  and  C_27
REMARK                            x       y       z     vdW  Elec       q    Type
REMARK                         _______ _______ _______ _____ _____    ______ ____
ROOT
ATOM      1  C   UNL     1       0.737  -0.015  -2.667  0.00  0.00    +0.238 C 
ATOM      2  O   UNL     1       0.740  -0.764  -3.621  0.00  0.00    -0.273 OA
ATOM      3  N   UNL     1       0.201   1.216  -2.779  0.00  0.00    -0.284 N 
ATOM      4  H   UNL     1       0.144   1.793  -2.001  0.00  0.00    +0.155 HD
ENDROOT
BRANCH   3   5
ATOM      5  C   UNL     1      -0.273   1.663  -4.017  0.00  0.00    +0.033 A 
ATOM      6  C   UNL     1      -0.894   0.773  -4.884  0.00  0.00    +0.024 A 
ATOM      7  C   UNL     1      -1.363   1.211  -6.105  0.00  0.00    +0.012 A 
ATOM      8  C   UNL     1      -1.213   2.548  -6.468  0.00  0.00    -0.000 A 
ATOM      9  C   UNL     1      -0.589   3.439  -5.597  0.00  0.00    +0.012 A 
ATOM     10  C   UNL     1      -0.128   2.998  -4.375  0.00  0.00    +0.024 A 
BRANCH   8  11
ATOM     11  C   UNL     1      -1.715   3.022  -7.782  0.00  0.00    +0.064 A 
ATOM     12  C   UNL     1      -2.344   2.264  -8.720  0.00  0.00    +0.113 A 
ATOM     13  N   UNL     1      -2.631   3.095  -9.761  0.00  0.00    -0.335 N 
ATOM     14  C   UNL     1      -2.175   4.329  -9.438  0.00  0.00    +0.087 A 
ATOM     15  N   UNL     1      -1.636   4.283  -8.256  0.00  0.00    -0.343 N 
ATOM     16  C   UNL     1      -2.300   5.537 -10.338  0.00  0.00    +0.072 C 
ATOM     17  C   UNL     1      -2.633   5.048 -11.753  0.00  0.00    +0.009 C 
ATOM     18  C   UNL     1      -3.790   4.048 -11.682  0.00  0.00    +0.022 C 
ATOM     19  C   UNL     1      -3.309   2.755 -11.015  0.00  0.00    +0.123 C 
ATOM     20  H   UNL     1      -1.237   5.035  -7.790  0.00  0.00    +0.167 HD
ENDBRANCH   8  11
ENDBRANCH   3   5
BRANCH   1  21
ATOM     21  C   UNL     1       1.334  -0.461  -1.357  0.00  0.00    +0.162 C 
BRANCH  21  22
ATOM     22  N   UNL     1       2.306  -1.530  -1.602  0.00  0.00    -0.300 N 
ATOM     23  C   UNL     1       3.307  -1.744  -0.725  0.00  0.00    +0.245 C 
ATOM     24  O   UNL     1       3.403  -1.051   0.269  0.00  0.00    -0.270 OA
ATOM     25  H   UNL     1       2.229  -2.083  -2.395  0.00  0.00    +0.150 HD
BRANCH  23  26
ATOM     26  C   UNL     1       4.287  -2.822  -0.972  0.00  0.00    +0.037 A 
ATOM     27  C   UNL     1       4.183  -3.616  -2.115  0.00  0.00    +0.014 A 
ATOM     28  C   UNL     1       5.101  -4.620  -2.341  0.00  0.00    +0.021 A 
ATOM     29  C   UNL     1       6.125  -4.841  -1.435  0.00  0.00    +0.041 A 
ATOM     30  C   UNL     1       6.234  -4.057  -0.298  0.00  0.00    +0.021 A 
ATOM     31  C   UNL     1       5.325  -3.047  -0.065  0.00  0.00    +0.014 A 
ATOM     32 CL   UNL     1       7.276  -6.108  -1.724  0.00  0.00    -0.084 Cl
ENDBRANCH  23  26
ENDBRANCH  21  22
BRANCH  21  34
ATOM     33  C   UNL     1      -0.534  -2.107  -1.149  0.00  0.00    +0.009 C 
ATOM     34  C   UNL     1       0.224  -0.982  -0.442  0.00  0.00    +0.012 C 
ATOM     35  C   UNL     1       0.839  -1.516   0.853  0.00  0.00    +0.009 C 
ENDBRANCH  21  34
ENDBRANCH   1  21
TORSDOF 6
