REMARK  Name = ZINC25623264
REMARK  5 active torsions:
REMARK  status: ('A' for Active; 'I' for Inactive)
REMARK    1  A    between atoms: C_4  and  C_7
REMARK    2  A    between atoms: C_7  and  C_8
REMARK    3  A    between atoms: C_8  and  C_10
REMARK    4  A    between atoms: C_8  and  N_16
REMARK    5  A    between atoms: C_17  and  C_19
REMARK                            x       y       z     vdW  Elec       q    Type
REMARK                         _______ _______ _______ _____ _____    ______ ____
ROOT
ATOM      1  N   UNL     1      -1.228  -0.155   2.111  0.00  0.00    -0.304 N 
ATOM      2  C   UNL     1      -1.265  -0.036   3.453  0.00  0.00    +0.245 C 
ATOM      3  O   UNL     1      -0.260  -0.233   4.108  0.00  0.00    -0.270 OA
ATOM      4  H   UNL     1      -2.137   0.024   1.518  0.00  0.00    +0.150 HD
ENDROOT
BRANCH   2   5
ATOM      5  C   UNL     1      -2.524   0.334   4.126  0.00  0.00    +0.039 A 
ATOM      6  C   UNL     1      -3.678   0.566   3.372  0.00  0.00    +0.014 A 
ATOM      7  C   UNL     1      -4.856   0.906   3.998  0.00  0.00    +0.017 A 
ATOM      8  C   UNL     1      -4.894   1.030   5.382  0.00  0.00    +0.029 A 
ATOM      9  C   UNL     1      -3.744   0.803   6.141  0.00  0.00    +0.048 A 
ATOM     10  C   UNL     1      -2.561   0.457   5.519  0.00  0.00    +0.037 A 
ATOM     11  N   UNL     1      -3.804   0.929   7.538  0.00  0.00    -0.285 N 
ATOM     12  C   UNL     1      -4.760   0.299   8.233  0.00  0.00    +0.218 C 
ATOM     13  O   UNL     1      -4.919   0.569   9.405  0.00  0.00    -0.275 OA
ATOM     14  C   UNL     1      -5.637  -0.734   7.590  0.00  0.00    +0.107 C 
ATOM     15  C   UNL     1      -6.902  -0.079   7.009  0.00  0.00    +0.083 C 
ATOM     16  S   UNL     1      -6.391   1.474   6.201  0.00  0.00    -0.123 S 
ATOM     17  H   UNL     1      -3.065   1.548   8.067  0.00  0.00    +0.155 HD
ENDBRANCH   2   5
BRANCH   1  18
ATOM     18  C   UNL     1       0.023  -0.522   1.442  0.00  0.00    +0.108 C 
BRANCH  18  19
ATOM     19  C   UNL     1       0.167  -2.022   1.434  0.00  0.00    -0.027 A 
ATOM     20  C   UNL     1      -0.937  -2.821   1.205  0.00  0.00    +0.005 A 
ATOM     21  C   UNL     1      -0.804  -4.197   1.193  0.00  0.00    +0.000 A 
ATOM     22  C   UNL     1       0.431  -4.774   1.421  0.00  0.00    +0.000 A 
ATOM     23  C   UNL     1       1.535  -3.975   1.655  0.00  0.00    +0.000 A 
ATOM     24  C   UNL     1       1.402  -2.599   1.662  0.00  0.00    +0.005 A 
ENDBRANCH  18  19
BRANCH  18  25
ATOM     25  C   UNL     1       0.002  -0.004   0.002  0.00  0.00    +0.062 C 
BRANCH  25  29
ATOM     26  C   UNL     1      -0.056   4.267   0.025  0.00  0.00    +0.000 A 
ATOM     27  C   UNL     1       1.151   3.592   0.010  0.00  0.00    +0.000 A 
ATOM     28  C   UNL     1       1.169   2.210   0.003  0.00  0.00    +0.004 A 
ATOM     29  C   UNL     1      -0.018   1.503   0.010  0.00  0.00    -0.045 A 
ATOM     30  C   UNL     1      -1.225   2.178   0.020  0.00  0.00    +0.004 A 
ATOM     31  C   UNL     1      -1.244   3.560   0.032  0.00  0.00    +0.000 A 
ENDBRANCH  25  29
ENDBRANCH  18  25
ENDBRANCH   1  18
TORSDOF 5
