REMARK  Name = ZINC12470170
REMARK  7 active torsions:
REMARK  status: ('A' for Active; 'I' for Inactive)
REMARK    1  A    between atoms: C_1  and  C_2
REMARK    2  A    between atoms: C_5  and  C_38
REMARK    3  A    between atoms: C_9  and  C_14
REMARK    4  A    between atoms: C_14  and  C_16
REMARK    5  A    between atoms: C_14  and  N_27
REMARK    6  A    between atoms: N_20  and  C_21
REMARK    7  A    between atoms: C_35  and  C_37
REMARK                            x       y       z     vdW  Elec       q    Type
REMARK                         _______ _______ _______ _____ _____    ______ ____
ROOT
ATOM      1  C   UNL     1      -0.013   1.086   0.008  0.00  0.00    +0.179 C 
ENDROOT
BRANCH   1  10
ATOM      2  C   UNL     1      -2.107  -0.253  -4.568  0.00  0.00    +0.044 C 
ATOM      3  C   UNL     1      -2.050   1.252  -4.525  0.00  0.00    -0.041 A 
ATOM      4  C   UNL     1      -2.508   1.986  -5.582  0.00  0.00    +0.004 A 
ATOM      5  C   UNL     1      -2.459   3.373  -5.553  0.00  0.00    +0.005 A 
ATOM      6  C   UNL     1      -1.948   4.036  -4.458  0.00  0.00    -0.026 A 
ATOM      7  C   UNL     1      -1.476   3.310  -3.369  0.00  0.00    +0.052 A 
ATOM      8  C   UNL     1      -1.528   1.903  -3.403  0.00  0.00    +0.002 A 
ATOM      9  C   UNL     1      -1.025   1.147  -2.254  0.00  0.00    +0.021 A 
ATOM     10  C   UNL     1      -0.534   1.833  -1.192  0.00  0.00    +0.045 A 
ATOM     11  C   UNL     1      -0.505   3.244  -1.209  0.00  0.00    +0.255 A 
ATOM     12  O   UNL     1      -0.056   3.841  -0.246  0.00  0.00    -0.268 OA
ATOM     13  N   UNL     1      -0.960   3.947  -2.261  0.00  0.00    -0.322 N 
ATOM     14  H   UNL     1      -0.926   4.916  -2.240  0.00  0.00    +0.169 HD
ATOM     15  C   UNL     1      -1.900   5.542  -4.440  0.00  0.00    +0.046 C 
ENDBRANCH   1  10
BRANCH   1  16
ATOM     16  N   UNL     1      -0.700   1.560   1.217  0.00  0.00    -0.312 N 
ATOM     17  C   UNL     1      -2.072   1.287   1.153  0.00  0.00    +0.034 A 
ATOM     18  C   UNL     1      -2.954   1.380   0.077  0.00  0.00    +0.023 A 
ATOM     19  C   UNL     1      -4.287   1.065   0.243  0.00  0.00    +0.002 A 
ATOM     20  C   UNL     1      -4.757   0.653   1.476  0.00  0.00    +0.000 A 
ATOM     21  C   UNL     1      -3.888   0.555   2.548  0.00  0.00    +0.005 A 
ATOM     22  C   UNL     1      -2.554   0.867   2.387  0.00  0.00    -0.025 A 
ATOM     23  C   UNL     1      -1.392   0.849   3.360  0.00  0.00    +0.059 C 
ATOM     24  C   UNL     1      -0.162   0.900   2.426  0.00  0.00    +0.076 C 
ATOM     25  C   UNL     1       0.331  -0.511   2.100  0.00  0.00    +0.028 C 
ENDBRANCH   1  16
BRANCH   1  26
ATOM     26  C   UNL     1       1.468   1.327   0.145  0.00  0.00    +0.177 A 
ATOM     27  N   UNL     1       2.046   2.422   0.575  0.00  0.00    -0.111 NA
ATOM     28  N   UNL     1       3.321   2.237   0.548  0.00  0.00    -0.023 NA
ATOM     29  N   UNL     1       3.571   1.054   0.105  0.00  0.00    -0.044 NA
ATOM     30  N   UNL     1       2.455   0.462  -0.155  0.00  0.00    -0.224 N 
BRANCH  30  31
ATOM     31  C   UNL     1       2.292  -0.896  -0.678  0.00  0.00    +0.111 C 
ATOM     32  C   UNL     1       2.916  -1.897   0.297  0.00  0.00    +0.027 C 
ATOM     33  C   UNL     1       2.745  -3.316  -0.250  0.00  0.00    +0.002 C 
ATOM     34  C   UNL     1       3.440  -3.426  -1.609  0.00  0.00    +0.000 C 
ATOM     35  C   UNL     1       2.816  -2.425  -2.583  0.00  0.00    +0.002 C 
ATOM     36  C   UNL     1       2.987  -1.006  -2.037  0.00  0.00    +0.027 C 
ENDBRANCH  30  31
ENDBRANCH   1  26
TORSDOF 4
