REMARK  Name = ZINC40974806
REMARK  8 active torsions:
REMARK  status: ('A' for Active; 'I' for Inactive)
REMARK    1  A    between atoms: C_1  and  C_2
REMARK    2  A    between atoms: C_2  and  C_4
REMARK    3  A    between atoms: C_2  and  N_25
REMARK    4  A    between atoms: C_7  and  C_10
REMARK    5  A    between atoms: C_15  and  C_16
REMARK    6  A    between atoms: N_19  and  C_21
REMARK    7  A    between atoms: C_26  and  C_28
REMARK    8  A    between atoms: C_28  and  O_33
REMARK                            x       y       z     vdW  Elec       q    Type
REMARK                         _______ _______ _______ _____ _____    ______ ____
ROOT
ATOM      1  C   UNL     1      -1.412  -0.526   0.013  0.00  0.00    +0.096 A 
ATOM      2  C   UNL     1      -1.953  -1.054  -1.148  0.00  0.00    +0.147 A 
ATOM      3  C   UNL     1      -3.254  -1.532  -1.132  0.00  0.00    +0.050 A 
ATOM      4  C   UNL     1      -3.971  -1.462   0.065  0.00  0.00    +0.004 A 
ATOM      5  C   UNL     1      -3.354  -0.916   1.190  0.00  0.00    +0.119 A 
ATOM      6  N   UNL     1      -2.113  -0.478   1.129  0.00  0.00    -0.255 NA
ATOM      7  F   UNL     1      -1.221  -1.101  -2.283  0.00  0.00    -0.204 F 
ENDROOT
BRANCH   4   8
ATOM      8  C   UNL     1      -5.366  -1.958   0.139  0.00  0.00    -0.001 A 
ATOM      9  C   UNL     1      -6.301  -1.560  -0.813  0.00  0.00    +0.029 A 
ATOM     10  C   UNL     1      -7.600  -2.025  -0.742  0.00  0.00    +0.044 A 
ATOM     11  C   UNL     1      -7.981  -2.888   0.273  0.00  0.00    +0.059 A 
ATOM     12  C   UNL     1      -7.064  -3.293   1.225  0.00  0.00    +0.136 A 
ATOM     13  C   UNL     1      -5.748  -2.837   1.163  0.00  0.00    +0.066 A 
ATOM     14  F   UNL     1      -7.443  -4.135   2.212  0.00  0.00    -0.205 F 
ATOM     15 CL   UNL     1      -8.762  -1.524  -1.931  0.00  0.00    -0.083 Cl
BRANCH  13  16
ATOM     16  C   UNL     1      -4.760  -3.274   2.179  0.00  0.00    +0.208 A 
ATOM     17  N   UNL     1      -3.471  -2.910   2.251  0.00  0.00    -0.108 NA
ATOM     18  N   UNL     1      -2.961  -3.507   3.274  0.00  0.00    -0.046 NA
ATOM     19  N   UNL     1      -3.871  -4.222   3.838  0.00  0.00    -0.166 N 
ATOM     20  N   UNL     1      -4.978  -4.091   3.191  0.00  0.00    -0.131 NA
ATOM     21  C   UNL     1      -3.680  -5.049   5.031  0.00  0.00    +0.199 C 
ENDBRANCH  13  16
ENDBRANCH   4   8
BRANCH   1  23
ATOM     22  C   UNL     1      -0.019   1.526   0.010  0.00  0.00    +0.034 C 
ATOM     23  C   UNL     1       0.002  -0.004   0.002  0.00  0.00    +0.122 C 
BRANCH  23  24
ATOM     24  N   UNL     1       0.711  -0.489   1.189  0.00  0.00    -0.305 N 
ATOM     25  C   UNL     1       2.054  -0.600   1.174  0.00  0.00    +0.245 C 
ATOM     26  O   UNL     1       2.676  -0.297   0.177  0.00  0.00    -0.273 OA
ATOM     27  H   UNL     1       0.213  -0.731   1.986  0.00  0.00    +0.149 HD
BRANCH  25  28
ATOM     28  C   UNL     1       2.783  -1.099   2.395  0.00  0.00    +0.141 C 
ATOM     29  C   UNL     1       3.108   0.080   3.335  0.00  0.00    +0.044 C 
ATOM     30  C   UNL     1       4.504  -0.266   3.909  0.00  0.00    +0.003 C 
ATOM     31  C   UNL     1       5.227  -0.897   2.693  0.00  0.00    +0.003 C 
ATOM     32  C   UNL     1       4.130  -1.720   1.987  0.00  0.00    +0.044 C 
BRANCH  28  33
ATOM     33  O   UNL     1       1.984  -2.067   3.079  0.00  0.00    -0.379 OA
ATOM     34  H   UNL     1       1.126  -1.732   3.372  0.00  0.00    +0.211 HD
ENDBRANCH  28  33
ENDBRANCH  25  28
ENDBRANCH  23  24
ENDBRANCH   1  23
TORSDOF 6
