REMARK  Name = ZINC00850717
REMARK  7 active torsions:
REMARK  status: ('A' for Active; 'I' for Inactive)
REMARK    1  A    between atoms: C_1  and  O_2
REMARK    2  A    between atoms: O_2  and  C_3
REMARK    3  A    between atoms: C_4  and  C_11
REMARK    4  A    between atoms: N_12  and  N_13
REMARK    5  A    between atoms: C_14  and  C_16
REMARK    6  A    between atoms: C_16  and  O_17
REMARK    7  A    between atoms: O_17  and  C_18
REMARK                            x       y       z     vdW  Elec       q    Type
REMARK                         _______ _______ _______ _____ _____    ______ ____
ROOT
ATOM      1  N   UNL     1       3.268   6.435   0.004  0.00  0.00    -0.204 N 
ATOM      2  C   UNL     1       2.209   5.601   0.010  0.00  0.00    +0.270 C 
ATOM      3  O   UNL     1       1.083   6.051   0.023  0.00  0.00    -0.270 OA
ATOM      4  H   UNL     1       4.169   6.075  -0.006  0.00  0.00    +0.177 HD
ENDROOT
BRANCH   1   6
ATOM      5  C   UNL     1       4.087   8.624   0.008  0.00  0.00    +0.142 C 
ATOM      6  N   UNL     1       3.067   7.821   0.013  0.00  0.00    -0.188 NA
BRANCH   5   8
ATOM      7  C   UNL     1       2.577  10.607   0.026  0.00  0.00    +0.147 A 
ATOM      8  C   UNL     1       3.877  10.083   0.017  0.00  0.00    +0.039 A 
ATOM      9  C   UNL     1       4.971  10.951   0.011  0.00  0.00    +0.033 A 
ATOM     10  C   UNL     1       4.767  12.316   0.020  0.00  0.00    +0.043 A 
ATOM     11  C   UNL     1       3.481  12.829   0.035  0.00  0.00    +0.043 A 
ATOM     12  C   UNL     1       2.389  11.980   0.041  0.00  0.00    +0.085 A 
ATOM     13 CL   UNL     1       0.781  12.635   0.059  0.00  0.00    -0.080 Cl
ATOM     14 CL   UNL     1       6.128  13.393   0.013  0.00  0.00    -0.083 Cl
BRANCH   7  16
ATOM     15  C   UNL     1       0.999   9.366   1.299  0.00  0.00    +0.277 C 
ATOM     16  O   UNL     1       1.505   9.772   0.026  0.00  0.00    -0.493 OA
ENDBRANCH   7  16
ENDBRANCH   5   8
ENDBRANCH   1   6
BRANCH   2  17
ATOM     17  C   UNL     1       2.425   4.109   0.001  0.00  0.00    +0.326 C 
BRANCH  17  18
ATOM     18  O   UNL     1       1.159   3.445   0.009  0.00  0.00    -0.483 OA
BRANCH  18  19
ATOM     19  C   UNL     1       1.176   2.086   0.002  0.00  0.00    +0.121 A 
ATOM     20  C   UNL     1      -0.017   1.377   0.010  0.00  0.00    +0.047 A 
ATOM     21  C   UNL     1       0.002  -0.004   0.002  0.00  0.00    +0.023 A 
ATOM     22  C   UNL     1       1.209  -0.680  -0.013  0.00  0.00    +0.041 A 
ATOM     23  C   UNL     1       2.399   0.025  -0.020  0.00  0.00    +0.023 A 
ATOM     24  C   UNL     1       2.385   1.406  -0.012  0.00  0.00    +0.047 A 
ATOM     25 CL   UNL     1       1.230  -2.416  -0.023  0.00  0.00    -0.084 Cl
ENDBRANCH  18  19
ENDBRANCH  17  18
ENDBRANCH   2  17
TORSDOF 6
