REMARK  Name = ZINC05275036
REMARK  3 active torsions:
REMARK  status: ('A' for Active; 'I' for Inactive)
REMARK    1  A    between atoms: C_4  and  C_7
REMARK    2  A    between atoms: C_13  and  C_26
REMARK    3  A    between atoms: C_13  and  O_30
REMARK                            x       y       z     vdW  Elec       q    Type
REMARK                         _______ _______ _______ _____ _____    ______ ____
ROOT
ATOM      1  C   UNL     1       4.030   6.502   3.013  0.00  0.00    +0.080 A 
ATOM      2  C   UNL     1       3.635   7.519   2.189  0.00  0.00    +0.077 A 
ATOM      3  S   UNL     1       2.660   6.617   0.992  0.00  0.00    -0.058 S 
ATOM      4  C   UNL     1       2.868   4.994   1.711  0.00  0.00    +0.184 A 
ATOM      5  N   UNL     1       3.636   5.264   2.752  0.00  0.00    -0.223 NA
ATOM      6  N   UNL     1       2.364   3.776   1.286  0.00  0.00    -0.160 N 
ATOM      7  C   UNL     1       1.508   3.566   0.103  0.00  0.00    +0.259 C 
ATOM      8  C   UNL     1       1.419   2.042  -0.001  0.00  0.00    +0.101 C 
ATOM      9  C   UNL     1      -0.019   1.523   0.010  0.00  0.00    +0.019 C 
ATOM     10  C   UNL     1       0.002  -0.004   0.002  0.00  0.00    +0.036 C 
ATOM     11  C   UNL     1       0.892  -0.600   1.056  0.00  0.00    -0.038 A 
ATOM     12  C   UNL     1       0.724  -1.927   1.410  0.00  0.00    +0.004 A 
ATOM     13  C   UNL     1       1.535  -2.504   2.369  0.00  0.00    +0.000 A 
ATOM     14  C   UNL     1       2.530  -1.769   2.991  0.00  0.00    +0.001 A 
ATOM     15  C   UNL     1       2.712  -0.442   2.655  0.00  0.00    +0.010 A 
ATOM     16  C   UNL     1       1.893   0.141   1.696  0.00  0.00    +0.001 A 
ATOM     17  C   UNL     1       2.032   1.559   1.312  0.00  0.00    +0.075 C 
ATOM     18  N   UNL     1       2.582   2.544   1.907  0.00  0.00    -0.179 NA
ENDROOT
BRANCH   1  22
ATOM     19  C   UNL     1       6.500   7.302   6.379  0.00  0.00    +0.000 A 
ATOM     20  C   UNL     1       6.021   8.348   5.612  0.00  0.00    +0.001 A 
ATOM     21  C   UNL     1       5.218   8.095   4.518  0.00  0.00    +0.010 A 
ATOM     22  C   UNL     1       4.892   6.781   4.187  0.00  0.00    +0.001 A 
ATOM     23  C   UNL     1       5.373   5.731   4.967  0.00  0.00    +0.010 A 
ATOM     24  C   UNL     1       6.179   5.996   6.055  0.00  0.00    +0.001 A 
ENDBRANCH   1  22
BRANCH   7  25
ATOM     25  C   UNL     1       2.164   4.154  -1.149  0.00  0.00    +0.438 C 
ATOM     26  F   UNL     1       1.403   3.821  -2.274  0.00  0.00    -0.166 F 
ATOM     27  F   UNL     1       2.233   5.546  -1.028  0.00  0.00    -0.166 F 
ATOM     28  F   UNL     1       3.455   3.633  -1.288  0.00  0.00    -0.166 F 
ENDBRANCH   7  25
BRANCH   7  29
ATOM     29  O   UNL     1       0.213   4.135   0.306  0.00  0.00    -0.363 OA
ATOM     30  H   UNL     1       0.214   5.099   0.378  0.00  0.00    +0.212 HD
ENDBRANCH   7  29
TORSDOF 3
