REMARK  Name = ZINC40396632
REMARK  4 active torsions:
REMARK  status: ('A' for Active; 'I' for Inactive)
REMARK    1  A    between atoms: C_6  and  C_7
REMARK    2  A    between atoms: N_18  and  C_21
REMARK    3  A    between atoms: C_21  and  C_22
REMARK    4  A    between atoms: C_22  and  C_23
REMARK                            x       y       z     vdW  Elec       q    Type
REMARK                         _______ _______ _______ _____ _____    ______ ____
ROOT
ATOM      1  C   UNL     1      -1.270  -0.765   0.011  0.00  0.00    +0.046 A 
ATOM      2  C   UNL     1      -2.348  -0.569   0.883  0.00  0.00    +0.145 A 
ATOM      3  N   UNL     1      -3.292  -1.427   0.587  0.00  0.00    -0.172 NA
ATOM      4  N   UNL     1      -2.874  -2.219  -0.487  0.00  0.00    -0.213 N 
ATOM      5  C   UNL     1      -1.618  -1.807  -0.855  0.00  0.00    +0.164 A 
ATOM      6  N   UNL     1      -0.961  -2.386  -1.870  0.00  0.00    -0.235 NA
ATOM      7  C   UNL     1      -1.484  -3.369  -2.564  0.00  0.00    +0.128 A 
ATOM      8  C   UNL     1      -2.772  -3.839  -2.242  0.00  0.00    +0.083 A 
ATOM      9  C   UNL     1      -3.470  -3.248  -1.175  0.00  0.00    +0.083 A 
ATOM     10  C   UNL     1      -4.754  -3.719  -0.859  0.00  0.00    +0.046 A 
ATOM     11  C   UNL     1      -5.295  -4.734  -1.565  0.00  0.00    +0.091 A 
ATOM     12  N   UNL     1      -4.639  -5.337  -2.592  0.00  0.00    -0.314 N 
ATOM     13  C   UNL     1      -3.410  -4.931  -2.976  0.00  0.00    +0.262 A 
ATOM     14  O   UNL     1      -2.837  -5.475  -3.903  0.00  0.00    -0.267 OA
ENDROOT
BRANCH   1  20
ATOM     15  C   UNL     1      -0.017   1.390   0.010  0.00  0.00    +0.011 A 
ATOM     16  C   UNL     1       1.170   2.094   0.002  0.00  0.00    +0.039 A 
ATOM     17  C   UNL     1       2.379   1.418  -0.013  0.00  0.00    +0.123 A 
ATOM     18  C   UNL     1       2.403   0.033  -0.022  0.00  0.00    +0.039 A 
ATOM     19  C   UNL     1       1.222  -0.680  -0.014  0.00  0.00    +0.011 A 
ATOM     20  C   UNL     1       0.002  -0.004   0.002  0.00  0.00    -0.013 A 
ATOM     21  F   UNL     1       3.538   2.111  -0.021  0.00  0.00    -0.205 F 
ENDBRANCH   1  20
BRANCH  12  22
ATOM     22  C   UNL     1      -5.289  -6.434  -3.312  0.00  0.00    +0.129 C 
BRANCH  22  23
ATOM     23  C   UNL     1      -6.091  -5.869  -4.487  0.00  0.00    +0.059 C 
BRANCH  23  24
ATOM     24  C   UNL     1      -6.760  -6.998  -5.228  0.00  0.00    -0.021 A 
ATOM     25  C   UNL     1      -6.286  -7.633  -6.312  0.00  0.00    +0.087 A 
ATOM     26  N   UNL     1      -7.167  -8.602  -6.707  0.00  0.00    -0.360 N 
ATOM     27  H   UNL     1      -7.042  -9.192  -7.467  0.00  0.00    +0.165 HD
ATOM     28  C   UNL     1      -8.258  -8.615  -5.865  0.00  0.00    +0.047 A 
ATOM     29  C   UNL     1      -8.047  -7.615  -4.899  0.00  0.00    +0.006 A 
ATOM     30  C   UNL     1      -8.998  -7.399  -3.899  0.00  0.00    +0.048 A 
ATOM     31  C   UNL     1     -10.138  -8.173  -3.865  0.00  0.00    +0.124 A 
ATOM     32  C   UNL     1     -10.343  -9.164  -4.818  0.00  0.00    +0.040 A 
ATOM     33  C   UNL     1      -9.417  -9.382  -5.814  0.00  0.00    +0.029 A 
ATOM     34  F   UNL     1     -11.061  -7.968  -2.900  0.00  0.00    -0.205 F 
ENDBRANCH  23  24
ENDBRANCH  22  23
ENDBRANCH  12  22
TORSDOF 4
