REMARK  Name = ZINC13940161
REMARK  8 active torsions:
REMARK  status: ('A' for Active; 'I' for Inactive)
REMARK    1  A    between atoms: C_4  and  C_7
REMARK    2  A    between atoms: N_8  and  N_9
REMARK    3  A    between atoms: C_14  and  O_16
REMARK    4  A    between atoms: O_16  and  C_17
REMARK    5  A    between atoms: C_17  and  C_18
REMARK    6  A    between atoms: C_17  and  C_22
REMARK    7  A    between atoms: N_26  and  C_27
REMARK    8  A    between atoms: C_30  and  N_33
REMARK                            x       y       z     vdW  Elec       q    Type
REMARK                         _______ _______ _______ _____ _____    ______ ____
ROOT
ATOM      1  N   UNL     1       4.909   4.192  -0.712  0.00  0.00    -0.205 N 
ATOM      2  C   UNL     1       4.874   5.560  -0.524  0.00  0.00    +0.242 A 
ATOM      3  N   UNL     1       6.006   6.238  -0.361  0.00  0.00    -0.179 NA
ATOM      4  C   UNL     1       5.972   7.555  -0.185  0.00  0.00    +0.227 A 
ATOM      5  N   UNL     1       4.804   8.192  -0.162  0.00  0.00    -0.161 NA
ATOM      6  C   UNL     1       3.674   7.514  -0.319  0.00  0.00    +0.325 A 
ATOM      7  N   UNL     1       3.708   6.199  -0.500  0.00  0.00    -0.160 NA
ATOM      8  N   UNL     1       7.147   8.261  -0.021  0.00  0.00    -0.283 N 
ATOM      9  H   UNL     1       5.760   3.727  -0.729  0.00  0.00    +0.177 HD
ATOM     10  H   UNL     1       7.128   9.230   0.030  0.00  0.00    +0.155 HD
ENDROOT
BRANCH   8  11
ATOM     11  C   UNL     1       8.365   7.580   0.070  0.00  0.00    +0.034 A 
ATOM     12  C   UNL     1       8.421   6.331   0.674  0.00  0.00    +0.025 A 
ATOM     13  C   UNL     1       9.624   5.659   0.758  0.00  0.00    +0.034 A 
ATOM     14  C   UNL     1      10.775   6.233   0.250  0.00  0.00    +0.126 A 
ATOM     15  C   UNL     1      10.725   7.479  -0.348  0.00  0.00    +0.034 A 
ATOM     16  C   UNL     1       9.523   8.154  -0.439  0.00  0.00    +0.025 A 
BRANCH  14  17
ATOM     17  N   UNL     1      12.064   5.511   0.346  0.00  0.00    +0.056 N 
ATOM     18  O   UNL     1      13.079   6.016  -0.101  0.00  0.00    -0.126 OA
ATOM     19  O   UNL     1      12.110   4.414   0.872  0.00  0.00    -0.126 OA
ENDBRANCH  14  17
ENDBRANCH   8  11
BRANCH   1  21
ATOM     20  C   UNL     1       3.748   2.192  -1.054  0.00  0.00    +0.138 C 
ATOM     21  N   UNL     1       3.716   3.478  -0.878  0.00  0.00    -0.188 NA
BRANCH  20  25
ATOM     22  C   UNL     1       0.133   0.026  -1.556  0.00  0.00    +0.000 A 
ATOM     23  C   UNL     1       0.094   1.397  -1.368  0.00  0.00    +0.001 A 
ATOM     24  C   UNL     1       1.265   2.107  -1.204  0.00  0.00    +0.009 A 
ATOM     25  C   UNL     1       2.492   1.440  -1.229  0.00  0.00    -0.005 A 
ATOM     26  C   UNL     1       2.523   0.056  -1.419  0.00  0.00    +0.009 A 
ATOM     27  C   UNL     1       1.345  -0.641  -1.581  0.00  0.00    +0.001 A 
ENDBRANCH  20  25
ENDBRANCH   1  21
BRANCH   6  28
ATOM     28  O   UNL     1       2.487   8.163  -0.296  0.00  0.00    -0.441 OA
BRANCH  28  29
ATOM     29  C   UNL     1       1.311   7.371  -0.472  0.00  0.00    +0.383 C 
BRANCH  29  30
ATOM     30  C   UNL     1       0.811   6.889   0.892  0.00  0.00    +0.435 C 
ATOM     31  F   UNL     1       0.513   7.995   1.696  0.00  0.00    -0.166 F 
ATOM     32  F   UNL     1      -0.341   6.114   0.719  0.00  0.00    -0.166 F 
ATOM     33  F   UNL     1       1.804   6.120   1.507  0.00  0.00    -0.166 F 
ENDBRANCH  29  30
BRANCH  29  34
ATOM     34  C   UNL     1       0.225   8.213  -1.145  0.00  0.00    +0.435 C 
ATOM     35  F   UNL     1       0.682   8.653  -2.392  0.00  0.00    -0.166 F 
ATOM     36  F   UNL     1      -0.926   7.437  -1.317  0.00  0.00    -0.166 F 
ATOM     37  F   UNL     1      -0.073   9.318  -0.341  0.00  0.00    -0.166 F 
ENDBRANCH  29  34
ENDBRANCH  28  29
ENDBRANCH   6  28
TORSDOF 8
