REMARK  Name = ZINC00087522
REMARK  4 active torsions:
REMARK  status: ('A' for Active; 'I' for Inactive)
REMARK    1  A    between atoms: C_1  and  C_2
REMARK    2  A    between atoms: C_9  and  N_13
REMARK    3  A    between atoms: C_10  and  C_11
REMARK    4  A    between atoms: C_14  and  C_16
REMARK                            x       y       z     vdW  Elec       q    Type
REMARK                         _______ _______ _______ _____ _____    ______ ____
ROOT
ATOM      1  C   UNL     1      -0.019   1.526   0.010  0.00  0.00    +0.008 C 
ATOM      2  C   UNL     1       0.002  -0.004   0.002  0.00  0.00    -0.009 C 
ATOM      3  C   UNL     1      -1.434  -0.537   0.019  0.00  0.00    +0.008 C 
ATOM      4  C   UNL     1      -1.433  -2.045  -0.237  0.00  0.00    +0.037 C 
ATOM      5  C   UNL     1      -0.464  -2.704   0.734  0.00  0.00    -0.018 A 
ATOM      6  C   UNL     1       0.485  -1.986   1.374  0.00  0.00    -0.004 A 
ATOM      7  S   UNL     1       1.344  -3.168   2.371  0.00  0.00    -0.077 S 
ATOM      8  C   UNL     1       0.493  -4.558   1.966  0.00  0.00    +0.090 A 
ATOM      9  C   UNL     1      -0.459  -4.119   1.059  0.00  0.00    +0.084 A 
ATOM     10  C   UNL     1       0.739  -0.515   1.248  0.00  0.00    +0.046 C 
ENDROOT
BRANCH   8  11
ATOM     11  N   UNL     1       0.696  -5.849   2.431  0.00  0.00    -0.277 N 
ATOM     12  C   UNL     1       1.678  -6.098   3.319  0.00  0.00    +0.246 C 
ATOM     13  O   UNL     1       2.384  -5.194   3.713  0.00  0.00    -0.273 OA
ATOM     14  H   UNL     1       0.132  -6.573   2.116  0.00  0.00    +0.155 HD
BRANCH  12  15
ATOM     15  C   UNL     1       1.900  -7.501   3.824  0.00  0.00    +0.204 C 
ATOM     16  C   UNL     1       2.386  -8.417   2.673  0.00  0.00    +0.043 C 
ATOM     17  C   UNL     1       3.138  -9.518   3.470  0.00  0.00    +0.031 C 
ATOM     18  C   UNL     1       3.729  -8.721   4.652  0.00  0.00    +0.161 C 
ATOM     19  O   UNL     1       2.958  -7.520   4.795  0.00  0.00    -0.367 OA
ENDBRANCH  12  15
ENDBRANCH   8  11
BRANCH   9  20
ATOM     20  C   UNL     1      -1.399  -5.024   0.469  0.00  0.00    +0.102 C 
ATOM     21  N   UNL     1      -2.144  -5.741   0.000  0.00  0.00    -0.191 NA
ENDBRANCH   9  20
TORSDOF 3
