REMARK  Name = ZINC20864838
REMARK  6 active torsions:
REMARK  status: ('A' for Active; 'I' for Inactive)
REMARK    1  A    between atoms: C_1  and  C_2
REMARK    2  A    between atoms: C_2  and  C_4
REMARK    3  A    between atoms: C_2  and  N_9
REMARK    4  A    between atoms: N_9  and  C_10
REMARK    5  A    between atoms: N_13  and  C_16
REMARK    6  A    between atoms: C_20  and  C_22
REMARK                            x       y       z     vdW  Elec       q    Type
REMARK                         _______ _______ _______ _____ _____    ______ ____
ROOT
ATOM      1  C   UNL     1       5.505   8.263  -0.902  0.00  0.00    -0.068 C 
ATOM      2  C   UNL     1       4.689   8.736   0.304  0.00  0.00    +0.003 C 
ATOM      3  C   UNL     1       3.323   8.046   0.291  0.00  0.00    +0.103 C 
ATOM      4  N   UNL     1       3.508   6.590   0.344  0.00  0.00    -0.330 N 
ATOM      5  C   UNL     1       4.249   6.107  -0.828  0.00  0.00    +0.103 C 
ATOM      6  C   UNL     1       5.642   6.739  -0.849  0.00  0.00    +0.003 C 
ENDROOT
BRANCH   4   7
ATOM      7  C   UNL     1       2.281   5.934   0.467  0.00  0.00    +0.030 A 
ATOM      8  C   UNL     1       1.102   6.668   0.522  0.00  0.00    +0.023 A 
ATOM      9  C   UNL     1      -0.113   6.021   0.643  0.00  0.00    +0.002 A 
ATOM     10  C   UNL     1      -0.163   4.643   0.710  0.00  0.00    +0.008 A 
ATOM     11  C   UNL     1       1.014   3.899   0.655  0.00  0.00    -0.016 A 
ATOM     12  C   UNL     1       2.240   4.549   0.539  0.00  0.00    +0.031 A 
BRANCH  11  13
ATOM     13  C   UNL     1       0.962   2.418   0.728  0.00  0.00    -0.015 A 
ATOM     14  C   UNL     1       2.138   1.673   0.672  0.00  0.00    +0.009 A 
ATOM     15  C   UNL     1       2.085   0.296   0.739  0.00  0.00    +0.003 A 
ATOM     16  C   UNL     1       0.867  -0.348   0.861  0.00  0.00    +0.038 A 
ATOM     17  C   UNL     1      -0.307   0.387   0.916  0.00  0.00    +0.124 A 
ATOM     18  C   UNL     1      -0.264   1.767   0.850  0.00  0.00    +0.046 A 
ATOM     19  F   UNL     1      -1.494  -0.247   1.034  0.00  0.00    -0.205 F 
ENDBRANCH  11  13
ENDBRANCH   4   7
BRANCH   1  20
ATOM     20  N   UNL     1       6.839   8.877  -0.863  0.00  0.00    +0.387 N 
ATOM     21  H   UNL     1       7.547   8.216  -1.383  0.00  0.00    -0.085 HD
ATOM     22  H   UNL     1       7.146   8.989   0.187  0.00  0.00    -0.085 HD
BRANCH  20  24
ATOM     23  C   UNL     1       7.046  10.021  -3.019  0.00  0.00    -0.006 C 
ATOM     24  C   UNL     1       6.831  10.195  -1.514  0.00  0.00    -0.001 C 
BRANCH  24  25
ATOM     25  C   UNL     1       7.937  11.044  -0.943  0.00  0.00    +0.163 A 
ATOM     26  N   UNL     1       7.982  12.389  -0.909  0.00  0.00    -0.113 NA
ATOM     27  N   UNL     1       9.092  12.717  -0.339  0.00  0.00    -0.021 NA
ATOM     28  N   UNL     1       9.730  11.645  -0.022  0.00  0.00    -0.021 NA
ATOM     29  N   UNL     1       9.040  10.616  -0.378  0.00  0.00    -0.113 NA
ENDBRANCH  24  25
ENDBRANCH  20  24
ENDBRANCH   1  20
TORSDOF 5
