REMARK  Name = ZINC53345898
REMARK  4 active torsions:
REMARK  status: ('A' for Active; 'I' for Inactive)
REMARK    1  A    between atoms: C_3  and  N_21
REMARK    2  A    between atoms: C_6  and  C_7
REMARK    3  A    between atoms: C_15  and  N_18
REMARK    4  A    between atoms: C_25  and  C_28
REMARK                            x       y       z     vdW  Elec       q    Type
REMARK                         _______ _______ _______ _____ _____    ______ ____
ROOT
ATOM      1  C   UNL     1       0.018   1.368   0.160  0.00  0.00    +0.015 A 
ATOM      2  C   UNL     1       1.212   2.053   0.168  0.00  0.00    +0.024 A 
ATOM      3  C   UNL     1       2.413   1.362   0.034  0.00  0.00    +0.030 A 
ATOM      4  C   UNL     1       2.412  -0.023  -0.107  0.00  0.00    +0.024 A 
ATOM      5  C   UNL     1       1.222  -0.713  -0.116  0.00  0.00    +0.015 A 
ATOM      6  C   UNL     1       0.013  -0.023   0.018  0.00  0.00    +0.037 A 
ENDROOT
BRANCH   6   7
ATOM      7  C   UNL     1      -1.264  -0.760   0.011  0.00  0.00    +0.251 C 
ATOM      8  O   UNL     1      -1.355  -1.826   0.590  0.00  0.00    -0.270 OA
ATOM      9  N   UNL     1      -2.331  -0.254  -0.639  0.00  0.00    -0.267 N 
ATOM     10  C   UNL     1      -2.314   0.957  -1.464  0.00  0.00    +0.118 C 
ATOM     11  C   UNL     1      -3.754   1.113  -1.980  0.00  0.00    +0.056 C 
ATOM     12  C   UNL     1      -4.500  -0.061  -1.387  0.00  0.00    -0.024 A 
ATOM     13  C   UNL     1      -3.613  -0.809  -0.629  0.00  0.00    +0.042 A 
ATOM     14  C   UNL     1      -4.075  -1.957   0.018  0.00  0.00    +0.056 A 
ATOM     15  C   UNL     1      -5.395  -2.338  -0.101  0.00  0.00    +0.128 A 
ATOM     16  C   UNL     1      -6.270  -1.587  -0.863  0.00  0.00    +0.033 A 
ATOM     17  C   UNL     1      -5.822  -0.445  -1.500  0.00  0.00    +0.008 A 
BRANCH  15  18
ATOM     18  N   UNL     1      -5.876  -3.556   0.589  0.00  0.00    +0.056 N 
ATOM     19  O   UNL     1      -5.112  -4.215   1.256  0.00  0.00    -0.126 OA
ATOM     20  O   UNL     1      -7.032  -3.893   0.486  0.00  0.00    -0.126 OA
ENDBRANCH  15  18
ENDBRANCH   6   7
BRANCH   3  21
ATOM     21  N   UNL     1       3.618   2.058   0.042  0.00  0.00    -0.329 N 
ATOM     22  C   UNL     1       4.898   1.337   0.025  0.00  0.00    +0.105 C 
ATOM     23  C   UNL     1       5.754   1.824   1.197  0.00  0.00    +0.020 C 
ATOM     24  C   UNL     1       5.889   3.347   1.127  0.00  0.00    +0.016 C 
ATOM     25  C   UNL     1       4.504   3.989   1.241  0.00  0.00    +0.092 C 
ATOM     26  C   UNL     1       3.634   3.526   0.062  0.00  0.00    +0.117 C 
BRANCH  25  27
ATOM     27  C   UNL     1       4.641   5.490   1.205  0.00  0.00    +0.215 C 
ATOM     28  O   UNL     1       4.095   6.128   0.330  0.00  0.00    -0.276 OA
ATOM     29  N   UNL     1       5.371   6.122   2.145  0.00  0.00    -0.329 N 
ATOM     30  H   UNL     1       5.808   5.612   2.844  0.00  0.00    +0.145 HD
ATOM     31  H   UNL     1       5.459   7.088   2.122  0.00  0.00    +0.145 HD
ENDBRANCH  25  27
ENDBRANCH   3  21
TORSDOF 4
