REMARK  Name = ZINC40950700
REMARK  9 active torsions:
REMARK  status: ('A' for Active; 'I' for Inactive)
REMARK    1  A    between atoms: C_1  and  C_2
REMARK    2  A    between atoms: C_4  and  O_11
REMARK    3  A    between atoms: C_6  and  C_9
REMARK    4  A    between atoms: O_11  and  C_12
REMARK    5  A    between atoms: C_12  and  C_13
REMARK    6  A    between atoms: N_15  and  N_16
REMARK    7  A    between atoms: C_17  and  C_18
REMARK    8  A    between atoms: C_21  and  O_27
REMARK    9  A    between atoms: C_22  and  N_24
REMARK                            x       y       z     vdW  Elec       q    Type
REMARK                         _______ _______ _______ _____ _____    ______ ____
ROOT
ATOM      1  C   UNL     1       0.017  -2.877  -4.781  0.00  0.00    +0.270 C 
ATOM      2  O   UNL     1       0.034  -4.081  -4.628  0.00  0.00    -0.270 OA
ATOM      3  N   UNL     1       0.004  -2.357  -6.024  0.00  0.00    -0.204 N 
ATOM      4  H   UNL     1      -0.010  -1.394  -6.147  0.00  0.00    +0.177 HD
ENDROOT
BRANCH   3   5
ATOM      5  N   UNL     1       0.010  -3.205  -7.139  0.00  0.00    -0.188 NA
ATOM      6  C   UNL     1      -0.003  -2.703  -8.336  0.00  0.00    +0.138 C 
BRANCH   6   7
ATOM      7  C   UNL     1       0.003  -3.596  -9.509  0.00  0.00    -0.003 A 
ATOM      8  C   UNL     1       0.017  -4.982  -9.335  0.00  0.00    +0.013 A 
ATOM      9  C   UNL     1       0.023  -5.813 -10.434  0.00  0.00    +0.048 A 
ATOM     10  C   UNL     1       0.015  -5.274 -11.715  0.00  0.00    +0.147 A 
ATOM     11  C   UNL     1       0.002  -3.897 -11.893  0.00  0.00    +0.168 A 
ATOM     12  C   UNL     1      -0.011  -3.058 -10.799  0.00  0.00    +0.046 A 
BRANCH  11  13
ATOM     13  N   UNL     1      -0.006  -3.328 -13.259  0.00  0.00    +0.060 N 
ATOM     14  O   UNL     1      -0.018  -2.129 -13.415  0.00  0.00    -0.126 OA
ATOM     15  O   UNL     1      -0.000  -4.063 -14.220  0.00  0.00    -0.126 OA
ENDBRANCH  11  13
BRANCH  10  16
ATOM     16  O   UNL     1       0.021  -6.096 -12.796  0.00  0.00    -0.504 OA
ATOM     17  H   UNL     1      -0.860  -6.343 -13.107  0.00  0.00    +0.292 HD
ENDBRANCH  10  16
ENDBRANCH   6   7
ENDBRANCH   3   5
BRANCH   1  18
ATOM     18  C   UNL     1       0.011  -1.965  -3.582  0.00  0.00    +0.326 C 
BRANCH  18  19
ATOM     19  O   UNL     1       0.028  -2.749  -2.387  0.00  0.00    -0.482 OA
BRANCH  19  23
ATOM     20  C   UNL     1      -0.018   1.503   0.010  0.00  0.00    +0.045 C 
ATOM     21  C   UNL     1       0.002  -0.004   0.002  0.00  0.00    -0.028 A 
ATOM     22  C   UNL     1       0.006  -0.688  -1.199  0.00  0.00    +0.051 A 
ATOM     23  C   UNL     1       0.025  -2.074  -1.206  0.00  0.00    +0.136 A 
ATOM     24  C   UNL     1       0.040  -2.773  -0.007  0.00  0.00    +0.064 A 
ATOM     25  C   UNL     1       0.036  -2.085   1.192  0.00  0.00    -0.014 A 
ATOM     26  C   UNL     1       0.023  -0.702   1.196  0.00  0.00    +0.048 A 
ATOM     27 CL   UNL     1       0.025   0.160   2.704  0.00  0.00    -0.083 Cl
ATOM     28  C   UNL     1       0.052  -2.843   2.495  0.00  0.00    +0.046 C 
ATOM     29 BR   UNL     1       0.065  -4.664  -0.013  0.00  0.00    -0.046 Br
ENDBRANCH  19  23
ENDBRANCH  18  19
ENDBRANCH   1  18
TORSDOF 7
