REMARK  Name = ZINC04532871
REMARK  3 active torsions:
REMARK  status: ('A' for Active; 'I' for Inactive)
REMARK    1  A    between atoms: C_1  and  C_2
REMARK    2  A    between atoms: C_4  and  C_30
REMARK    3  A    between atoms: C_30  and  C_35
REMARK                            x       y       z     vdW  Elec       q    Type
REMARK                         _______ _______ _______ _____ _____    ______ ____
ROOT
ATOM      1  C   UNL     1      -2.497   0.929  -0.330  0.00  0.00    +0.012 C 
ATOM      2  C   UNL     1      -2.593  -0.565  -0.013  0.00  0.00    -0.022 C 
ATOM      3  C   UNL     1      -4.029  -1.039  -0.262  0.00  0.00    +0.016 C 
ATOM      4  C   UNL     1      -4.958  -0.134   0.559  0.00  0.00    +0.049 C 
ATOM      5  C   UNL     1      -4.620  -0.251   2.045  0.00  0.00    +0.009 C 
ATOM      6  C   UNL     1      -3.159   0.142   2.289  0.00  0.00    +0.005 C 
ATOM      7  C   UNL     1      -2.256  -0.767   1.459  0.00  0.00    -0.001 C 
ATOM      8  C   UNL     1      -0.784  -0.545   1.760  0.00  0.00    +0.007 C 
ATOM      9  C   UNL     1      -0.640   0.441   2.933  0.00  0.00    +0.005 C 
ATOM     10  C   UNL     1       0.829   0.547   3.325  0.00  0.00    +0.004 C 
ATOM     11  C   UNL     1       1.718   1.040   2.224  0.00  0.00    +0.001 C 
ATOM     12  C   UNL     1       2.276   2.443   2.427  0.00  0.00    +0.069 C 
ATOM     13  C   UNL     1       3.353   2.694   1.363  0.00  0.00    +0.170 C 
ATOM     14  C   UNL     1       2.787   2.558  -0.048  0.00  0.00    +0.065 C 
ATOM     15  C   UNL     1       2.219   1.147  -0.269  0.00  0.00    +0.013 C 
ATOM     16  C   UNL     1       1.148   0.931   0.816  0.00  0.00    -0.013 C 
ATOM     17  C   UNL     1      -0.091   0.119   0.555  0.00  0.00    +0.039 C 
ATOM     18  C   UNL     1      -0.182   1.649   0.530  0.00  0.00    +0.023 C 
ATOM     19  C   UNL     1      -0.269  -0.616  -0.752  0.00  0.00    +0.141 C 
ATOM     20  O   UNL     1       0.580  -0.630  -1.611  0.00  0.00    -0.297 OA
ATOM     21  C   UNL     1      -1.608  -1.302  -0.915  0.00  0.00    +0.082 C 
ATOM     22  O   UNL     1       3.874   4.023   1.539  0.00  0.00    -0.346 OA
ATOM     23  C   UNL     1       5.044   3.854   2.374  0.00  0.00    +0.191 C 
ATOM     24  C   UNL     1       5.610   2.510   1.851  0.00  0.00    +0.191 C 
ATOM     25  O   UNL     1       4.421   1.754   1.546  0.00  0.00    -0.346 OA
ENDROOT
BRANCH   4  26
ATOM     26  C   UNL     1      -6.411  -0.558   0.333  0.00  0.00    +0.170 C 
ATOM     27  O   UNL     1      -6.617  -1.877   0.865  0.00  0.00    -0.346 OA
ATOM     28  C   UNL     1      -7.549  -2.503  -0.049  0.00  0.00    +0.191 C 
ATOM     29  C   UNL     1      -7.095  -1.921  -1.410  0.00  0.00    +0.191 C 
ATOM     30  O   UNL     1      -6.694  -0.577  -1.072  0.00  0.00    -0.346 OA
ATOM     31  C   UNL     1      -7.349   0.428   1.032  0.00  0.00    +0.074 C 
ENDBRANCH   4  26
TORSDOF 1
