REMARK  Name = ZINC01077009
REMARK  2 active torsions:
REMARK  status: ('A' for Active; 'I' for Inactive)
REMARK    1  A    between atoms: C_8  and  C_24
REMARK    2  A    between atoms: C_14  and  C_19
REMARK                            x       y       z     vdW  Elec       q    Type
REMARK                         _______ _______ _______ _____ _____    ______ ____
ROOT
ATOM      1  C   UNL     1      -6.371  -2.970  -3.644  0.00  0.00    +0.002 A 
ATOM      2  C   UNL     1      -5.504  -1.978  -4.064  0.00  0.00    +0.002 A 
ATOM      3  C   UNL     1      -4.210  -1.927  -3.573  0.00  0.00    +0.025 A 
ATOM      4  C   UNL     1      -3.793  -2.881  -2.661  0.00  0.00    +0.052 A 
ATOM      5  C   UNL     1      -4.673  -3.853  -2.209  0.00  0.00    +0.049 A 
ATOM      6  C   UNL     1      -5.962  -3.911  -2.715  0.00  0.00    +0.025 A 
ATOM      7  N   UNL     1      -4.230  -4.750  -1.238  0.00  0.00    -0.331 N 
ATOM      8  C   UNL     1      -3.871  -4.295   0.088  0.00  0.00    +0.136 C 
ATOM      9  C   UNL     1      -2.674  -3.377   0.133  0.00  0.00    +0.036 C 
ATOM     10  C   UNL     1      -2.085  -2.796  -0.926  0.00  0.00    +0.017 C 
ATOM     11  N   UNL     1      -2.479  -2.958  -2.215  0.00  0.00    -0.316 N 
ATOM     12  C   UNL     1      -0.880  -1.890  -0.738  0.00  0.00    +0.060 C 
ATOM     13  C   UNL     1      -0.977  -1.164   0.603  0.00  0.00    +0.039 C 
ATOM     14  C   UNL     1      -1.024  -2.227   1.707  0.00  0.00    +0.088 C 
ATOM     15  C   UNL     1      -2.181  -3.142   1.439  0.00  0.00    +0.163 C 
ATOM     16  O   UNL     1      -2.716  -3.701   2.376  0.00  0.00    -0.292 OA
ATOM     17  H   UNL     1      -4.162  -5.692  -1.455  0.00  0.00    +0.147 HD
ATOM     18  H   UNL     1      -1.791  -3.140  -2.874  0.00  0.00    +0.152 HD
ENDROOT
BRANCH   8  19
ATOM     19  C   UNL     1      -5.052  -3.570   0.681  0.00  0.00    -0.021 A 
ATOM     20  C   UNL     1      -5.540  -2.430   0.069  0.00  0.00    +0.007 A 
ATOM     21  C   UNL     1      -6.626  -1.766   0.608  0.00  0.00    +0.022 A 
ATOM     22  C   UNL     1      -7.218  -2.237   1.767  0.00  0.00    +0.059 A 
ATOM     23  C   UNL     1      -6.726  -3.375   2.382  0.00  0.00    +0.060 A 
ATOM     24  C   UNL     1      -5.642  -4.041   1.838  0.00  0.00    +0.027 A 
ATOM     25 CL   UNL     1      -7.469  -3.967   3.835  0.00  0.00    -0.082 Cl
ATOM     26 CL   UNL     1      -8.579  -1.401   2.448  0.00  0.00    -0.082 Cl
ENDBRANCH   8  19
BRANCH  13  27
ATOM     27  C   UNL     1       0.229  -0.281   0.795  0.00  0.00    -0.006 A 
ATOM     28  C   UNL     1       0.286   1.062   0.966  0.00  0.00    +0.011 A 
ATOM     29  C   UNL     1       1.519   1.666   1.125  0.00  0.00    +0.008 A 
ATOM     30  C   UNL     1       2.635   0.898   1.106  0.00  0.00    +0.045 A 
ATOM     31  S   UNL     1       1.955  -0.734   0.857  0.00  0.00    -0.101 S 
ENDBRANCH  13  27
TORSDOF 2
