REMARK  Name = ZINC39275565
REMARK  5 active torsions:
REMARK  status: ('A' for Active; 'I' for Inactive)
REMARK    1  A    between atoms: C_1  and  C_2
REMARK    2  A    between atoms: C_4  and  C_24
REMARK    3  A    between atoms: C_9  and  C_14
REMARK    4  A    between atoms: C_20  and  S_22
REMARK    5  A    between atoms: S_22  and  C_23
REMARK                            x       y       z     vdW  Elec       q    Type
REMARK                         _______ _______ _______ _____ _____    ______ ____
ROOT
ATOM      1  C   UNL     1      -0.018   1.503   0.010  0.00  0.00    +0.044 C 
ATOM      2  C   UNL     1       0.002  -0.004   0.002  0.00  0.00    -0.047 A 
ATOM      3  C   UNL     1       0.006  -0.683  -1.206  0.00  0.00    +0.007 A 
ATOM      4  C   UNL     1       0.027  -2.061  -1.227  0.00  0.00    -0.036 A 
ATOM      5  C   UNL     1       0.045  -2.768  -0.024  0.00  0.00    +0.062 A 
ATOM      6  C   UNL     1       0.036  -2.082   1.201  0.00  0.00    +0.133 A 
ATOM      7  C   UNL     1       0.023  -0.693   1.198  0.00  0.00    +0.049 A 
ATOM      8  O   UNL     1       0.039  -2.756   2.374  0.00  0.00    -0.478 OA
ATOM      9  C   UNL     1       0.530  -4.096   2.394  0.00  0.00    +0.266 C 
ATOM     10  C   UNL     1      -0.192  -4.919   1.316  0.00  0.00    +0.134 C 
ATOM     11  C   UNL     1       0.075  -4.242  -0.017  0.00  0.00    +0.171 C 
ATOM     12  O   UNL     1       0.301  -4.880  -1.023  0.00  0.00    -0.292 OA
ATOM     13  C   UNL     1       0.031  -2.800  -2.541  0.00  0.00    +0.044 C 
ENDROOT
BRANCH   9  14
ATOM     14  C   UNL     1       0.272  -4.705   3.748  0.00  0.00    +0.260 C 
ATOM     15  O   UNL     1      -0.357  -4.088   4.581  0.00  0.00    -0.271 OA
ATOM     16  N   UNL     1       0.742  -5.936   4.034  0.00  0.00    -0.260 N 
ATOM     17  C   UNL     1       0.504  -6.499   5.285  0.00  0.00    +0.189 A 
ATOM     18  N   UNL     1      -0.154  -6.013   6.325  0.00  0.00    -0.125 NA
ATOM     19  N   UNL     1      -0.279  -6.662   7.400  0.00  0.00    -0.133 NA
ATOM     20  C   UNL     1       0.242  -7.871   7.553  0.00  0.00    +0.160 A 
ATOM     21  S   UNL     1       0.995  -8.091   5.943  0.00  0.00    -0.024 S 
ATOM     22  H   UNL     1       1.245  -6.430   3.368  0.00  0.00    +0.157 HD
BRANCH  20  23
ATOM     23  S   UNL     1       0.200  -8.955   8.941  0.00  0.00    -0.100 S 
ATOM     24  C   UNL     1      -0.749  -8.037  10.186  0.00  0.00    +0.092 C 
ENDBRANCH  20  23
ENDBRANCH   9  14
TORSDOF 2
