REMARK  Name = ZINC35747601
REMARK  11 active torsions:
REMARK  status: ('A' for Active; 'I' for Inactive)
REMARK    1  A    between atoms: C_1  and  O_2
REMARK    2  A    between atoms: O_2  and  C_3
REMARK    3  A    between atoms: C_3  and  C_4
REMARK    4  A    between atoms: C_4  and  C_6
REMARK    5  A    between atoms: C_4  and  O_34
REMARK    6  A    between atoms: C_6  and  N_7
REMARK    7  A    between atoms: N_7  and  C_8
REMARK    8  A    between atoms: N_7  and  C_15
REMARK    9  A    between atoms: C_8  and  C_9
REMARK   10  A    between atoms: C_15  and  C_16
REMARK   11  A    between atoms: C_22  and  C_27
REMARK                            x       y       z     vdW  Elec       q    Type
REMARK                         _______ _______ _______ _____ _____    ______ ____
ROOT
ATOM      1  C   UNL     1       1.407  -6.051  -3.309  0.00  0.00    +0.094 A 
ATOM      2  N   UNL     1       1.859  -6.757  -4.378  0.00  0.00    -0.312 N 
ATOM      3  H   UNL     1       2.333  -6.295  -5.087  0.00  0.00    +0.170 HD
ATOM      4  C   UNL     1       1.662  -8.085  -4.473  0.00  0.00    +0.260 A 
ATOM      5  O   UNL     1       2.074  -8.704  -5.439  0.00  0.00    -0.267 OA
ATOM      6  C   UNL     1       0.961  -8.759  -3.422  0.00  0.00    +0.080 A 
ATOM      7  C   UNL     1       0.627 -10.172  -3.294  0.00  0.00    +0.004 A 
ATOM      8  C   UNL     1      -0.050 -10.585  -2.196  0.00  0.00    +0.056 A 
ATOM      9  S   UNL     1      -0.278  -9.083  -1.263  0.00  0.00    -0.076 S 
ATOM     10  C   UNL     1       0.533  -7.947  -2.359  0.00  0.00    +0.116 A 
ATOM     11  N   UNL     1       0.770  -6.639  -2.333  0.00  0.00    -0.229 NA
ENDROOT
BRANCH   7  12
ATOM     12  C   UNL     1       1.020 -11.139  -4.347  0.00  0.00    -0.015 A 
ATOM     13  C   UNL     1       0.739 -10.869  -5.686  0.00  0.00    +0.008 A 
ATOM     14  C   UNL     1       1.107 -11.772  -6.662  0.00  0.00    +0.002 A 
ATOM     15  C   UNL     1       1.754 -12.945  -6.315  0.00  0.00    +0.020 A 
ATOM     16  C   UNL     1       2.037 -13.219  -4.987  0.00  0.00    +0.042 A 
ATOM     17  C   UNL     1       1.678 -12.319  -4.003  0.00  0.00    +0.028 A 
ATOM     18 CL   UNL     1       2.848 -14.693  -4.561  0.00  0.00    -0.084 Cl
ENDBRANCH   7  12
BRANCH   1  19
ATOM     19  C   UNL     1       1.652  -4.565  -3.247  0.00  0.00    -0.003 C 
BRANCH  19  20
ATOM     20  N   UNL     1       1.081  -4.027  -2.004  0.00  0.00    +0.389 N 
ATOM     21  H   UNL     1       0.105  -4.278  -1.946  0.00  0.00    -0.081 HD
BRANCH  20  22
ATOM     22  C   UNL     1       1.213  -2.564  -1.998  0.00  0.00    -0.044 C 
BRANCH  22  23
ATOM     23  C   UNL     1       0.311  -1.976  -0.911  0.00  0.00    +0.124 C 
BRANCH  23  24
ATOM     24  O   UNL     1       0.804  -2.357   0.375  0.00  0.00    -0.391 OA
ATOM     25  H   UNL     1       1.652  -1.954   0.606  0.00  0.00    +0.210 HD
ENDBRANCH  23  24
BRANCH  23  26
ATOM     26  C   UNL     1       0.306  -0.450  -1.024  0.00  0.00    +0.188 C 
BRANCH  26  28
ATOM     27  C   UNL     1      -0.708   1.520  -0.109  0.00  0.00    +0.194 C 
ATOM     28  O   UNL     1      -0.625   0.094  -0.086  0.00  0.00    -0.381 OA
ENDBRANCH  26  28
ENDBRANCH  23  26
ENDBRANCH  22  23
ENDBRANCH  20  22
BRANCH  20  29
ATOM     29  C   UNL     1       1.800  -4.588  -0.852  0.00  0.00    -0.042 C 
BRANCH  29  30
ATOM     30  C   UNL     1       3.277  -4.329  -1.007  0.00  0.00    -0.064 A 
ATOM     31  C   UNL     1       4.078  -5.258  -1.645  0.00  0.00    +0.002 A 
ATOM     32  C   UNL     1       5.433  -5.020  -1.787  0.00  0.00    +0.000 A 
ATOM     33  C   UNL     1       5.985  -3.854  -1.291  0.00  0.00    +0.000 A 
ATOM     34  C   UNL     1       5.184  -2.925  -0.654  0.00  0.00    +0.000 A 
ATOM     35  C   UNL     1       3.828  -3.161  -0.516  0.00  0.00    +0.002 A 
ENDBRANCH  29  30
ENDBRANCH  20  29
ENDBRANCH  19  20
ENDBRANCH   1  19
TORSDOF 10
