REMARK  Name = ZINC17889271
REMARK  6 active torsions:
REMARK  status: ('A' for Active; 'I' for Inactive)
REMARK    1  A    between atoms: C_1  and  C_2
REMARK    2  A    between atoms: C_2  and  C_3
REMARK    3  A    between atoms: C_2  and  C_4
REMARK    4  A    between atoms: C_7  and  N_10
REMARK    5  A    between atoms: N_22  and  C_23
REMARK    6  A    between atoms: C_23  and  C_25
REMARK                            x       y       z     vdW  Elec       q    Type
REMARK                         _______ _______ _______ _____ _____    ______ ____
ROOT
ATOM      1  N   UNL     1      -5.320  -1.968   0.043  0.00  0.00    -0.276 N 
ATOM      2  C   UNL     1      -5.926  -2.723  -1.017  0.00  0.00    +0.116 C 
ATOM      3  C   UNL     1      -5.245  -3.143  -2.302  0.00  0.00    +0.190 C 
ATOM      4  S   UNL     1      -6.401  -4.482  -2.857  0.00  0.00    -0.028 S 
ATOM      5  O   UNL     1      -7.177  -4.003  -3.946  0.00  0.00    -0.174 OA
ATOM      6  O   UNL     1      -5.674  -5.695  -2.994  0.00  0.00    -0.174 OA
ATOM      7  C   UNL     1      -7.475  -4.584  -1.346  0.00  0.00    +0.182 C 
ATOM      8  C   UNL     1      -6.445  -4.043  -0.325  0.00  0.00    +0.097 C 
ATOM      9  S   UNL     1      -7.186  -3.188   1.112  0.00  0.00    -0.086 S 
ATOM     10  C   UNL     1      -6.231  -1.793   1.089  0.00  0.00    +0.154 C 
ATOM     11  N   UNL     1      -6.328  -0.746   1.899  0.00  0.00    -0.159 NA
ENDROOT
BRANCH   1  15
ATOM     12  C   UNL     1      -1.412  -0.526   0.012  0.00  0.00    -0.045 A 
ATOM     13  C   UNL     1      -1.775  -1.514   0.908  0.00  0.00    +0.006 A 
ATOM     14  C   UNL     1      -3.070  -1.994   0.921  0.00  0.00    +0.024 A 
ATOM     15  C   UNL     1      -4.008  -1.483   0.032  0.00  0.00    +0.036 A 
ATOM     16  C   UNL     1      -3.639  -0.491  -0.867  0.00  0.00    +0.024 A 
ATOM     17  C   UNL     1      -2.344  -0.011  -0.871  0.00  0.00    +0.006 A 
BRANCH  12  19
ATOM     18  C   UNL     1       0.338   0.589   1.370  0.00  0.00    +0.012 C 
ATOM     19  C   UNL     1       0.002  -0.004   0.000  0.00  0.00    +0.013 C 
ATOM     20  C   UNL     1       0.966  -1.151  -0.309  0.00  0.00    +0.012 C 
ENDBRANCH  12  19
ENDBRANCH   1  15
BRANCH  11  21
ATOM     21  C   UNL     1      -7.255  -0.727   2.854  0.00  0.00    +0.241 C 
ATOM     22  O   UNL     1      -8.012  -1.670   2.985  0.00  0.00    -0.273 OA
BRANCH  21  23
ATOM     23  C   UNL     1      -7.365   0.461   3.774  0.00  0.00    +0.077 C 
ATOM     24  C   UNL     1      -6.980   0.258   5.241  0.00  0.00    +0.013 C 
ATOM     25  C   UNL     1      -8.451   0.422   4.852  0.00  0.00    +0.013 C 
ENDBRANCH  21  23
ENDBRANCH  11  21
TORSDOF 4
