REMARK  Name = ZINC06443783
REMARK  8 active torsions:
REMARK  status: ('A' for Active; 'I' for Inactive)
REMARK    1  A    between atoms: C_1  and  C_2
REMARK    2  A    between atoms: C_12  and  C_14
REMARK    3  A    between atoms: C_14  and  C_16
REMARK    4  A    between atoms: C_14  and  N_71
REMARK    5  A    between atoms: N_20  and  C_21
REMARK    6  A    between atoms: C_21  and  C_22
REMARK    7  A    between atoms: C_30  and  C_33
REMARK    8  A    between atoms: C_33  and  C_34
REMARK                            x       y       z     vdW  Elec       q    Type
REMARK                         _______ _______ _______ _____ _____    ______ ____
ROOT
ATOM      1  C   UNL     1       6.122   2.161  -0.048  0.00  0.00    +0.039 C 
ENDROOT
BRANCH   1  13
ATOM      2  C   UNL     1       0.220  -0.387  -1.421  0.00  0.00    +0.046 C 
ATOM      3  C   UNL     1       1.079  -0.473  -0.186  0.00  0.00    -0.026 A 
ATOM      4  C   UNL     1       0.644  -1.189   0.910  0.00  0.00    +0.005 A 
ATOM      5  C   UNL     1       1.426  -1.277   2.053  0.00  0.00    +0.001 A 
ATOM      6  C   UNL     1       2.641  -0.655   2.115  0.00  0.00    +0.010 A 
ATOM      7  C   UNL     1       3.102   0.076   1.016  0.00  0.00    -0.001 A 
ATOM      8  C   UNL     1       2.312   0.168  -0.146  0.00  0.00    +0.052 A 
ATOM      9  N   UNL     1       2.771   0.891  -1.227  0.00  0.00    -0.322 N 
ATOM     10  H   UNL     1       2.226   0.953  -2.027  0.00  0.00    +0.169 HD
ATOM     11  C   UNL     1       3.963   1.511  -1.188  0.00  0.00    +0.251 A 
ATOM     12  O   UNL     1       4.337   2.142  -2.162  0.00  0.00    -0.268 OA
ATOM     13  C   UNL     1       4.793   1.451  -0.048  0.00  0.00    +0.011 A 
ATOM     14  C   UNL     1       4.398   0.755   1.048  0.00  0.00    +0.017 A 
ENDBRANCH   1  13
BRANCH   1  20
ATOM     15  C   UNL     1       7.131   0.167  -0.977  0.00  0.00    -0.077 C 
ATOM     16  C   UNL     1       7.892  -0.383  -2.186  0.00  0.00    -0.015 C 
ATOM     17  C   UNL     1       9.261   0.299  -2.274  0.00  0.00    -0.010 C 
ATOM     18  C   UNL     1       9.062   1.814  -2.374  0.00  0.00    -0.015 C 
ATOM     19  C   UNL     1       8.267   2.300  -1.159  0.00  0.00    -0.077 C 
ATOM     20  N   UNL     1       6.952   1.625  -1.145  0.00  0.00    +0.389 N 
ATOM     21  H   UNL     1       6.478   1.801  -2.039  0.00  0.00    -0.080 HD
BRANCH  17  22
ATOM     22  C   UNL     1      10.003  -0.202  -3.515  0.00  0.00    +0.038 C 
BRANCH  22  23
ATOM     23  C   UNL     1      10.306  -1.670  -3.360  0.00  0.00    -0.047 A 
ATOM     24  C   UNL     1      11.493  -2.073  -2.778  0.00  0.00    +0.003 A 
ATOM     25  C   UNL     1      11.769  -3.420  -2.632  0.00  0.00    +0.000 A 
ATOM     26  C   UNL     1      10.862  -4.364  -3.078  0.00  0.00    +0.000 A 
ATOM     27  C   UNL     1       9.678  -3.960  -3.664  0.00  0.00    +0.000 A 
ATOM     28  C   UNL     1       9.400  -2.614  -3.806  0.00  0.00    +0.003 A 
ENDBRANCH  22  23
ENDBRANCH  17  22
ENDBRANCH   1  20
BRANCH   1  29
ATOM     29  C   UNL     1       6.802   1.955   1.281  0.00  0.00    +0.143 A 
ATOM     30  N   UNL     1       7.392   0.861   1.696  0.00  0.00    -0.115 NA
ATOM     31  N   UNL     1       7.850   1.080   2.880  0.00  0.00    -0.023 NA
ATOM     32  N   UNL     1       7.568   2.286   3.231  0.00  0.00    -0.044 NA
ATOM     33  N   UNL     1       6.926   2.860   2.270  0.00  0.00    -0.228 N 
BRANCH  33  34
ATOM     34  C   UNL     1       6.424   4.236   2.258  0.00  0.00    +0.178 C 
BRANCH  34  35
ATOM     35  C   UNL     1       5.002   4.265   2.823  0.00  0.00    +0.140 C 
ATOM     36  C   UNL     1       4.471   5.720   2.870  0.00  0.00    +0.035 C 
ATOM     37  C   UNL     1       2.938   5.476   2.821  0.00  0.00    +0.031 C 
ATOM     38  C   UNL     1       2.833   4.228   1.919  0.00  0.00    +0.160 C 
ATOM     39  O   UNL     1       4.103   3.566   1.946  0.00  0.00    -0.375 OA
ENDBRANCH  34  35
ENDBRANCH  33  34
ENDBRANCH   1  29
TORSDOF 7
