REMARK  Name = ZINC39545846
REMARK  10 active torsions:
REMARK  status: ('A' for Active; 'I' for Inactive)
REMARK    1  A    between atoms: C_1  and  C_2
REMARK    2  A    between atoms: C_2  and  C_3
REMARK    3  A    between atoms: C_2  and  S_4
REMARK    4  A    between atoms: S_4  and  N_7
REMARK    5  A    between atoms: N_7  and  S_26
REMARK    6  A    between atoms: C_8  and  C_10
REMARK    7  A    between atoms: C_13  and  O_24
REMARK    8  A    between atoms: O_24  and  C_25
REMARK    9  A    between atoms: S_26  and  O_29
REMARK   10  A    between atoms: O_29  and  C_30
REMARK                            x       y       z     vdW  Elec       q    Type
REMARK                         _______ _______ _______ _____ _____    ______ ____
ROOT
ATOM      1  N   UNL     1      -3.188   0.058   1.996  0.00  0.00    -0.008 N 
ATOM      2  C   UNL     1      -3.726   1.023   2.767  0.00  0.00    +0.277 C 
ATOM      3  O   UNL     1      -3.745   0.895   3.973  0.00  0.00    -0.270 OA
ENDROOT
BRANCH   2   4
ATOM      4  C   UNL     1      -4.304   2.261   2.131  0.00  0.00    +0.155 C 
ATOM      5  C   UNL     1      -5.457   2.820   2.988  0.00  0.00    +0.107 C 
ATOM      6  C   UNL     1      -4.971   4.188   3.412  0.00  0.00    +0.134 C 
ATOM      7  C   UNL     1      -3.782   4.404   2.905  0.00  0.00    +0.113 C 
ATOM      8  N   UNL     1      -2.985   5.557   3.109  0.00  0.00    -0.301 N 
ATOM      9  C   UNL     1      -1.605   5.310   3.204  0.00  0.00    +0.037 A 
ATOM     10  C   UNL     1      -0.739   6.348   3.517  0.00  0.00    +0.023 A 
ATOM     11  C   UNL     1       0.619   6.107   3.601  0.00  0.00    +0.002 A 
ATOM     12  C   UNL     1       1.107   4.833   3.371  0.00  0.00    +0.000 A 
ATOM     13  C   UNL     1       0.244   3.800   3.063  0.00  0.00    +0.007 A 
ATOM     14  C   UNL     1      -1.120   4.029   2.983  0.00  0.00    -0.010 A 
ATOM     15  C   UNL     1      -2.036   2.874   2.672  0.00  0.00    +0.124 C 
ATOM     16  N   UNL     1      -3.308   3.344   2.114  0.00  0.00    -0.367 NA
ATOM     17  H   UNL     1      -3.363   6.447   3.178  0.00  0.00    +0.153 HD
ATOM     18  H   UNL     1      -3.168   3.661   1.166  0.00  0.00    +0.129 HD
BRANCH   6  19
ATOM     19  O   UNL     1      -5.662   5.058   4.197  0.00  0.00    -0.496 OA
ATOM     20  C   UNL     1      -5.075   6.343   4.413  0.00  0.00    +0.276 C 
ENDBRANCH   6  19
ENDBRANCH   2   4
BRANCH   1  21
ATOM     21  S   UNL     1      -3.021   0.297   0.365  0.00  0.00    +0.071 S 
ATOM     22  O   UNL     1      -1.888  -0.478  -0.001  0.00  0.00    -0.153 OA
ATOM     23  O   UNL     1      -3.015   1.709   0.205  0.00  0.00    -0.153 OA
BRANCH  21  25
ATOM     24  C   UNL     1      -4.609  -1.896  -0.021  0.00  0.00    +0.033 C 
ATOM     25  C   UNL     1      -4.524  -0.408  -0.366  0.00  0.00    +0.147 C 
ATOM     26  C   UNL     1      -5.751   0.316   0.192  0.00  0.00    +0.033 C 
ENDBRANCH  21  25
ENDBRANCH   1  21
BRANCH   1  27
ATOM     27  S   UNL     1      -2.694  -1.368   2.678  0.00  0.00    +0.231 S 
ATOM     28  O   UNL     1      -3.545  -1.603   3.791  0.00  0.00    -0.114 OA
ATOM     29  O   UNL     1      -2.555  -2.301   1.614  0.00  0.00    -0.114 OA
BRANCH  27  30
ATOM     30  O   UNL     1      -1.298  -1.138   3.239  0.00  0.00    -0.330 OA
BRANCH  30  31
ATOM     31  C   UNL     1      -1.282  -0.480   4.427  0.00  0.00    +0.158 A 
ATOM     32  C   UNL     1      -1.077   0.892   4.459  0.00  0.00    +0.048 A 
ATOM     33  C   UNL     1      -1.062   1.560   5.668  0.00  0.00    +0.004 A 
ATOM     34  C   UNL     1      -1.249   0.861   6.847  0.00  0.00    +0.000 A 
ATOM     35  C   UNL     1      -1.452  -0.506   6.818  0.00  0.00    +0.004 A 
ATOM     36  C   UNL     1      -1.475  -1.177   5.611  0.00  0.00    +0.048 A 
ENDBRANCH  30  31
ENDBRANCH  27  30
ENDBRANCH   1  27
TORSDOF 7
