REMARK  Name = ZINC53334946
REMARK  7 active torsions:
REMARK  status: ('A' for Active; 'I' for Inactive)
REMARK    1  A    between atoms: C_1  and  S_2
REMARK    2  A    between atoms: S_2  and  C_3
REMARK    3  A    between atoms: C_3  and  C_4
REMARK    4  A    between atoms: C_4  and  C_5
REMARK    5  A    between atoms: C_5  and  C_7
REMARK    6  A    between atoms: C_5  and  N_16
REMARK    7  A    between atoms: C_17  and  C_19
REMARK                            x       y       z     vdW  Elec       q    Type
REMARK                         _______ _______ _______ _____ _____    ______ ____
ROOT
ATOM      1  C   UNL     1      -3.356  -2.382   0.021  0.00  0.00    +0.142 C 
ENDROOT
BRANCH   1   2
ATOM      2  C   UNL     1      -3.480  -3.879   0.138  0.00  0.00    +0.158 A 
ATOM      3  N   UNL     1      -3.253  -4.751  -0.811  0.00  0.00    -0.132 NA
ATOM      4  N   UNL     1      -3.451  -5.946  -0.376  0.00  0.00    -0.129 NA
ATOM      5  C   UNL     1      -3.821  -5.898   0.893  0.00  0.00    +0.161 A 
ATOM      6  N   UNL     1      -3.842  -4.572   1.252  0.00  0.00    -0.285 N 
ATOM      7  C   UNL     1      -4.186  -4.204   2.519  0.00  0.00    +0.094 A 
ATOM      8  C   UNL     1      -4.507  -5.137   3.440  0.00  0.00    +0.018 A 
ATOM      9  C   UNL     1      -4.492  -6.502   3.104  0.00  0.00    +0.005 A 
ATOM     10  C   UNL     1      -4.159  -6.882   1.842  0.00  0.00    +0.048 A 
ENDBRANCH   1   2
BRANCH   1  11
ATOM     11  N   UNL     1      -3.989  -1.935  -1.222  0.00  0.00    -0.301 N 
ATOM     12  C   UNL     1      -4.456  -0.675  -1.326  0.00  0.00    +0.245 C 
ATOM     13  O   UNL     1      -4.351   0.091  -0.387  0.00  0.00    -0.270 OA
ATOM     14  H   UNL     1      -4.073  -2.547  -1.971  0.00  0.00    +0.150 HD
BRANCH  12  15
ATOM     15  C   UNL     1      -5.092  -0.227  -2.575  0.00  0.00    +0.047 A 
ATOM     16  C   UNL     1      -5.229  -1.074  -3.651  0.00  0.00    +0.058 A 
ATOM     17  S   UNL     1      -5.995  -0.139  -4.817  0.00  0.00    -0.101 S 
ATOM     18  C   UNL     1      -6.154   1.380  -3.925  0.00  0.00    -0.006 A 
ATOM     19  C   UNL     1      -5.603   1.123  -2.717  0.00  0.00    -0.025 A 
ATOM     20  C   UNL     1      -5.541   2.190  -1.633  0.00  0.00    +0.037 C 
ATOM     21  C   UNL     1      -5.749   3.560  -2.283  0.00  0.00    +0.005 C 
ATOM     22  C   UNL     1      -7.018   3.545  -3.140  0.00  0.00    +0.005 C 
ATOM     23  C   UNL     1      -6.763   2.670  -4.380  0.00  0.00    +0.043 C 
ENDBRANCH  12  15
ENDBRANCH   1  11
BRANCH   1  24
ATOM     24  C   UNL     1      -1.877  -1.992   0.009  0.00  0.00    +0.041 C 
BRANCH  24  25
ATOM     25  C   UNL     1      -1.752  -0.467   0.016  0.00  0.00    +0.071 C 
BRANCH  25  27
ATOM     26  C   UNL     1      -0.022   1.810   0.012  0.00  0.00    +0.084 C 
ATOM     27  S   UNL     1       0.002  -0.004   0.002  0.00  0.00    -0.164 S 
ENDBRANCH  25  27
ENDBRANCH  24  25
ENDBRANCH   1  24
TORSDOF 6
