REMARK  Name = ZINC39324368
REMARK  10 active torsions:
REMARK  status: ('A' for Active; 'I' for Inactive)
REMARK    1  A    between atoms: C_1  and  C_2
REMARK    2  A    between atoms: C_2  and  O_3
REMARK    3  A    between atoms: O_3  and  C_4
REMARK    4  A    between atoms: C_9  and  C_10
REMARK    5  A    between atoms: C_18  and  N_33
REMARK    6  A    between atoms: C_19  and  C_31
REMARK    7  A    between atoms: C_20  and  C_22
REMARK    8  A    between atoms: C_27  and  O_28
REMARK    9  A    between atoms: O_28  and  C_29
REMARK   10  A    between atoms: C_29  and  C_30
REMARK                            x       y       z     vdW  Elec       q    Type
REMARK                         _______ _______ _______ _____ _____    ______ ____
ROOT
ATOM      1  C   UNL     1      -3.970  -1.530   0.032  0.00  0.00    +0.018 C 
ATOM      2  C   UNL     1      -5.201  -2.065  -0.060  0.00  0.00    -0.004 C 
ATOM      3  C   UNL     1      -5.399  -3.564  -0.063  0.00  0.00    +0.039 C 
ATOM      4  C   UNL     1      -6.468  -3.872  -1.121  0.00  0.00    +0.009 C 
ATOM      5  C   UNL     1      -7.773  -3.198  -0.711  0.00  0.00    +0.036 C 
ATOM      6  C   UNL     1      -7.584  -1.723  -0.468  0.00  0.00    -0.014 C 
ATOM      7  C   UNL     1      -6.396  -1.203  -0.156  0.00  0.00    +0.133 C 
ATOM      8  O   UNL     1      -6.239   0.126   0.077  0.00  0.00    -0.441 OA
ATOM      9  C   UNL     1      -7.134   1.005  -0.403  0.00  0.00    +0.199 C 
ATOM     10  C   UNL     1      -8.387   0.605  -0.734  0.00  0.00    +0.098 C 
ATOM     11  C   UNL     1      -8.799  -0.831  -0.582  0.00  0.00    +0.097 C 
ENDROOT
BRANCH   1  17
ATOM     12  C   UNL     1      -1.588  -2.140  -0.372  0.00  0.00    +0.128 A 
ATOM     13  C   UNL     1      -0.498  -2.961  -0.135  0.00  0.00    +0.046 A 
ATOM     14  C   UNL     1      -0.613  -4.035   0.728  0.00  0.00    +0.004 A 
ATOM     15  C   UNL     1      -1.816  -4.299   1.361  0.00  0.00    +0.001 A 
ATOM     16  C   UNL     1      -2.911  -3.492   1.137  0.00  0.00    +0.011 A 
ATOM     17  C   UNL     1      -2.806  -2.400   0.272  0.00  0.00    +0.017 A 
BRANCH  12  18
ATOM     18  O   UNL     1      -1.475  -1.085  -1.220  0.00  0.00    -0.492 OA
BRANCH  18  20
ATOM     19  C   UNL     1      -0.269   0.343  -2.751  0.00  0.00    +0.048 C 
ATOM     20  C   UNL     1      -0.203  -0.883  -1.838  0.00  0.00    +0.226 C 
ENDBRANCH  18  20
ENDBRANCH  12  18
ENDBRANCH   1  17
BRANCH  11  21
ATOM     21  C   UNL     1      -9.631  -0.963   0.668  0.00  0.00    +0.007 A 
ATOM     22  C   UNL     1      -9.091  -0.633   1.896  0.00  0.00    +0.008 A 
ATOM     23  C   UNL     1      -9.854  -0.754   3.042  0.00  0.00    +0.001 A 
ATOM     24  C   UNL     1     -11.159  -1.205   2.963  0.00  0.00    +0.004 A 
ATOM     25  C   UNL     1     -11.704  -1.536   1.738  0.00  0.00    +0.046 A 
ATOM     26  C   UNL     1     -10.942  -1.410   0.585  0.00  0.00    +0.125 A 
BRANCH  26  27
ATOM     27  O   UNL     1     -11.477  -1.729  -0.623  0.00  0.00    -0.492 OA
BRANCH  27  28
ATOM     28  C   UNL     1     -12.832  -2.183  -0.633  0.00  0.00    +0.225 C 
ATOM     29  C   UNL     1     -13.256  -2.491  -2.070  0.00  0.00    +0.048 C 
ENDBRANCH  27  28
ENDBRANCH  26  27
ENDBRANCH  11  21
BRANCH   9  30
ATOM     30  N   UNL     1      -6.777   2.321  -0.560  0.00  0.00    -0.328 N 
ATOM     31  H   UNL     1      -5.883   2.612  -0.325  0.00  0.00    +0.145 HD
ATOM     32  H   UNL     1      -7.420   2.959  -0.907  0.00  0.00    +0.145 HD
ENDBRANCH   9  30
BRANCH  10  33
ATOM     33  C   UNL     1      -9.325   1.559  -1.246  0.00  0.00    +0.101 C 
ATOM     34  N   UNL     1     -10.069   2.316  -1.651  0.00  0.00    -0.191 NA
ENDBRANCH  10  33
TORSDOF 8
