REMARK  Name = ZINC10188487
REMARK  10 active torsions:
REMARK  status: ('A' for Active; 'I' for Inactive)
REMARK    1  A    between atoms: C_1  and  N_2
REMARK    2  A    between atoms: N_2  and  C_3
REMARK    3  A    between atoms: N_2  and  C_4
REMARK    4  A    between atoms: C_7  and  C_10
REMARK    5  A    between atoms: C_10  and  C_12
REMARK    6  A    between atoms: C_10  and  N_65
REMARK    7  A    between atoms: C_12  and  N_13
REMARK    8  A    between atoms: C_14  and  C_16
REMARK    9  A    between atoms: N_18  and  C_19
REMARK   10  A    between atoms: C_24  and  N_25
REMARK                            x       y       z     vdW  Elec       q    Type
REMARK                         _______ _______ _______ _____ _____    ______ ____
ROOT
ATOM      1  C   UNL     1       1.572   0.294   0.058  0.00  0.00    -0.020 C 
ENDROOT
BRANCH   1  11
ATOM      2  C   UNL     1       1.483  -0.685   2.273  0.00  0.00    -0.073 C 
ATOM      3  C   UNL     1       1.478  -2.042   2.979  0.00  0.00    +0.017 C 
ATOM      4  C   UNL     1       2.777  -2.761   2.723  0.00  0.00    -0.048 A 
ATOM      5  C   UNL     1       3.117  -3.825   3.544  0.00  0.00    +0.004 A 
ATOM      6  C   UNL     1       4.296  -4.513   3.341  0.00  0.00    +0.000 A 
ATOM      7  C   UNL     1       5.143  -4.139   2.314  0.00  0.00    +0.000 A 
ATOM      8  C   UNL     1       4.806  -3.080   1.497  0.00  0.00    +0.002 A 
ATOM      9  C   UNL     1       3.622  -2.385   1.700  0.00  0.00    -0.061 A 
ATOM     10  C   UNL     1       3.302  -1.231   0.788  0.00  0.00    -0.042 C 
ATOM     11  N   UNL     1       1.867  -0.912   0.865  0.00  0.00    +0.388 N 
ATOM     12  H   UNL     1       1.327  -1.702   0.493  0.00  0.00    -0.080 HD
ENDBRANCH   1  11
BRANCH   1  16
ATOM     13  C   UNL     1       4.749   3.130   0.423  0.00  0.00    +0.029 A 
ATOM     14  C   UNL     1       4.427   2.601  -0.821  0.00  0.00    +0.023 A 
ATOM     15  C   UNL     1       3.400   1.685  -0.935  0.00  0.00    +0.004 A 
ATOM     16  C   UNL     1       2.692   1.294   0.187  0.00  0.00    -0.059 A 
ATOM     17  C   UNL     1       3.006   1.823   1.425  0.00  0.00    +0.004 A 
ATOM     18  C   UNL     1       4.035   2.736   1.548  0.00  0.00    +0.023 A 
BRANCH  13  20
ATOM     19  C   UNL     1       6.538   4.473  -0.645  0.00  0.00    +0.129 C 
ATOM     20  N   UNL     1       5.786   4.058   0.542  0.00  0.00    -0.336 N 
ATOM     21  C   UNL     1       6.124   4.615   1.855  0.00  0.00    +0.129 C 
ENDBRANCH  13  20
ENDBRANCH   1  16
BRANCH   1  22
ATOM     22  C   UNL     1       0.267   0.925   0.547  0.00  0.00    +0.094 C 
BRANCH  22  23
ATOM     23  N   UNL     1      -0.848   0.014   0.274  0.00  0.00    -0.309 N 
ATOM     24  C   UNL     1      -2.088   0.319   0.705  0.00  0.00    +0.299 C 
ATOM     25  O   UNL     1      -2.281   1.345   1.323  0.00  0.00    -0.265 OA
ATOM     26  H   UNL     1      -0.694  -0.806  -0.220  0.00  0.00    +0.149 HD
BRANCH  24  27
ATOM     27  C   UNL     1      -3.226  -0.606   0.421  0.00  0.00    +0.303 C 
ATOM     28  O   UNL     1      -3.033  -1.633  -0.197  0.00  0.00    -0.265 OA
ATOM     29  N   UNL     1      -4.466  -0.301   0.852  0.00  0.00    -0.276 N 
ATOM     30  H   UNL     1      -4.636   0.555   1.275  0.00  0.00    +0.155 HD
BRANCH  29  31
ATOM     31  C   UNL     1      -5.507  -1.219   0.689  0.00  0.00    +0.064 A 
ATOM     32  C   UNL     1      -5.250  -2.583   0.752  0.00  0.00    +0.025 A 
ATOM     33  C   UNL     1      -6.282  -3.487   0.596  0.00  0.00    +0.002 A 
ATOM     34  C   UNL     1      -7.569  -3.036   0.365  0.00  0.00    +0.002 A 
ATOM     35  C   UNL     1      -7.828  -1.679   0.297  0.00  0.00    +0.034 A 
ATOM     36  C   UNL     1      -6.801  -0.770   0.458  0.00  0.00    +0.147 A 
BRANCH  36  37
ATOM     37  N   UNL     1      -7.079   0.682   0.383  0.00  0.00    +0.058 N 
ATOM     38  O   UNL     1      -8.226   1.079   0.284  0.00  0.00    -0.126 OA
ATOM     39  O   UNL     1      -6.160   1.481   0.422  0.00  0.00    -0.126 OA
ENDBRANCH  36  37
ENDBRANCH  29  31
ENDBRANCH  24  27
ENDBRANCH  22  23
ENDBRANCH   1  22
TORSDOF 8
