REMARK  Name = ZINC16932056
REMARK  11 active torsions:
REMARK  status: ('A' for Active; 'I' for Inactive)
REMARK    1  A    between atoms: C_1  and  C_2
REMARK    2  A    between atoms: C_2  and  C_33
REMARK    3  A    between atoms: C_3  and  C_4
REMARK    4  A    between atoms: N_6  and  C_7
REMARK    5  A    between atoms: C_8  and  C_18
REMARK    6  A    between atoms: C_9  and  C_12
REMARK    7  A    between atoms: C_18  and  O_20
REMARK    8  A    between atoms: O_20  and  C_21
REMARK    9  A    between atoms: C_21  and  C_22
REMARK   10  A    between atoms: N_27  and  C_28
REMARK   11  A    between atoms: C_28  and  C_29
REMARK                            x       y       z     vdW  Elec       q    Type
REMARK                         _______ _______ _______ _____ _____    ______ ____
ROOT
ATOM      1  C   UNL     1      -0.851   1.194  -3.422  0.00  0.00    +0.087 A 
ATOM      2  C   UNL     1      -1.838   1.681  -4.270  0.00  0.00    +0.095 A 
ATOM      3  C   UNL     1      -2.443   0.728  -5.182  0.00  0.00    +0.005 A 
ATOM      4  C   UNL     1      -1.988  -0.549  -5.120  0.00  0.00    +0.056 A 
ATOM      5  S   UNL     1      -0.744  -0.481  -3.848  0.00  0.00    -0.080 S 
ENDROOT
BRANCH   3   6
ATOM      6  C   UNL     1      -3.506   1.130  -6.134  0.00  0.00    -0.017 A 
ATOM      7  C   UNL     1      -4.615   1.843  -5.683  0.00  0.00    +0.008 A 
ATOM      8  C   UNL     1      -5.599   2.220  -6.575  0.00  0.00    +0.001 A 
ATOM      9  C   UNL     1      -5.491   1.880  -7.912  0.00  0.00    +0.000 A 
ATOM     10  C   UNL     1      -4.395   1.167  -8.364  0.00  0.00    +0.001 A 
ATOM     11  C   UNL     1      -3.402   0.791  -7.482  0.00  0.00    +0.008 A 
ENDBRANCH   3   6
BRANCH   1  14
ATOM     12  C   UNL     1       0.802   1.240  -1.730  0.00  0.00    +0.241 C 
ATOM     13  O   UNL     1       0.999   0.052  -1.903  0.00  0.00    -0.270 OA
ATOM     14  N   UNL     1      -0.124   1.884  -2.468  0.00  0.00    -0.276 N 
ATOM     15  H   UNL     1      -0.280   2.831  -2.330  0.00  0.00    +0.156 HD
BRANCH  12  18
ATOM     16  C   UNL     1       2.434  -0.189   0.078  0.00  0.00    +0.039 C 
ATOM     17  C   UNL     1       2.409   1.318   0.087  0.00  0.00    -0.071 C 
ATOM     18  C   UNL     1       1.579   1.974  -0.721  0.00  0.00    +0.066 C 
ATOM     19  C   UNL     1       3.322   2.082   1.010  0.00  0.00    +0.039 C 
ENDBRANCH  12  18
ENDBRANCH   1  14
BRANCH   2  20
ATOM     20  C   UNL     1      -2.247   3.085  -4.245  0.00  0.00    +0.343 C 
ATOM     21  O   UNL     1      -1.684   3.895  -4.957  0.00  0.00    -0.245 OA
BRANCH  20  22
ATOM     22  O   UNL     1      -3.248   3.481  -3.432  0.00  0.00    -0.452 OA
BRANCH  22  23
ATOM     23  C   UNL     1      -3.600   4.889  -3.459  0.00  0.00    +0.328 C 
BRANCH  23  24
ATOM     24  C   UNL     1      -4.730   5.143  -2.494  0.00  0.00    +0.258 C 
ATOM     25  O   UNL     1      -5.192   4.227  -1.847  0.00  0.00    -0.272 OA
ATOM     26  N   UNL     1      -5.226   6.388  -2.350  0.00  0.00    -0.237 N 
ATOM     27  C   UNL     1      -6.236   6.614  -1.487  0.00  0.00    +0.306 C 
ATOM     28  O   UNL     1      -6.699   5.697  -0.839  0.00  0.00    -0.252 OA
ATOM     29  N   UNL     1      -6.733   7.859  -1.343  0.00  0.00    -0.290 N 
ATOM     30  H   UNL     1      -4.857   7.120  -2.867  0.00  0.00    +0.159 HD
ATOM     31  H   UNL     1      -6.363   8.592  -1.860  0.00  0.00    +0.151 HD
BRANCH  29  32
ATOM     32  C   UNL     1      -7.831   8.106  -0.404  0.00  0.00    +0.219 C 
BRANCH  32  33
ATOM     33  C   UNL     1      -8.202   9.590  -0.433  0.00  0.00    +0.405 C 
ATOM     34  F   UNL     1      -8.604   9.945  -1.725  0.00  0.00    -0.169 F 
ATOM     35  F   UNL     1      -9.251   9.825   0.463  0.00  0.00    -0.169 F 
ATOM     36  F   UNL     1      -7.092  10.356  -0.063  0.00  0.00    -0.169 F 
ENDBRANCH  32  33
ENDBRANCH  29  32
ENDBRANCH  23  24
ENDBRANCH  22  23
ENDBRANCH  20  22
ENDBRANCH   2  20
TORSDOF 9
