REMARK  Name = ZINC12021507
REMARK  12 active torsions:
REMARK  status: ('A' for Active; 'I' for Inactive)
REMARK    1  A    between atoms: C_1  and  N_68
REMARK    2  A    between atoms: C_4  and  N_7
REMARK    3  A    between atoms: N_7  and  C_8
REMARK    4  A    between atoms: C_9  and  C_11
REMARK    5  A    between atoms: C_11  and  C_12
REMARK    6  A    between atoms: C_12  and  C_13
REMARK    7  A    between atoms: C_19  and  C_20
REMARK    8  A    between atoms: C_19  and  N_70
REMARK    9  A    between atoms: C_23  and  O_26
REMARK   10  A    between atoms: O_26  and  C_27
REMARK   11  A    between atoms: C_27  and  C_28
REMARK   12  A    between atoms: C_28  and  O_29
REMARK                            x       y       z     vdW  Elec       q    Type
REMARK                         _______ _______ _______ _____ _____    ______ ____
ROOT
ATOM      1  C   UNL     1      -0.756   1.594  -1.230  0.00  0.00    -0.027 C 
ATOM      2  C   UNL     1      -0.013   1.086   0.008  0.00  0.00    -0.000 C 
ATOM      3  C   UNL     1      -0.732   1.581   1.266  0.00  0.00    -0.018 C 
ATOM      4  C   UNL     1      -2.185   1.096   1.239  0.00  0.00    -0.078 C 
ATOM      5  C   UNL     1      -2.207   1.109  -1.184  0.00  0.00    -0.075 C 
ATOM      6  N   UNL     1      -2.851   1.640   0.036  0.00  0.00    +0.383 N 
ATOM      7  H   UNL     1      -2.764   2.663   0.041  0.00  0.00    -0.081 HD
ENDROOT
BRANCH   1   8
ATOM      8  C   UNL     1      -0.077   1.054  -2.491  0.00  0.00    +0.011 C 
BRANCH   8   9
ATOM      9  C   UNL     1       1.334   1.636  -2.599  0.00  0.00    +0.096 C 
BRANCH   9  12
ATOM     10  N   UNL     1       3.260   1.482  -4.143  0.00  0.00    -0.302 N 
ATOM     11  C   UNL     1       3.978   2.410  -3.265  0.00  0.00    +0.132 C 
ATOM     12  C   UNL     1       2.003   1.104  -3.841  0.00  0.00    +0.216 C 
ATOM     13  O   UNL     1       1.409   0.336  -4.567  0.00  0.00    -0.276 OA
BRANCH  10  17
ATOM     14  C   UNL     1       7.025   0.461  -8.235  0.00  0.00    -0.096 C 
ATOM     15  C   UNL     1       5.015   1.591  -7.500  0.00  0.00    -0.077 C 
ATOM     16  C   UNL     1       4.282   2.132  -6.270  0.00  0.00    +0.004 C 
ATOM     17  C   UNL     1       3.910   0.966  -5.350  0.00  0.00    +0.072 C 
ATOM     18  C   UNL     1       5.182   0.207  -4.961  0.00  0.00    +0.004 C 
ATOM     19  C   UNL     1       5.889  -0.278  -6.229  0.00  0.00    -0.077 C 
ATOM     20  N   UNL     1       6.241   0.893  -7.060  0.00  0.00    +0.378 N 
ATOM     21  H   UNL     1       6.809   1.540  -6.500  0.00  0.00    -0.082 HD
ENDBRANCH  10  17
ENDBRANCH   9  12
ENDBRANCH   8   9
ENDBRANCH   1   8
BRANCH   6  22
ATOM     22  C   UNL     1      -4.284   1.280   0.048  0.00  0.00    -0.043 C 
BRANCH  22  23
ATOM     23  C   UNL     1      -4.959   2.012   1.179  0.00  0.00    -0.064 A 
ATOM     24  C   UNL     1      -5.054   1.419   2.424  0.00  0.00    +0.005 A 
ATOM     25  C   UNL     1      -5.668   2.090   3.465  0.00  0.00    +0.046 A 
ATOM     26  C   UNL     1      -6.199   3.355   3.255  0.00  0.00    +0.121 A 
ATOM     27  C   UNL     1      -6.107   3.945   2.003  0.00  0.00    +0.046 A 
ATOM     28  C   UNL     1      -5.487   3.272   0.968  0.00  0.00    +0.005 A 
BRANCH  26  29
ATOM     29  O   UNL     1      -6.809   4.014   4.275  0.00  0.00    -0.490 OA
BRANCH  29  30
ATOM     30  C   UNL     1      -6.867   3.346   5.537  0.00  0.00    +0.256 C 
BRANCH  30  31
ATOM     31  C   UNL     1      -7.584   4.237   6.553  0.00  0.00    +0.196 C 
BRANCH  31  32
ATOM     32  O   UNL     1      -8.945   4.413   6.156  0.00  0.00    -0.392 OA
ATOM     33  H   UNL     1      -9.461   4.968   6.756  0.00  0.00    +0.210 HD
ENDBRANCH  31  32
ENDBRANCH  30  31
ENDBRANCH  29  30
ENDBRANCH  26  29
ENDBRANCH  22  23
ENDBRANCH   6  22
TORSDOF 10
