REMARK  Name = ZINC32836144
REMARK  11 active torsions:
REMARK  status: ('A' for Active; 'I' for Inactive)
REMARK    1  A    between atoms: C_1  and  C_2
REMARK    2  A    between atoms: C_2  and  C_3
REMARK    3  A    between atoms: C_8  and  N_9
REMARK    4  A    between atoms: C_10  and  C_12
REMARK    5  A    between atoms: C_12  and  N_13
REMARK    6  A    between atoms: C_14  and  C_16
REMARK    7  A    between atoms: C_16  and  N_17
REMARK    8  A    between atoms: N_17  and  C_18
REMARK    9  A    between atoms: N_17  and  C_31
REMARK   10  A    between atoms: C_18  and  C_19
REMARK   11  A    between atoms: C_31  and  C_32
REMARK                            x       y       z     vdW  Elec       q    Type
REMARK                         _______ _______ _______ _____ _____    ______ ____
ROOT
ATOM      1  N   UNL     1      -1.992  -0.348  -9.574  0.00  0.00    -0.284 NA
ENDROOT
BRANCH   1   2
ATOM      2  C   UNL     1      -2.526  -0.338  -8.205  0.00  0.00    +0.181 C 
BRANCH   2   4
ATOM      3  N   UNL     1      -1.672   0.033  -5.914  0.00  0.00    -0.306 N 
ATOM      4  C   UNL     1      -1.415  -0.029  -7.235  0.00  0.00    +0.228 C 
ATOM      5  O   UNL     1      -0.289   0.163  -7.644  0.00  0.00    -0.274 OA
ATOM      6  H   UNL     1      -2.572  -0.121  -5.587  0.00  0.00    +0.149 HD
BRANCH   3   7
ATOM      7  C   UNL     1      -0.592   0.333  -4.971  0.00  0.00    +0.200 C 
BRANCH   7   9
ATOM      8  N   UNL     1      -0.321   0.598  -2.526  0.00  0.00    -0.284 N 
ATOM      9  C   UNL     1      -1.139   0.343  -3.567  0.00  0.00    +0.234 C 
ATOM     10  O   UNL     1      -2.316   0.122  -3.373  0.00  0.00    -0.274 OA
ATOM     11  H   UNL     1       0.605   0.841  -2.685  0.00  0.00    +0.155 HD
BRANCH   8  17
ATOM     12  C   UNL     1       0.018   0.061  -0.196  0.00  0.00    -0.026 A 
ATOM     13  C   UNL     1      -0.463  -0.015   1.096  0.00  0.00    +0.005 A 
ATOM     14  C   UNL     1      -1.767   0.352   1.373  0.00  0.00    +0.000 A 
ATOM     15  C   UNL     1      -2.593   0.798   0.358  0.00  0.00    +0.002 A 
ATOM     16  C   UNL     1      -2.118   0.878  -0.936  0.00  0.00    +0.023 A 
ATOM     17  C   UNL     1      -0.807   0.514  -1.217  0.00  0.00    +0.037 A 
BRANCH  12  19
ATOM     18  C   UNL     1       2.335   0.901  -0.472  0.00  0.00    +0.009 C 
ATOM     19  C   UNL     1       1.440  -0.339  -0.497  0.00  0.00    +0.033 C 
ENDBRANCH  12  19
ENDBRANCH   8  17
ENDBRANCH   7   9
ENDBRANCH   3   7
ENDBRANCH   2   4
ENDBRANCH   1   2
BRANCH   1  20
ATOM     20  C   UNL     1      -3.078  -0.409 -10.562  0.00  0.00    +0.159 C 
BRANCH  20  21
ATOM     21  C   UNL     1      -3.793   0.916 -10.604  0.00  0.00    +0.125 A 
ATOM     22  N   UNL     1      -4.906   1.023 -11.377  0.00  0.00    -0.309 N 
ATOM     23  H   UNL     1      -5.217   0.255 -11.880  0.00  0.00    +0.170 HD
ATOM     24  C   UNL     1      -5.585   2.192 -11.449  0.00  0.00    +0.259 A 
ATOM     25  O   UNL     1      -6.584   2.302 -12.136  0.00  0.00    -0.267 OA
ATOM     26  C   UNL     1      -5.070   3.324 -10.664  0.00  0.00    +0.065 A 
ATOM     27  C   UNL     1      -5.694   4.569 -10.669  0.00  0.00    +0.015 A 
ATOM     28  C   UNL     1      -5.168   5.595  -9.915  0.00  0.00    +0.001 A 
ATOM     29  C   UNL     1      -4.024   5.397  -9.153  0.00  0.00    +0.002 A 
ATOM     30  C   UNL     1      -3.392   4.174  -9.135  0.00  0.00    +0.028 A 
ATOM     31  C   UNL     1      -3.906   3.118  -9.890  0.00  0.00    +0.078 A 
ATOM     32  N   UNL     1      -3.318   1.896  -9.897  0.00  0.00    -0.232 NA
ENDBRANCH  20  21
ENDBRANCH   1  20
BRANCH   1  33
ATOM     33  C   UNL     1      -1.046  -1.456  -9.762  0.00  0.00    +0.117 C 
BRANCH  33  34
ATOM     34  C   UNL     1      -0.181  -1.185 -10.994  0.00  0.00    +0.132 C 
ATOM     35  C   UNL     1       0.870  -2.309 -11.172  0.00  0.00    +0.035 C 
ATOM     36  C   UNL     1       1.148  -2.215 -12.697  0.00  0.00    +0.031 C 
ATOM     37  C   UNL     1      -0.233  -1.814 -13.257  0.00  0.00    +0.160 C 
ATOM     38  O   UNL     1      -0.983  -1.227 -12.185  0.00  0.00    -0.375 OA
ENDBRANCH  33  34
ENDBRANCH   1  33
TORSDOF 10
