REMARK  Name = ZINC20489786
REMARK  9 active torsions:
REMARK  status: ('A' for Active; 'I' for Inactive)
REMARK    1  A    between atoms: C_1  and  C_2
REMARK    2  A    between atoms: N_8  and  C_9
REMARK    3  A    between atoms: C_9  and  C_10
REMARK    4  A    between atoms: C_10  and  C_11
REMARK    5  A    between atoms: C_11  and  N_12
REMARK    6  A    between atoms: C_13  and  C_15
REMARK    7  A    between atoms: C_15  and  C_16
REMARK    8  A    between atoms: C_16  and  C_17
REMARK    9  A    between atoms: C_17  and  N_18
REMARK                            x       y       z     vdW  Elec       q    Type
REMARK                         _______ _______ _______ _____ _____    ______ ____
ROOT
ATOM      1  C   UNL     1       5.387   2.131  -1.482  0.00  0.00    +0.097 C 
ENDROOT
BRANCH   1   3
ATOM      2  N   UNL     1       6.954   1.227  -3.169  0.00  0.00    -0.315 N 
ATOM      3  C   UNL     1       5.808   1.887  -2.908  0.00  0.00    +0.213 C 
ATOM      4  O   UNL     1       5.116   2.284  -3.821  0.00  0.00    -0.276 OA
ATOM      5  H   UNL     1       7.582   0.866  -2.341  0.00  0.00    +0.149 HD
BRANCH   2   6
ATOM      6  C   UNL     1       7.363   0.990  -4.555  0.00  0.00    +0.102 C 
BRANCH   6   7
ATOM      7  C   UNL     1       8.689   0.226  -4.572  0.00  0.00    +0.000 C 
BRANCH   7   8
ATOM      8  C   UNL     1       9.117  -0.022  -6.020  0.00  0.00    -0.077 C 
BRANCH   8  15
ATOM      9  C   UNL     1      11.541   1.401  -5.897  0.00  0.00    -0.013 C 
ATOM     10  C   UNL     1      11.434  -0.012  -5.320  0.00  0.00    -0.072 C 
ATOM     11  C   UNL     1      12.775  -0.731  -5.481  0.00  0.00    -0.016 C 
ATOM     12  C   UNL     1      12.658  -2.151  -4.920  0.00  0.00    -0.003 C 
ATOM     13  C   UNL     1      11.531  -2.888  -5.650  0.00  0.00    -0.019 C 
ATOM     14  C   UNL     1      10.226  -2.106  -5.484  0.00  0.00    -0.078 C 
ATOM     15  N   UNL     1      10.389  -0.755  -6.036  0.00  0.00    +0.381 N 
ATOM     16  H   UNL     1      10.709  -0.857  -7.084  0.00  0.00    -0.081 HD
ENDBRANCH   8  15
ENDBRANCH   7   8
ENDBRANCH   6   7
ENDBRANCH   2   6
ENDBRANCH   1   3
BRANCH   1  17
ATOM     17  C   UNL     1       4.061   2.894  -1.465  0.00  0.00    +0.031 C 
BRANCH  17  18
ATOM     18  C   UNL     1       3.634   3.142  -0.017  0.00  0.00    +0.126 C 
BRANCH  18  19
ATOM     19  N   UNL     1       2.364   3.873  -0.001  0.00  0.00    -0.305 N 
ATOM     20  C   UNL     1       1.160   3.170   0.007  0.00  0.00    +0.069 A 
ATOM     21  C   UNL     1       1.175   1.780   0.000  0.00  0.00    +0.028 A 
ATOM     22  C   UNL     1      -0.013   1.076   0.008  0.00  0.00    +0.002 A 
ATOM     23  C   UNL     1      -1.222   1.749   0.017  0.00  0.00    +0.002 A 
ATOM     24  C   UNL     1      -1.248   3.130   0.031  0.00  0.00    +0.028 A 
ATOM     25  C   UNL     1      -0.059   3.846   0.023  0.00  0.00    +0.070 A 
ATOM     26  N   UNL     1      -0.089   5.245   0.031  0.00  0.00    -0.310 N 
ATOM     27  C   UNL     1      -1.113   6.134   0.046  0.00  0.00    +0.092 A 
ATOM     28  C   UNL     1      -0.606   7.391   0.047  0.00  0.00    +0.020 A 
ATOM     29  C   UNL     1       0.789   7.291   0.032  0.00  0.00    +0.033 A 
ATOM     30  C   UNL     1       1.098   5.948   0.022  0.00  0.00    +0.112 A 
ATOM     31  C   UNL     1       2.369   5.221   0.006  0.00  0.00    +0.276 A 
ATOM     32  O   UNL     1       3.423   5.830  -0.003  0.00  0.00    -0.265 OA
ENDBRANCH  18  19
ENDBRANCH  17  18
ENDBRANCH   1  17
TORSDOF 8
