REMARK  Name = ZINC41586271
REMARK  9 active torsions:
REMARK  status: ('A' for Active; 'I' for Inactive)
REMARK    1  A    between atoms: C_1  and  C_2
REMARK    2  A    between atoms: C_2  and  O_3
REMARK    3  A    between atoms: O_3  and  C_4
REMARK    4  A    between atoms: C_4  and  C_6
REMARK    5  A    between atoms: N_9  and  C_12
REMARK    6  A    between atoms: C_12  and  C_13
REMARK    7  A    between atoms: C_14  and  O_30
REMARK    8  A    between atoms: C_21  and  C_22
REMARK    9  A    between atoms: C_22  and  C_23
REMARK                            x       y       z     vdW  Elec       q    Type
REMARK                         _______ _______ _______ _____ _____    ______ ____
ROOT
ATOM      1  C   UNL     1      -5.976  -6.238   1.600  0.00  0.00    +0.023 A 
ATOM      2  C   UNL     1      -5.942  -7.042   0.474  0.00  0.00    +0.122 A 
ATOM      3  C   UNL     1      -5.782  -8.420   0.595  0.00  0.00    +0.046 A 
ATOM      4  C   UNL     1      -5.656  -8.997   1.826  0.00  0.00    +0.017 A 
ATOM      5  C   UNL     1      -5.688  -8.200   2.974  0.00  0.00    +0.045 A 
ATOM      6  C   UNL     1      -5.844  -6.808   2.858  0.00  0.00    +0.172 A 
ATOM      7  O   UNL     1      -5.833  -6.303   4.109  0.00  0.00    -0.354 OA
ATOM      8  N   UNL     1      -5.665  -7.355   5.037  0.00  0.00    -0.082 NA
ATOM      9  C   UNL     1      -5.585  -8.487   4.407  0.00  0.00    +0.096 A 
ENDROOT
BRANCH   2  10
ATOM     10  O   UNL     1      -6.066  -6.483  -0.757  0.00  0.00    -0.506 OA
ATOM     11  H   UNL     1      -5.225  -6.222  -1.158  0.00  0.00    +0.292 HD
ENDBRANCH   2  10
BRANCH   1  12
ATOM     12  C   UNL     1      -6.150  -4.747   1.460  0.00  0.00    -0.035 C 
BRANCH  12  16
ATOM     13  C   UNL     1      -2.881  -2.427   0.017  0.00  0.00    +0.094 C 
ATOM     14  C   UNL     1      -3.621  -1.980   1.281  0.00  0.00    -0.004 C 
ATOM     15  C   UNL     1      -4.996  -2.651   1.324  0.00  0.00    -0.078 C 
ATOM     16  N   UNL     1      -4.832  -4.110   1.340  0.00  0.00    +0.383 N 
ATOM     17  C   UNL     1      -4.188  -4.552   0.098  0.00  0.00    -0.078 C 
ATOM     18  C   UNL     1      -2.782  -3.955   0.007  0.00  0.00    -0.004 C 
ATOM     19  H   UNL     1      -4.260  -4.374   2.128  0.00  0.00    -0.081 HD
BRANCH  13  20
ATOM     20  C   UNL     1      -1.496  -1.832   0.006  0.00  0.00    +0.310 C 
ATOM     21  O   UNL     1      -0.528  -2.555  -0.007  0.00  0.00    -0.251 OA
BRANCH  20  22
ATOM     22  O   UNL     1      -1.339  -0.499   0.012  0.00  0.00    -0.465 OA
BRANCH  22  24
ATOM     23  C   UNL     1      -0.019   1.526   0.010  0.00  0.00    +0.048 C 
ATOM     24  C   UNL     1       0.002  -0.004   0.002  0.00  0.00    +0.229 C 
ENDBRANCH  22  24
ENDBRANCH  20  22
ENDBRANCH  13  20
ENDBRANCH  12  16
ENDBRANCH   1  12
BRANCH   9  25
ATOM     25  C   UNL     1      -5.402  -9.846   5.034  0.00  0.00    +0.094 C 
BRANCH  25  26
ATOM     26  C   UNL     1      -3.931 -10.141   5.172  0.00  0.00    -0.041 A 
ATOM     27  C   UNL     1      -3.253 -10.773   4.146  0.00  0.00    +0.005 A 
ATOM     28  C   UNL     1      -1.904 -11.044   4.273  0.00  0.00    +0.020 A 
ATOM     29  C   UNL     1      -1.231 -10.683   5.427  0.00  0.00    +0.041 A 
ATOM     30  C   UNL     1      -1.910 -10.050   6.454  0.00  0.00    +0.020 A 
ATOM     31  C   UNL     1      -3.258  -9.775   6.324  0.00  0.00    +0.005 A 
ATOM     32 CL   UNL     1       0.463 -11.023   5.588  0.00  0.00    -0.084 Cl
ENDBRANCH  25  26
ENDBRANCH   9  25
TORSDOF 8
