REMARK  Name = ZINC20744404
REMARK  8 active torsions:
REMARK  status: ('A' for Active; 'I' for Inactive)
REMARK    1  A    between atoms: C_4  and  C_7
REMARK    2  A    between atoms: C_7  and  C_8
REMARK    3  A    between atoms: N_11  and  C_14
REMARK    4  A    between atoms: C_14  and  C_16
REMARK    5  A    between atoms: C_14  and  C_34
REMARK    6  A    between atoms: C_24  and  O_26
REMARK    7  A    between atoms: O_26  and  C_27
REMARK    8  A    between atoms: C_27  and  C_28
REMARK                            x       y       z     vdW  Elec       q    Type
REMARK                         _______ _______ _______ _____ _____    ______ ____
ROOT
ATOM      1  C   UNL     1      -1.293  -0.775   0.010  0.00  0.00    +0.080 C 
ENDROOT
BRANCH   1   2
ATOM      2  C   UNL     1      -2.108  -0.475   1.242  0.00  0.00    -0.025 A 
ATOM      3  C   UNL     1      -2.096  -1.162   2.394  0.00  0.00    +0.086 A 
ATOM      4  N   UNL     1      -2.966  -0.594   3.286  0.00  0.00    -0.360 N 
ATOM      5  H   UNL     1      -3.087  -1.028   4.289  0.00  0.00    +0.165 HD
ATOM      6  C   UNL     1      -3.575   0.500   2.713  0.00  0.00    +0.050 A 
ATOM      7  C   UNL     1      -3.059   0.627   1.410  0.00  0.00    +0.002 A 
ATOM      8  C   UNL     1      -3.505   1.657   0.580  0.00  0.00    +0.014 A 
ATOM      9  C   UNL     1      -4.432   2.549   1.040  0.00  0.00    +0.046 A 
ATOM     10  C   UNL     1      -4.942   2.433   2.331  0.00  0.00    +0.123 A 
ATOM     11  C   UNL     1      -4.518   1.416   3.165  0.00  0.00    +0.071 A 
BRANCH  10  12
ATOM     12  O   UNL     1      -5.864   3.328   2.773  0.00  0.00    -0.487 OA
BRANCH  12  13
ATOM     13  C   UNL     1      -6.261   4.356   1.863  0.00  0.00    +0.264 C 
BRANCH  13  14
ATOM     14  C   UNL     1      -7.281   5.246   2.523  0.00  0.00    -0.010 A 
ATOM     15  C   UNL     1      -8.628   4.956   2.412  0.00  0.00    +0.007 A 
ATOM     16  C   UNL     1      -9.564   5.770   3.022  0.00  0.00    +0.000 A 
ATOM     17  C   UNL     1      -9.153   6.881   3.735  0.00  0.00    +0.000 A 
ATOM     18  C   UNL     1      -7.807   7.175   3.842  0.00  0.00    +0.000 A 
ATOM     19  C   UNL     1      -6.871   6.357   3.236  0.00  0.00    +0.007 A 
ENDBRANCH  13  14
ENDBRANCH  12  13
ENDBRANCH  10  12
ENDBRANCH   1   2
BRANCH   1  23
ATOM     20  C   UNL     1      -0.893  -4.877  -1.128  0.00  0.00    -0.010 C 
ATOM     21  C   UNL     1      -1.833  -4.502   0.022  0.00  0.00    -0.015 C 
ATOM     22  C   UNL     1      -2.196  -3.019  -0.087  0.00  0.00    -0.077 C 
ATOM     23  N   UNL     1      -0.973  -2.209  -0.028  0.00  0.00    +0.392 N 
ATOM     24  C   UNL     1      -0.076  -2.518  -1.149  0.00  0.00    -0.077 C 
ATOM     25  C   UNL     1       0.350  -3.986  -1.072  0.00  0.00    -0.015 C 
ATOM     26  H   UNL     1      -0.446  -2.464   0.903  0.00  0.00    -0.080 HD
BRANCH  20  27
ATOM     27  C   UNL     1      -0.479  -6.344  -0.991  0.00  0.00    +0.038 C 
BRANCH  27  31
ATOM     28  C   UNL     1       1.857  -7.486  -4.380  0.00  0.00    +0.000 A 
ATOM     29  C   UNL     1       2.475  -6.966  -3.258  0.00  0.00    +0.000 A 
ATOM     30  C   UNL     1       1.719  -6.597  -2.161  0.00  0.00    +0.003 A 
ATOM     31  C   UNL     1       0.345  -6.747  -2.187  0.00  0.00    -0.047 A 
ATOM     32  C   UNL     1      -0.272  -7.271  -3.307  0.00  0.00    +0.003 A 
ATOM     33  C   UNL     1       0.483  -7.637  -4.405  0.00  0.00    +0.000 A 
ENDBRANCH  27  31
ENDBRANCH  20  27
ENDBRANCH   1  23
BRANCH   1  34
ATOM     34  C   UNL     1      -0.015   0.024   0.046  0.00  0.00    +0.347 C 
ATOM     35  O   UNL     1       0.978  -0.448   0.548  0.00  0.00    -0.248 OA
ATOM     36  O   UNL     1       0.019   1.258  -0.479  0.00  0.00    -0.248 OA
ENDBRANCH   1  34
TORSDOF 8
