REMARK  Name = ZINC36554328
REMARK  10 active torsions:
REMARK  status: ('A' for Active; 'I' for Inactive)
REMARK    1  A    between atoms: C_1  and  C_2
REMARK    2  A    between atoms: C_3  and  C_4
REMARK    3  A    between atoms: C_4  and  C_6
REMARK    4  A    between atoms: C_4  and  N_20
REMARK    5  A    between atoms: N_8  and  C_9
REMARK    6  A    between atoms: C_9  and  S_10
REMARK    7  A    between atoms: S_10  and  C_13
REMARK    8  A    between atoms: C_16  and  C_19
REMARK    9  A    between atoms: N_20  and  C_21
REMARK   10  A    between atoms: C_28  and  C_30
REMARK                            x       y       z     vdW  Elec       q    Type
REMARK                         _______ _______ _______ _____ _____    ______ ____
ROOT
ATOM      1  C   UNL     1      -2.730   0.284   0.205  0.00  0.00    +0.190 C 
ENDROOT
BRANCH   1   2
ATOM      2  C   UNL     1      -3.779   0.192   1.284  0.00  0.00    +0.239 C 
ATOM      3  O   UNL     1      -4.274   1.203   1.736  0.00  0.00    -0.273 OA
ATOM      4  N   UNL     1      -4.166  -1.013   1.746  0.00  0.00    -0.294 N 
ATOM      5  H   UNL     1      -3.770  -1.821   1.385  0.00  0.00    +0.150 HD
BRANCH   4   6
ATOM      6  C   UNL     1      -5.186  -1.102   2.795  0.00  0.00    +0.278 C 
BRANCH   6   7
ATOM      7  S   UNL     1      -6.814  -1.353   2.035  0.00  0.00    +0.013 S 
ATOM      8  O   UNL     1      -7.806  -1.504   3.042  0.00  0.00    -0.168 OA
ATOM      9  O   UNL     1      -7.002  -0.435   0.966  0.00  0.00    -0.168 OA
BRANCH   7  10
ATOM     10  C   UNL     1      -6.714  -2.932   1.261  0.00  0.00    +0.090 A 
ATOM     11  C   UNL     1      -6.280  -3.034  -0.048  0.00  0.00    +0.027 A 
ATOM     12  C   UNL     1      -6.202  -4.273  -0.655  0.00  0.00    +0.005 A 
ATOM     13  C   UNL     1      -6.558  -5.410   0.045  0.00  0.00    -0.050 A 
ATOM     14  C   UNL     1      -6.991  -5.308   1.354  0.00  0.00    +0.005 A 
ATOM     15  C   UNL     1      -7.065  -4.070   1.963  0.00  0.00    +0.027 A 
ATOM     16  C   UNL     1      -6.473  -6.761  -0.618  0.00  0.00    +0.044 C 
ENDBRANCH   7  10
ENDBRANCH   6   7
ENDBRANCH   4   6
ENDBRANCH   1   2
BRANCH   1  19
ATOM     17  C   UNL     1      -1.432  -1.671  -1.359  0.00  0.00    +0.035 C 
ATOM     18  C   UNL     1      -0.882  -1.297  -0.006  0.00  0.00    -0.032 C 
ATOM     19  C   UNL     1      -1.452  -0.347   0.693  0.00  0.00    +0.000 C 
ENDBRANCH   1  19
BRANCH   1  20
ATOM     20  N   UNL     1      -2.487   1.691  -0.120  0.00  0.00    -0.252 N 
ATOM     21  C   UNL     1      -2.673   2.133  -1.380  0.00  0.00    +0.252 C 
ATOM     22  O   UNL     1      -3.082   1.373  -2.236  0.00  0.00    -0.270 OA
BRANCH  20  23
ATOM     23  C   UNL     1      -2.061   2.576   0.875  0.00  0.00    +0.039 A 
ATOM     24  C   UNL     1      -2.858   3.655   1.236  0.00  0.00    +0.023 A 
ATOM     25  C   UNL     1      -2.436   4.527   2.220  0.00  0.00    +0.003 A 
ATOM     26  C   UNL     1      -1.219   4.327   2.846  0.00  0.00    +0.020 A 
ATOM     27  C   UNL     1      -0.422   3.254   2.490  0.00  0.00    +0.043 A 
ATOM     28  C   UNL     1      -0.842   2.375   1.510  0.00  0.00    +0.043 A 
ATOM     29 CL   UNL     1       1.105   3.009   3.279  0.00  0.00    -0.083 Cl
ENDBRANCH  20  23
BRANCH  21  30
ATOM     30  C   UNL     1      -2.381   3.540  -1.720  0.00  0.00    +0.037 A 
ATOM     31  C   UNL     1      -1.467   4.270  -0.956  0.00  0.00    +0.016 A 
ATOM     32  C   UNL     1      -1.198   5.583  -1.277  0.00  0.00    +0.039 A 
ATOM     33  C   UNL     1      -1.832   6.180  -2.356  0.00  0.00    +0.123 A 
ATOM     34  C   UNL     1      -2.741   5.460  -3.117  0.00  0.00    +0.039 A 
ATOM     35  C   UNL     1      -3.012   4.144  -2.809  0.00  0.00    +0.016 A 
ATOM     36  F   UNL     1      -1.565   7.467  -2.667  0.00  0.00    -0.205 F 
ENDBRANCH  21  30
ENDBRANCH   1  20
TORSDOF 8
