REMARK  Name = ZINC66930882
REMARK  5 active torsions:
REMARK  status: ('A' for Active; 'I' for Inactive)
REMARK    1  A    between atoms: C_10  and  C_11
REMARK    2  A    between atoms: C_10  and  O_26
REMARK    3  A    between atoms: C_11  and  N_12
REMARK    4  A    between atoms: C_13  and  C_15
REMARK    5  A    between atoms: C_15  and  N_16
REMARK                            x       y       z     vdW  Elec       q    Type
REMARK                         _______ _______ _______ _____ _____    ______ ____
ROOT
ATOM      1  N   UNL     1       4.837   1.444   0.478  0.00  0.00    -0.311 N 
ATOM      2  C   UNL     1       5.710   2.251   1.112  0.00  0.00    +0.233 C 
ATOM      3  O   UNL     1       6.373   1.823   2.033  0.00  0.00    -0.274 OA
ATOM      4  H   UNL     1       4.306   1.786  -0.259  0.00  0.00    +0.149 HD
ENDROOT
BRANCH   1   5
ATOM      5  C   UNL     1       4.689   0.049   0.901  0.00  0.00    +0.143 C 
BRANCH   5  15
ATOM      6  C   UNL     1       3.502  -4.769   1.163  0.00  0.00    +0.000 A 
ATOM      7  C   UNL     1       3.495  -3.749   2.096  0.00  0.00    +0.000 A 
ATOM      8  C   UNL     1       3.578  -2.438   1.677  0.00  0.00    +0.007 A 
ATOM      9  C   UNL     1       3.670  -2.133   0.325  0.00  0.00    -0.011 A 
ATOM     10  C   UNL     1       3.682  -3.149  -0.604  0.00  0.00    -0.041 A 
ATOM     11  C   UNL     1       3.595  -4.469  -0.180  0.00  0.00    +0.004 A 
ATOM     12  C   UNL     1       3.796  -2.893  -2.084  0.00  0.00    +0.035 C 
ATOM     13  C   UNL     1       3.451  -1.440  -2.406  0.00  0.00    +0.008 C 
ATOM     14  C   UNL     1       4.277  -0.532  -1.488  0.00  0.00    +0.041 C 
ATOM     15  C   UNL     1       3.750  -0.679  -0.063  0.00  0.00    +0.107 C 
BRANCH  15  16
ATOM     16  O   UNL     1       2.447  -0.097   0.020  0.00  0.00    -0.382 OA
ATOM     17  H   UNL     1       2.054  -0.138   0.902  0.00  0.00    +0.211 HD
ENDBRANCH  15  16
ENDBRANCH   5  15
ENDBRANCH   1   5
BRANCH   2  18
ATOM     18  C   UNL     1       5.862   3.686   0.677  0.00  0.00    +0.224 C 
BRANCH  18  19
ATOM     19  N   UNL     1       6.864   4.347   1.516  0.00  0.00    -0.265 N 
ATOM     20  C   UNL     1       6.623   5.019   2.714  0.00  0.00    +0.091 A 
ATOM     21  C   UNL     1       5.475   5.270   3.450  0.00  0.00    +0.030 A 
ATOM     22  C   UNL     1       5.558   5.985   4.630  0.00  0.00    +0.002 A 
ATOM     23  C   UNL     1       6.782   6.450   5.077  0.00  0.00    +0.004 A 
ATOM     24  C   UNL     1       7.930   6.203   4.349  0.00  0.00    +0.048 A 
ATOM     25  C   UNL     1       7.857   5.487   3.165  0.00  0.00    +0.157 A 
ATOM     26  O   UNL     1       8.789   5.101   2.259  0.00  0.00    -0.407 OA
ATOM     27  C   UNL     1       8.189   4.412   1.275  0.00  0.00    +0.422 A 
ATOM     28  O   UNL     1       8.752   3.926   0.314  0.00  0.00    -0.223 OA
ENDBRANCH  18  19
ENDBRANCH   2  18
TORSDOF 5
