REMARK  Name = ZINC32865671
REMARK  6 active torsions:
REMARK  status: ('A' for Active; 'I' for Inactive)
REMARK    1  A    between atoms: C_1  and  C_2
REMARK    2  A    between atoms: C_5  and  C_9
REMARK    3  A    between atoms: C_6  and  C_8
REMARK    4  A    between atoms: C_9  and  C_10
REMARK    5  A    between atoms: C_10  and  C_11
REMARK    6  A    between atoms: N_13  and  C_14
REMARK                            x       y       z     vdW  Elec       q    Type
REMARK                         _______ _______ _______ _____ _____    ______ ____
ROOT
ATOM      1  C   UNL     1      -3.035   3.222  -1.402  0.00  0.00    +0.218 C 
ATOM      2  O   UNL     1      -3.606   3.429  -0.353  0.00  0.00    -0.275 OA
ATOM      3  N   UNL     1      -3.582   3.640  -2.561  0.00  0.00    -0.284 N 
ATOM      4  H   UNL     1      -3.030   3.518  -3.505  0.00  0.00    +0.155 HD
ENDROOT
BRANCH   3   5
ATOM      5  C   UNL     1      -4.853   4.231  -2.563  0.00  0.00    +0.056 A 
ATOM      6  C   UNL     1      -5.251   5.025  -1.497  0.00  0.00    +0.074 A 
ATOM      7  C   UNL     1      -6.508   5.609  -1.499  0.00  0.00    +0.164 A 
ATOM      8  C   UNL     1      -7.368   5.400  -2.572  0.00  0.00    +0.164 A 
ATOM      9  C   UNL     1      -6.967   4.605  -3.635  0.00  0.00    +0.071 A 
ATOM     10  C   UNL     1      -5.712   4.026  -3.635  0.00  0.00    +0.066 A 
ATOM     11 CL   UNL     1      -5.212   3.039  -4.972  0.00  0.00    -0.082 Cl
ATOM     12  O   UNL     1      -8.605   5.970  -2.594  0.00  0.00    -0.485 OA
ATOM     13  C   UNL     1      -9.114   6.451  -1.345  0.00  0.00    +0.270 C 
ATOM     14  C   UNL     1      -8.004   7.252  -0.651  0.00  0.00    +0.270 C 
ATOM     15  O   UNL     1      -6.886   6.382  -0.444  0.00  0.00    -0.485 OA
ENDBRANCH   3   5
BRANCH   1  16
ATOM     16  C   UNL     1      -1.714   2.496  -1.411  0.00  0.00    +0.101 C 
BRANCH  16  17
ATOM     17  C   UNL     1      -1.322   2.134   0.023  0.00  0.00    +0.044 C 
BRANCH  17  22
ATOM     18  C   UNL     1       3.743  -0.648  -0.030  0.00  0.00    +0.044 C 
ATOM     19  C   UNL     1       2.422   0.078  -0.014  0.00  0.00    -0.050 A 
ATOM     20  C   UNL     1       1.240  -0.639  -0.006  0.00  0.00    +0.003 A 
ATOM     21  C   UNL     1       0.029   0.027   0.008  0.00  0.00    +0.004 A 
ATOM     22  C   UNL     1      -0.001   1.409   0.014  0.00  0.00    -0.044 A 
ATOM     23  C   UNL     1       1.181   2.125   0.007  0.00  0.00    -0.047 A 
ATOM     24  C   UNL     1       2.393   1.460  -0.008  0.00  0.00    +0.007 A 
ATOM     25  C   UNL     1       1.149   3.632   0.013  0.00  0.00    +0.044 C 
ENDBRANCH  17  22
ENDBRANCH  16  17
ENDBRANCH   1  16
TORSDOF 4
