REMARK  Name = ZINC03500152
REMARK  8 active torsions:
REMARK  status: ('A' for Active; 'I' for Inactive)
REMARK    1  A    between atoms: C_1  and  C_2
REMARK    2  A    between atoms: C_5  and  C_8
REMARK    3  A    between atoms: C_11  and  S_14
REMARK    4  A    between atoms: N_12  and  N_13
REMARK    5  A    between atoms: S_14  and  C_15
REMARK    6  A    between atoms: C_15  and  C_16
REMARK    7  A    between atoms: N_18  and  C_19
REMARK    8  A    between atoms: C_24  and  C_25
REMARK                            x       y       z     vdW  Elec       q    Type
REMARK                         _______ _______ _______ _____ _____    ______ ____
ROOT
ATOM      1  S   UNL     1      -0.064   1.963  -0.279  0.00  0.00    -0.075 S 
ENDROOT
BRANCH   1   5
ATOM      2  C   UNL     1       3.659   3.129  -0.067  0.00  0.00    +0.182 A 
ATOM      3  N   UNL     1       3.756   1.828   0.072  0.00  0.00    -0.127 NA
ATOM      4  N   UNL     1       2.589   1.293   0.028  0.00  0.00    -0.121 NA
ATOM      5  C   UNL     1       1.674   2.220  -0.151  0.00  0.00    +0.209 A 
ATOM      6  N   UNL     1       2.322   3.421  -0.215  0.00  0.00    -0.224 N 
BRANCH   2  11
ATOM      7  C   UNL     1       8.002   6.905  -0.059  0.00  0.00    +0.044 C 
ATOM      8  C   UNL     1       6.864   5.916  -0.061  0.00  0.00    -0.050 A 
ATOM      9  C   UNL     1       5.568   6.357   0.136  0.00  0.00    +0.004 A 
ATOM     10  C   UNL     1       4.522   5.457   0.135  0.00  0.00    +0.012 A 
ATOM     11  C   UNL     1       4.775   4.099  -0.065  0.00  0.00    +0.021 A 
ATOM     12  C   UNL     1       6.085   3.660  -0.258  0.00  0.00    +0.012 A 
ATOM     13  C   UNL     1       7.121   4.571  -0.260  0.00  0.00    +0.004 A 
ENDBRANCH   2  11
BRANCH   6  14
ATOM     14  N   UNL     1       1.761   4.654  -0.388  0.00  0.00    -0.295 N 
ATOM     15  H   UNL     1       1.613   5.112   0.498  0.00  0.00    +0.163 HD
ATOM     16  H   UNL     1       2.323   5.224  -1.001  0.00  0.00    +0.163 HD
ENDBRANCH   6  14
ENDBRANCH   1   5
BRANCH   1  17
ATOM     17  C   UNL     1      -0.129   0.162  -0.104  0.00  0.00    +0.173 C 
BRANCH  17  18
ATOM     18  C   UNL     1      -1.562  -0.299  -0.185  0.00  0.00    +0.227 C 
ATOM     19  O   UNL     1      -2.451   0.510  -0.344  0.00  0.00    -0.275 OA
ATOM     20  N   UNL     1      -1.854  -1.610  -0.079  0.00  0.00    -0.284 N 
ATOM     21  H   UNL     1      -1.139  -2.264  -0.024  0.00  0.00    +0.155 HD
BRANCH  20  22
ATOM     22  C   UNL     1      -3.189  -2.029  -0.050  0.00  0.00    +0.045 A 
ATOM     23  C   UNL     1      -4.150  -1.344  -0.783  0.00  0.00    +0.025 A 
ATOM     24  C   UNL     1      -5.466  -1.759  -0.752  0.00  0.00    +0.022 A 
ATOM     25  C   UNL     1      -5.829  -2.858   0.007  0.00  0.00    +0.042 A 
ATOM     26  C   UNL     1      -4.874  -3.542   0.739  0.00  0.00    +0.034 A 
ATOM     27  C   UNL     1      -3.555  -3.134   0.707  0.00  0.00    +0.077 A 
ATOM     28 CL   UNL     1      -7.485  -3.378   0.043  0.00  0.00    -0.084 Cl
BRANCH  27  29
ATOM     29  C   UNL     1      -2.515  -3.883   1.499  0.00  0.00    +0.419 C 
ATOM     30  F   UNL     1      -3.120  -4.948   2.175  0.00  0.00    -0.166 F 
ATOM     31  F   UNL     1      -1.535  -4.378   0.632  0.00  0.00    -0.166 F 
ATOM     32  F   UNL     1      -1.923  -3.019   2.427  0.00  0.00    -0.166 F 
ENDBRANCH  27  29
ENDBRANCH  20  22
ENDBRANCH  17  18
ENDBRANCH   1  17
TORSDOF 7
