REMARK  Name = ZINC39508557
REMARK  8 active torsions:
REMARK  status: ('A' for Active; 'I' for Inactive)
REMARK    1  A    between atoms: C_1  and  C_2
REMARK    2  A    between atoms: C_2  and  C_3
REMARK    3  A    between atoms: C_2  and  C_4
REMARK    4  A    between atoms: C_4  and  C_5
REMARK    5  A    between atoms: C_7  and  C_11
REMARK    6  A    between atoms: C_11  and  N_12
REMARK    7  A    between atoms: C_16  and  C_19
REMARK    8  A    between atoms: C_19  and  C_21
REMARK                            x       y       z     vdW  Elec       q    Type
REMARK                         _______ _______ _______ _____ _____    ______ ____
ROOT
ATOM      1  N   UNL     1      -4.990   0.212  -4.606  0.00  0.00    +0.382 N 
ATOM      2  C   UNL     1      -5.255   1.455  -3.873  0.00  0.00    -0.079 C 
ATOM      3  C   UNL     1      -5.888   2.482  -4.814  0.00  0.00    -0.018 C 
ATOM      4  C   UNL     1      -7.204   1.921  -5.362  0.00  0.00    +0.008 C 
ATOM      5  C   UNL     1      -6.926   0.586  -6.060  0.00  0.00    +0.044 C 
ATOM      6  C   UNL     1      -6.254  -0.370  -5.073  0.00  0.00    -0.067 C 
ATOM      7  H   UNL     1      -4.399   0.411  -5.400  0.00  0.00    -0.082 HD
ENDROOT
BRANCH   5   8
ATOM      8  C   UNL     1      -8.225  -0.012  -6.537  0.00  0.00    +0.167 C 
ATOM      9  O   UNL     1      -8.853  -0.754  -5.812  0.00  0.00    -0.292 OA
BRANCH   8  10
ATOM     10  C   UNL     1      -8.731   0.305  -7.880  0.00  0.00    +0.055 A 
ATOM     11  C   UNL     1      -8.007   1.157  -8.722  0.00  0.00    +0.052 A 
ATOM     12  C   UNL     1      -8.488   1.448  -9.982  0.00  0.00    +0.124 A 
ATOM     13  C   UNL     1      -9.686   0.900 -10.415  0.00  0.00    +0.041 A 
ATOM     14  C   UNL     1     -10.408   0.058  -9.590  0.00  0.00    +0.042 A 
ATOM     15  C   UNL     1      -9.938  -0.249  -8.327  0.00  0.00    +0.134 A 
ATOM     16  F   UNL     1     -10.641  -1.077  -7.524  0.00  0.00    -0.205 F 
ATOM     17  F   UNL     1      -7.790   2.271 -10.796  0.00  0.00    -0.205 F 
ENDBRANCH   8  10
ENDBRANCH   5   8
BRANCH   1  18
ATOM     18  C   UNL     1      -4.311  -0.743  -3.720  0.00  0.00    -0.046 C 
BRANCH  18  21
ATOM     19  C   UNL     1      -1.902  -2.992  -4.271  0.00  0.00    +0.062 C 
ATOM     20  C   UNL     1      -3.087  -2.931  -3.660  0.00  0.00    +0.024 C 
ATOM     21  C   UNL     1      -3.894  -1.977  -4.523  0.00  0.00    +0.136 C 
ATOM     22  N   UNL     1      -2.946  -1.613  -5.590  0.00  0.00    -0.182 NA
ATOM     23  N   UNL     1      -1.887  -2.206  -5.370  0.00  0.00    -0.159 NA
BRANCH  19  24
ATOM     24  C   UNL     1      -0.736  -3.820  -3.796  0.00  0.00    +0.060 C 
BRANCH  24  26
ATOM     25  C   UNL     1      -0.484  -4.932  -6.019  0.00  0.00    +0.007 C 
ATOM     26  C   UNL     1      -0.733  -5.164  -4.528  0.00  0.00    -0.011 C 
ATOM     27  C   UNL     1       0.374  -6.053  -3.958  0.00  0.00    +0.007 C 
ENDBRANCH  24  26
ENDBRANCH  19  24
ENDBRANCH  18  21
ENDBRANCH   1  18
TORSDOF 6
