REMARK  Name = ZINC09289339
REMARK  7 active torsions:
REMARK  status: ('A' for Active; 'I' for Inactive)
REMARK    1  A    between atoms: C_1  and  O_2
REMARK    2  A    between atoms: O_2  and  C_3
REMARK    3  A    between atoms: C_5  and  C_11
REMARK    4  A    between atoms: C_8  and  O_9
REMARK    5  A    between atoms: N_12  and  N_13
REMARK    6  A    between atoms: C_14  and  C_16
REMARK    7  A    between atoms: C_16  and  C_17
REMARK                            x       y       z     vdW  Elec       q    Type
REMARK                         _______ _______ _______ _____ _____    ______ ____
ROOT
ATOM      1  C   UNL     1      -0.530   1.435  -4.763  0.00  0.00    +0.138 C 
ATOM      2  N   UNL     1      -0.966   1.736  -3.578  0.00  0.00    -0.188 NA
ENDROOT
BRANCH   1   5
ATOM      3  C   UNL     1      -1.446   2.061  -8.350  0.00  0.00    +0.163 A 
ATOM      4  C   UNL     1      -0.771   1.605  -7.233  0.00  0.00    +0.059 A 
ATOM      5  C   UNL     1      -1.243   1.924  -5.957  0.00  0.00    -0.001 A 
ATOM      6  C   UNL     1      -2.388   2.711  -5.816  0.00  0.00    +0.027 A 
ATOM      7  C   UNL     1      -3.054   3.167  -6.935  0.00  0.00    +0.059 A 
ATOM      8  C   UNL     1      -2.588   2.846  -8.202  0.00  0.00    +0.172 A 
ATOM      9  I   UNL     1      -4.771   4.347  -6.721  0.00  0.00    -0.040 I 
BRANCH   3  11
ATOM     10  C   UNL     1       0.183   0.940  -9.671  0.00  0.00    +0.277 C 
ATOM     11  O   UNL     1      -0.993   1.748  -9.593  0.00  0.00    -0.491 OA
ENDBRANCH   3  11
BRANCH   8  12
ATOM     12  O   UNL     1      -3.248   3.297  -9.301  0.00  0.00    -0.503 OA
ATOM     13  H   UNL     1      -2.939   4.156  -9.620  0.00  0.00    +0.292 HD
ENDBRANCH   8  12
ENDBRANCH   1   5
BRANCH   2  14
ATOM     14  N   UNL     1      -0.288   1.272  -2.443  0.00  0.00    -0.207 N 
ATOM     15  C   UNL     1      -0.742   1.585  -1.213  0.00  0.00    +0.237 C 
ATOM     16  O   UNL     1      -1.736   2.268  -1.088  0.00  0.00    -0.274 OA
ATOM     17  H   UNL     1       0.507   0.726  -2.543  0.00  0.00    +0.177 HD
BRANCH  15  18
ATOM     18  C   UNL     1      -0.013   1.086   0.008  0.00  0.00    +0.132 C 
BRANCH  18  19
ATOM     19  C   UNL     1      -0.718   1.572   1.248  0.00  0.00    -0.039 A 
ATOM     20  C   UNL     1      -0.360   2.779   1.819  0.00  0.00    +0.005 A 
ATOM     21  C   UNL     1      -1.010   3.227   2.953  0.00  0.00    +0.015 A 
ATOM     22  C   UNL     1      -2.012   2.463   3.523  0.00  0.00    +0.018 A 
ATOM     23  C   UNL     1      -2.366   1.253   2.955  0.00  0.00    +0.015 A 
ATOM     24  C   UNL     1      -1.719   0.808   1.818  0.00  0.00    +0.005 A 
ATOM     25 BR   UNL     1      -2.897   3.073   5.079  0.00  0.00    -0.050 Br
ENDBRANCH  18  19
ENDBRANCH  15  18
ENDBRANCH   2  14
TORSDOF 6
