REMARK  Name = ZINC39698841
REMARK  8 active torsions:
REMARK  status: ('A' for Active; 'I' for Inactive)
REMARK    1  A    between atoms: C_4  and  N_7
REMARK    2  A    between atoms: C_8  and  S_24
REMARK    3  A    between atoms: C_12  and  C_13
REMARK    4  A    between atoms: C_13  and  O_14
REMARK    5  A    between atoms: O_14  and  C_15
REMARK    6  A    between atoms: C_18  and  N_21
REMARK    7  A    between atoms: S_24  and  C_25
REMARK    8  A    between atoms: C_25  and  C_26
REMARK                            x       y       z     vdW  Elec       q    Type
REMARK                         _______ _______ _______ _____ _____    ______ ____
ROOT
ATOM      1  N   UNL     1       3.619  -0.650  -0.046  0.00  0.00    -0.255 N 
ATOM      2  C   UNL     1       3.817  -2.106   0.045  0.00  0.00    +0.241 C 
ATOM      3  N   UNL     1       5.281  -2.265  -0.006  0.00  0.00    -0.237 N 
ATOM      4  N   UNL     1       5.808  -0.973  -0.117  0.00  0.00    -0.170 NA
ATOM      5  C   UNL     1       4.883  -0.086  -0.143  0.00  0.00    +0.160 C 
ATOM      6  H   UNL     1       5.779  -3.097   0.029  0.00  0.00    +0.171 HD
ENDROOT
BRANCH   1  10
ATOM      7  C   UNL     1      -0.019   1.376  -0.033  0.00  0.00    +0.000 A 
ATOM      8  C   UNL     1       1.167   2.087  -0.006  0.00  0.00    +0.002 A 
ATOM      9  C   UNL     1       2.375   1.419  -0.010  0.00  0.00    +0.023 A 
ATOM     10  C   UNL     1       2.399   0.030  -0.041  0.00  0.00    +0.038 A 
ATOM     11  C   UNL     1       1.206  -0.682  -0.068  0.00  0.00    +0.023 A 
ATOM     12  C   UNL     1       0.001  -0.007  -0.064  0.00  0.00    +0.002 A 
ENDBRANCH   1  10
BRANCH   5  13
ATOM     13  C   UNL     1       5.137   1.395  -0.262  0.00  0.00    +0.302 C 
BRANCH  13  14
ATOM     14  O   UNL     1       6.533   1.623  -0.470  0.00  0.00    -0.484 OA
BRANCH  14  15
ATOM     15  C   UNL     1       6.934   2.915  -0.599  0.00  0.00    +0.121 A 
ATOM     16  C   UNL     1       6.005   3.942  -0.522  0.00  0.00    +0.048 A 
ATOM     17  C   UNL     1       6.416   5.255  -0.653  0.00  0.00    +0.036 A 
ATOM     18  C   UNL     1       7.752   5.545  -0.861  0.00  0.00    +0.126 A 
ATOM     19  C   UNL     1       8.679   4.522  -0.939  0.00  0.00    +0.036 A 
ATOM     20  C   UNL     1       8.274   3.209  -0.803  0.00  0.00    +0.048 A 
BRANCH  18  21
ATOM     21  N   UNL     1       8.189   6.952  -1.001  0.00  0.00    +0.056 N 
ATOM     22  O   UNL     1       7.379   7.846  -0.933  0.00  0.00    -0.126 OA
ATOM     23  O   UNL     1       9.357   7.206  -1.183  0.00  0.00    -0.126 OA
ENDBRANCH  18  21
ENDBRANCH  14  15
ENDBRANCH  13  14
ENDBRANCH   5  13
BRANCH   2  24
ATOM     24  S   UNL     1       3.158  -2.743   1.611  0.00  0.00    -0.113 S 
BRANCH  24  25
ATOM     25  C   UNL     1       4.106  -1.857   2.878  0.00  0.00    +0.104 C 
BRANCH  25  26
ATOM     26  C   UNL     1       3.652  -2.299   4.246  0.00  0.00    -0.042 C 
ATOM     27  C   UNL     1       4.304  -3.283   4.927  0.00  0.00    -0.003 A 
ATOM     28  C   UNL     1       5.474  -3.946   4.351  0.00  0.00    +0.010 A 
ATOM     29  C   UNL     1       6.093  -4.920   5.066  0.00  0.00    +0.001 A 
ATOM     30  C   UNL     1       5.636  -5.296   6.329  0.00  0.00    +0.002 A 
ATOM     31  C   UNL     1       4.556  -4.720   6.919  0.00  0.00    +0.024 A 
ATOM     32  C   UNL     1       3.843  -3.700   6.263  0.00  0.00    +0.041 A 
ATOM     33  N   UNL     1       2.786  -3.141   6.851  0.00  0.00    -0.285 N 
ATOM     34  C   UNL     1       2.072  -2.179   6.291  0.00  0.00    +0.221 C 
ATOM     35  O   UNL     1       1.116  -1.708   6.877  0.00  0.00    -0.275 OA
ATOM     36  C   UNL     1       2.453  -1.662   4.922  0.00  0.00    +0.128 C 
ATOM     37  H   UNL     1       2.527  -3.456   7.732  0.00  0.00    +0.155 HD
ENDBRANCH  25  26
ENDBRANCH  24  25
ENDBRANCH   2  24
TORSDOF 8
