REMARK  Name = ZINC09716300
REMARK  6 active torsions:
REMARK  status: ('A' for Active; 'I' for Inactive)
REMARK    1  A    between atoms: C_8  and  C_13
REMARK    2  A    between atoms: N_14  and  N_15
REMARK    3  A    between atoms: C_16  and  C_18
REMARK    4  A    between atoms: C_21  and  N_24
REMARK    5  A    between atoms: N_24  and  S_25
REMARK    6  A    between atoms: S_25  and  C_28
REMARK                            x       y       z     vdW  Elec       q    Type
REMARK                         _______ _______ _______ _____ _____    ______ ____
ROOT
ATOM      1  N   UNL     1       5.801  -0.408  -5.169  0.00  0.00    -0.203 N 
ATOM      2  C   UNL     1       5.172  -1.598  -5.242  0.00  0.00    +0.263 C 
ATOM      3  O   UNL     1       5.481  -2.397  -6.105  0.00  0.00    -0.268 OA
ATOM      4  H   UNL     1       5.521   0.315  -4.388  0.00  0.00    +0.178 HD
ENDROOT
BRANCH   2   5
ATOM      5  C   UNL     1       4.109  -1.931  -4.275  0.00  0.00    +0.038 A 
ATOM      6  C   UNL     1       3.456  -3.165  -4.349  0.00  0.00    +0.015 A 
ATOM      7  C   UNL     1       2.465  -3.472  -3.445  0.00  0.00    +0.025 A 
ATOM      8  C   UNL     1       2.113  -2.556  -2.457  0.00  0.00    +0.048 A 
ATOM      9  C   UNL     1       2.758  -1.325  -2.384  0.00  0.00    +0.025 A 
ATOM     10  C   UNL     1       3.753  -1.013  -3.281  0.00  0.00    +0.015 A 
BRANCH   8  11
ATOM     11  N   UNL     1       1.111  -2.870  -1.545  0.00  0.00    -0.216 N 
ATOM     12  H   UNL     1       0.121  -2.397  -1.631  0.00  0.00    +0.174 HD
BRANCH  11  13
ATOM     13  S   UNL     1       1.408  -3.954  -0.329  0.00  0.00    +0.072 S 
ATOM     14  O   UNL     1       1.972  -5.106  -0.941  0.00  0.00    -0.150 OA
ATOM     15  O   UNL     1       0.228  -4.012   0.461  0.00  0.00    -0.150 OA
BRANCH  13  16
ATOM     16  C   UNL     1       2.665  -3.261   0.693  0.00  0.00    +0.109 A 
ATOM     17  C   UNL     1       2.326  -2.375   1.699  0.00  0.00    +0.030 A 
ATOM     18  C   UNL     1       3.312  -1.831   2.501  0.00  0.00    +0.022 A 
ATOM     19  C   UNL     1       4.637  -2.172   2.296  0.00  0.00    +0.041 A 
ATOM     20  C   UNL     1       4.975  -3.058   1.288  0.00  0.00    +0.022 A 
ATOM     21  C   UNL     1       3.989  -3.602   0.487  0.00  0.00    +0.030 A 
ATOM     22 CL   UNL     1       5.875  -1.489   3.303  0.00  0.00    -0.084 Cl
ENDBRANCH  13  16
ENDBRANCH  11  13
ENDBRANCH   8  11
ENDBRANCH   2   5
BRANCH   1  24
ATOM     23  C   UNL     1       7.417   1.055  -6.018  0.00  0.00    +0.143 C 
ATOM     24  N   UNL     1       6.810  -0.092  -6.088  0.00  0.00    -0.187 NA
BRANCH  23  32
ATOM     25  C   UNL     1      11.797   4.396  -8.724  0.00  0.00    +0.001 A 
ATOM     26  C   UNL     1      12.131   3.466  -9.700  0.00  0.00    +0.002 A 
ATOM     27  C   UNL     1      11.481   2.252  -9.765  0.00  0.00    +0.026 A 
ATOM     28  C   UNL     1      10.480   1.951  -8.846  0.00  0.00    +0.049 A 
ATOM     29  C   UNL     1      10.143   2.895  -7.858  0.00  0.00    -0.001 A 
ATOM     30  C   UNL     1      10.819   4.123  -7.812  0.00  0.00    +0.010 A 
ATOM     31  C   UNL     1       9.126   2.603  -6.915  0.00  0.00    +0.024 A 
ATOM     32  C   UNL     1       8.477   1.387  -6.982  0.00  0.00    +0.059 A 
ATOM     33  C   UNL     1       8.860   0.425  -8.024  0.00  0.00    +0.258 A 
ATOM     34  O   UNL     1       8.299  -0.653  -8.092  0.00  0.00    -0.267 OA
ATOM     35  N   UNL     1       9.827   0.737  -8.908  0.00  0.00    -0.322 N 
ATOM     36  H   UNL     1      10.094   0.008  -9.687  0.00  0.00    +0.169 HD
ENDBRANCH  23  32
ENDBRANCH   1  24
TORSDOF 6
