REMARK  Name = ZINC45630963
REMARK  8 active torsions:
REMARK  status: ('A' for Active; 'I' for Inactive)
REMARK    1  A    between atoms: C_1  and  C_2
REMARK    2  A    between atoms: C_2  and  C_3
REMARK    3  A    between atoms: C_2  and  C_4
REMARK    4  A    between atoms: C_2  and  C_5
REMARK    5  A    between atoms: C_8  and  N_11
REMARK    6  A    between atoms: C_12  and  C_14
REMARK    7  A    between atoms: C_14  and  N_15
REMARK    8  A    between atoms: C_18  and  N_21
REMARK                            x       y       z     vdW  Elec       q    Type
REMARK                         _______ _______ _______ _____ _____    ______ ____
ROOT
ATOM      1  N   UNL     1       5.920  -1.227  -6.289  0.00  0.00    +0.386 N 
ATOM      2  C   UNL     1       6.747  -1.809  -5.225  0.00  0.00    -0.076 C 
ATOM      3  C   UNL     1       8.127  -1.149  -5.229  0.00  0.00    +0.006 C 
ATOM      4  C   UNL     1       8.797  -1.385  -6.586  0.00  0.00    +0.089 C 
ATOM      5  C   UNL     1       7.890  -0.841  -7.693  0.00  0.00    +0.006 C 
ATOM      6  C   UNL     1       6.519  -1.513  -7.598  0.00  0.00    -0.076 C 
ATOM      7  H   UNL     1       5.860  -0.229  -6.158  0.00  0.00    -0.081 HD
ENDROOT
BRANCH   4   8
ATOM      8  N   UNL     1      10.087  -0.692  -6.623  0.00  0.00    -0.289 N 
ATOM      9  C   UNL     1      11.329  -1.290  -6.819  0.00  0.00    +0.070 A 
ATOM     10  C   UNL     1      11.732  -2.602  -7.023  0.00  0.00    +0.028 A 
ATOM     11  C   UNL     1      13.072  -2.891  -7.190  0.00  0.00    +0.002 A 
ATOM     12  C   UNL     1      14.015  -1.878  -7.153  0.00  0.00    +0.002 A 
ATOM     13  C   UNL     1      13.623  -0.569  -6.949  0.00  0.00    +0.028 A 
ATOM     14  C   UNL     1      12.280  -0.269  -6.782  0.00  0.00    +0.067 A 
ATOM     15  N   UNL     1      11.586   0.919  -6.565  0.00  0.00    -0.306 N 
ATOM     16  H   UNL     1      11.981   1.802  -6.492  0.00  0.00    +0.170 HD
ATOM     17  C   UNL     1      10.273   0.634  -6.480  0.00  0.00    +0.328 A 
ATOM     18  O   UNL     1       9.389   1.450  -6.298  0.00  0.00    -0.247 OA
ENDBRANCH   4   8
BRANCH   1  19
ATOM     19  C   UNL     1       4.572  -1.808  -6.232  0.00  0.00    +0.019 C 
BRANCH  19  21
ATOM     20  N   UNL     1       2.657  -1.834  -4.665  0.00  0.00    -0.287 N 
ATOM     21  C   UNL     1       3.908  -1.413  -4.938  0.00  0.00    +0.201 C 
ATOM     22  O   UNL     1       4.500  -0.715  -4.142  0.00  0.00    -0.278 OA
ATOM     23  H   UNL     1       2.213  -2.453  -5.265  0.00  0.00    +0.155 HD
BRANCH  20  27
ATOM     24  C   UNL     1       0.700  -0.475  -1.248  0.00  0.00    -0.042 A 
ATOM     25  C   UNL     1       1.582   0.356  -1.914  0.00  0.00    +0.006 A 
ATOM     26  C   UNL     1       2.232  -0.091  -3.047  0.00  0.00    +0.023 A 
ATOM     27  C   UNL     1       2.000  -1.377  -3.518  0.00  0.00    +0.033 A 
ATOM     28  C   UNL     1       1.114  -2.210  -2.846  0.00  0.00    +0.023 A 
ATOM     29  C   UNL     1       0.470  -1.758  -1.711  0.00  0.00    +0.006 A 
BRANCH  24  31
ATOM     30  C   UNL     1       0.358  -0.877   1.175  0.00  0.00    +0.015 C 
ATOM     31  C   UNL     1      -0.009   0.016  -0.012  0.00  0.00    -0.013 C 
ATOM     32  C   UNL     1      -1.521  -0.032  -0.238  0.00  0.00    +0.015 C 
ATOM     33  C   UNL     1       0.418   1.456   0.282  0.00  0.00    +0.015 C 
ENDBRANCH  24  31
ENDBRANCH  20  27
ENDBRANCH  19  21
ENDBRANCH   1  19
TORSDOF 5
