REMARK  Name = ZINC60348007
REMARK  11 active torsions:
REMARK  status: ('A' for Active; 'I' for Inactive)
REMARK    1  A    between atoms: C_1  and  C_2
REMARK    2  A    between atoms: C_3  and  C_31
REMARK    3  A    between atoms: N_5  and  C_30
REMARK    4  A    between atoms: C_8  and  C_9
REMARK    5  A    between atoms: C_11  and  C_29
REMARK    6  A    between atoms: C_12  and  C_14
REMARK    7  A    between atoms: C_20  and  C_22
REMARK    8  A    between atoms: N_24  and  C_25
REMARK    9  A    between atoms: C_25  and  C_26
REMARK   10  A    between atoms: C_25  and  C_27
REMARK   11  A    between atoms: C_25  and  C_28
REMARK                            x       y       z     vdW  Elec       q    Type
REMARK                         _______ _______ _______ _____ _____    ______ ____
ROOT
ATOM      1  C   UNL     1      -0.008  -0.054   2.504  0.00  0.00    +0.115 A 
ATOM      2  N   UNL     1      -0.015   1.245   2.759  0.00  0.00    -0.243 NA
ATOM      3  C   UNL     1       0.003   1.700   3.984  0.00  0.00    +0.058 A 
ATOM      4  C   UNL     1       0.029   0.747   4.996  0.00  0.00    +0.097 A 
ATOM      5  S   UNL     1       0.018  -0.757   4.033  0.00  0.00    -0.062 S 
ATOM      6  C   UNL     1      -0.004   3.177   4.283  0.00  0.00    +0.067 C 
ENDROOT
BRANCH   1  14
ATOM      7  C   UNL     1      -0.052   1.506   0.011  0.00  0.00    +0.046 C 
ATOM      8  C   UNL     1      -0.047  -0.001   0.002  0.00  0.00    -0.013 A 
ATOM      9  C   UNL     1      -0.058  -0.715  -1.202  0.00  0.00    +0.062 A 
ATOM     10  N   UNL     1      -0.053  -2.018  -1.214  0.00  0.00    -0.173 NA
ATOM     11  N   UNL     1      -0.039  -2.739  -0.153  0.00  0.00    -0.232 N 
ATOM     12  C   UNL     1      -0.028  -2.190   1.078  0.00  0.00    +0.277 A 
ATOM     13  O   UNL     1      -0.015  -2.893   2.074  0.00  0.00    -0.265 OA
ATOM     14  C   UNL     1      -0.026  -0.726   1.192  0.00  0.00    +0.078 A 
ATOM     15  C   UNL     1      -0.036  -4.198  -0.283  0.00  0.00    +0.176 C 
ATOM     16  C   UNL     1      -0.075   0.037  -2.508  0.00  0.00    +0.068 C 
ENDBRANCH   1  14
BRANCH   4  17
ATOM     17  C   UNL     1       0.054   0.927   6.450  0.00  0.00    +0.256 C 
ATOM     18  O   UNL     1       0.139   2.045   6.923  0.00  0.00    -0.269 OA
ATOM     19  N   UNL     1      -0.018  -0.145   7.263  0.00  0.00    -0.275 N 
ATOM     20  C   UNL     1       0.004  -1.526   6.734  0.00  0.00    +0.178 C 
ATOM     21  S   UNL     1       0.578  -2.469   8.214  0.00  0.00    -0.139 S 
ATOM     22  C   UNL     1      -0.170  -1.346   9.478  0.00  0.00    +0.102 C 
ATOM     23  C   UNL     1      -0.115  -0.005   8.706  0.00  0.00    +0.173 C 
BRANCH  23  24
ATOM     24  C   UNL     1       1.076   0.782   9.191  0.00  0.00    +0.235 C 
ATOM     25  O   UNL     1       1.906   1.175   8.400  0.00  0.00    -0.274 OA
ATOM     26  N   UNL     1       1.217   1.048  10.505  0.00  0.00    -0.309 N 
ATOM     27  H   UNL     1       0.553   0.734  11.138  0.00  0.00    +0.149 HD
BRANCH  26  28
ATOM     28  C   UNL     1       2.375   1.813  10.977  0.00  0.00    +0.026 C 
ATOM     29  C   UNL     1       2.377   3.193  10.317  0.00  0.00    +0.031 C 
ATOM     30  C   UNL     1       2.295   1.974  12.496  0.00  0.00    +0.031 C 
ATOM     31  C   UNL     1       3.661   1.070  10.610  0.00  0.00    +0.031 C 
ENDBRANCH  26  28
ENDBRANCH  23  24
ENDBRANCH   4  17
TORSDOF 4
