REMARK  Name = ZINC19970267
REMARK  4 active torsions:
REMARK  status: ('A' for Active; 'I' for Inactive)
REMARK    1  A    between atoms: C_5  and  C_7
REMARK    2  A    between atoms: C_7  and  C_9
REMARK    3  A    between atoms: C_7  and  N_19
REMARK    4  A    between atoms: C_11  and  N_16
REMARK                            x       y       z     vdW  Elec       q    Type
REMARK                         _______ _______ _______ _____ _____    ______ ____
ROOT
ATOM      1  C   UNL     1       1.230  -2.186  -0.021  0.00  0.00    -0.012 C 
ENDROOT
BRANCH   1   6
ATOM      2  C   UNL     1       2.377   1.411  -0.013  0.00  0.00    +0.000 A 
ATOM      3  C   UNL     1       1.171   2.086   0.002  0.00  0.00    +0.001 A 
ATOM      4  C   UNL     1      -0.017   1.379   0.010  0.00  0.00    +0.015 A 
ATOM      5  C   UNL     1       0.002  -0.004   0.002  0.00  0.00    +0.020 A 
ATOM      6  C   UNL     1       1.209  -0.679  -0.013  0.00  0.00    -0.044 A 
ATOM      7  C   UNL     1       2.397   0.029  -0.021  0.00  0.00    +0.003 A 
ATOM      8 BR   UNL     1      -1.622  -0.972   0.013  0.00  0.00    -0.050 Br
ENDBRANCH   1   6
BRANCH   1   9
ATOM      9  C   UNL     1       1.004  -2.698   1.378  0.00  0.00    -0.054 A 
ATOM     10  C   UNL     1      -0.250  -3.139   1.758  0.00  0.00    +0.035 A 
ATOM     11  C   UNL     1      -0.457  -3.614   3.040  0.00  0.00    +0.128 A 
ATOM     12  C   UNL     1       0.588  -3.639   3.945  0.00  0.00    +0.052 A 
ATOM     13  C   UNL     1       1.841  -3.193   3.567  0.00  0.00    +0.043 A 
ATOM     14  C   UNL     1       2.049  -2.723   2.282  0.00  0.00    +0.022 A 
ATOM     15 CL   UNL     1       3.153  -3.224   4.703  0.00  0.00    -0.083 Cl
BRANCH  11  16
ATOM     16  N   UNL     1      -1.798  -4.090   3.445  0.00  0.00    +0.056 N 
ATOM     17  O   UNL     1      -1.982  -4.504   4.575  0.00  0.00    -0.126 OA
ATOM     18  O   UNL     1      -2.719  -4.069   2.647  0.00  0.00    -0.126 OA
ENDBRANCH  11  16
ENDBRANCH   1   9
BRANCH   1  19
ATOM     19  N   UNL     1       2.534  -2.655  -0.510  0.00  0.00    +0.385 N 
ATOM     20  H   UNL     1       2.549  -3.755  -0.515  0.00  0.00    -0.089 HD
ATOM     21  H   UNL     1       3.330  -2.280   0.151  0.00  0.00    -0.089 HD
ATOM     22  H   UNL     1       2.699  -2.280  -1.531  0.00  0.00    -0.089 HD
ENDBRANCH   1  19
TORSDOF 4
