REMARK  Name = ZINC06870401
REMARK  7 active torsions:
REMARK  status: ('A' for Active; 'I' for Inactive)
REMARK    1  A    between atoms: C_1  and  C_2
REMARK    2  A    between atoms: C_2  and  O_3
REMARK    3  A    between atoms: O_3  and  C_4
REMARK    4  A    between atoms: C_7  and  N_10
REMARK    5  A    between atoms: C_16  and  C_17
REMARK    6  A    between atoms: C_20  and  O_24
REMARK    7  A    between atoms: C_21  and  O_23
REMARK                            x       y       z     vdW  Elec       q    Type
REMARK                         _______ _______ _______ _____ _____    ______ ____
ROOT
ATOM      1  N   UNL     1       2.235   0.707  -0.471  0.00  0.00    -0.226 NA
ATOM      2  C   UNL     1       3.230   1.199  -1.173  0.00  0.00    +0.166 C 
ATOM      3  N   UNL     1       4.519   0.722  -1.283  0.00  0.00    -0.260 N 
ATOM      4  C   UNL     1       5.405   1.345  -2.041  0.00  0.00    +0.256 C 
ATOM      5  O   UNL     1       6.548   0.939  -2.148  0.00  0.00    -0.269 OA
ATOM      6  C   UNL     1       4.947   2.555  -2.749  0.00  0.00    +0.078 C 
ATOM      7  C   UNL     1       5.635   3.378  -3.582  0.00  0.00    +0.028 C 
ATOM      8  S   UNL     1       3.241   2.642  -2.224  0.00  0.00    -0.049 S 
ATOM      9  H   UNL     1       4.818  -0.185  -0.737  0.00  0.00    +0.157 HD
ENDROOT
BRANCH   1  13
ATOM     10  C   UNL     1      -1.458   2.581  -0.521  0.00  0.00    +0.121 A 
ATOM     11  C   UNL     1      -1.380   1.201  -0.653  0.00  0.00    +0.048 A 
ATOM     12  C   UNL     1      -0.153   0.572  -0.631  0.00  0.00    +0.031 A 
ATOM     13  C   UNL     1       1.013   1.327  -0.488  0.00  0.00    +0.067 A 
ATOM     14  C   UNL     1       0.930   2.715  -0.362  0.00  0.00    +0.031 A 
ATOM     15  C   UNL     1      -0.302   3.335  -0.380  0.00  0.00    +0.048 A 
BRANCH  10  16
ATOM     16  O   UNL     1      -2.671   3.196  -0.537  0.00  0.00    -0.492 OA
BRANCH  16  18
ATOM     17  C   UNL     1      -5.083   3.224  -0.682  0.00  0.00    +0.048 C 
ATOM     18  C   UNL     1      -3.820   2.360  -0.687  0.00  0.00    +0.225 C 
ENDBRANCH  16  18
ENDBRANCH  10  16
ENDBRANCH   1  13
BRANCH   7  19
ATOM     19  C   UNL     1       4.930   4.440  -4.312  0.00  0.00    -0.020 A 
ATOM     20  C   UNL     1       5.649   5.501  -4.876  0.00  0.00    +0.012 A 
ATOM     21  C   UNL     1       4.985   6.495  -5.561  0.00  0.00    +0.050 A 
ATOM     22  C   UNL     1       3.604   6.449  -5.693  0.00  0.00    +0.158 A 
ATOM     23  C   UNL     1       2.881   5.396  -5.134  0.00  0.00    +0.159 A 
ATOM     24  C   UNL     1       3.538   4.391  -4.451  0.00  0.00    +0.057 A 
BRANCH  23  25
ATOM     25  O   UNL     1       1.528   5.355  -5.267  0.00  0.00    -0.503 OA
ATOM     26  H   UNL     1       0.957   4.524  -4.826  0.00  0.00    +0.292 HD
ENDBRANCH  23  25
BRANCH  22  27
ATOM     27  O   UNL     1       2.955   7.432  -6.370  0.00  0.00    -0.503 OA
ATOM     28  H   UNL     1       1.861   7.397  -6.476  0.00  0.00    +0.292 HD
ENDBRANCH  22  27
ENDBRANCH   7  19
TORSDOF 6
