REMARK  Name = ZINC05341415
REMARK  8 active torsions:
REMARK  status: ('A' for Active; 'I' for Inactive)
REMARK    1  A    between atoms: C_1  and  C_2
REMARK    2  A    between atoms: C_2  and  C_3
REMARK    3  A    between atoms: C_3  and  N_4
REMARK    4  A    between atoms: C_5  and  C_24
REMARK    5  A    between atoms: C_8  and  C_15
REMARK    6  A    between atoms: C_18  and  C_22
REMARK    7  A    between atoms: C_20  and  O_21
REMARK    8  A    between atoms: C_28  and  O_30
REMARK                            x       y       z     vdW  Elec       q    Type
REMARK                         _______ _______ _______ _____ _____    ______ ____
ROOT
ATOM      1  N   UNL     1       0.738  -1.962  -1.265  0.00  0.00    -0.285 N 
ATOM      2  C   UNL     1       1.787  -2.804  -0.677  0.00  0.00    +0.141 C 
ATOM      3  C   UNL     1       1.377  -4.229  -0.930  0.00  0.00    +0.035 A 
ATOM      4  C   UNL     1       1.664  -5.549  -0.783  0.00  0.00    +0.075 A 
ATOM      5  N   UNL     1       0.644  -6.239  -1.375  0.00  0.00    -0.276 N 
ATOM      6  H   UNL     1       0.581  -7.205  -1.423  0.00  0.00    +0.189 HD
ATOM      7  N   UNL     1      -0.219  -5.417  -1.857  0.00  0.00    -0.168 NA
ATOM      8  C   UNL     1       0.151  -4.173  -1.630  0.00  0.00    +0.153 A 
ATOM      9  C   UNL     1      -0.204  -2.753  -1.807  0.00  0.00    +0.268 C 
ATOM     10  O   UNL     1      -1.206  -2.353  -2.367  0.00  0.00    -0.268 OA
ENDROOT
BRANCH   4  11
ATOM     11  C   UNL     1       2.850  -6.126  -0.114  0.00  0.00    +0.043 A 
ATOM     12  C   UNL     1       3.786  -6.852  -0.850  0.00  0.00    +0.034 A 
ATOM     13  C   UNL     1       4.891  -7.389  -0.220  0.00  0.00    +0.045 A 
ATOM     14  C   UNL     1       5.073  -7.210   1.141  0.00  0.00    -0.029 A 
ATOM     15  C   UNL     1       4.151  -6.492   1.880  0.00  0.00    +0.050 A 
ATOM     16  C   UNL     1       3.041  -5.942   1.260  0.00  0.00    +0.126 A 
ATOM     17  C   UNL     1       6.282  -7.800   1.820  0.00  0.00    +0.045 C 
ATOM     18 CL   UNL     1       6.056  -8.292  -1.137  0.00  0.00    -0.083 Cl
BRANCH  16  19
ATOM     19  O   UNL     1       2.137  -5.232   1.985  0.00  0.00    -0.506 OA
ATOM     20  H   UNL     1       1.423  -5.768   2.357  0.00  0.00    +0.292 HD
ENDBRANCH  16  19
ENDBRANCH   4  11
BRANCH   2  21
ATOM     21  C   UNL     1       3.110  -2.519  -1.339  0.00  0.00    -0.019 A 
ATOM     22  C   UNL     1       3.164  -2.276  -2.699  0.00  0.00    +0.006 A 
ATOM     23  C   UNL     1       4.377  -2.014  -3.310  0.00  0.00    +0.004 A 
ATOM     24  C   UNL     1       5.538  -1.996  -2.562  0.00  0.00    +0.045 A 
ATOM     25  C   UNL     1       5.487  -2.240  -1.197  0.00  0.00    +0.117 A 
ATOM     26  C   UNL     1       4.268  -2.496  -0.586  0.00  0.00    +0.051 A 
BRANCH  25  27
ATOM     27  O   UNL     1       6.628  -2.223  -0.460  0.00  0.00    -0.507 OA
ATOM     28  H   UNL     1       6.848  -1.355  -0.096  0.00  0.00    +0.292 HD
ENDBRANCH  25  27
ENDBRANCH   2  21
BRANCH   1  29
ATOM     29  C   UNL     1       0.718  -0.497  -1.257  0.00  0.00    +0.109 C 
BRANCH  29  31
ATOM     30  C   UNL     1      -0.019   1.526   0.010  0.00  0.00    +0.005 C 
ATOM     31  C   UNL     1       0.002  -0.004   0.002  0.00  0.00    +0.016 C 
ENDBRANCH  29  31
ENDBRANCH   1  29
TORSDOF 6
