REMARK  Name = ZINC24108638
REMARK  13 active torsions:
REMARK  status: ('A' for Active; 'I' for Inactive)
REMARK    1  A    between atoms: C_1  and  C_2
REMARK    2  A    between atoms: C_5  and  C_8
REMARK    3  A    between atoms: C_8  and  C_10
REMARK    4  A    between atoms: C_8  and  N_15
REMARK    5  A    between atoms: C_16  and  C_18
REMARK    6  A    between atoms: C_18  and  S_19
REMARK    7  A    between atoms: S_19  and  C_20
REMARK    8  A    between atoms: C_23  and  C_26
REMARK    9  A    between atoms: N_24  and  N_25
REMARK   10  A    between atoms: C_29  and  O_34
REMARK   11  A    between atoms: C_31  and  O_32
REMARK   12  A    between atoms: O_32  and  C_33
REMARK   13  A    between atoms: O_34  and  C_35
REMARK                            x       y       z     vdW  Elec       q    Type
REMARK                         _______ _______ _______ _____ _____    ______ ____
ROOT
ATOM      1  S   UNL     1      -3.616   0.051  -3.542  0.00  0.00    -0.075 S 
ENDROOT
BRANCH   1   2
ATOM      2  C   UNL     1      -4.422   0.974  -4.809  0.00  0.00    +0.209 A 
ATOM      3  N   UNL     1      -3.994   2.090  -5.352  0.00  0.00    -0.121 NA
ATOM      4  N   UNL     1      -4.824   2.493  -6.247  0.00  0.00    -0.127 NA
ATOM      5  C   UNL     1      -5.839   1.663  -6.323  0.00  0.00    +0.185 A 
ATOM      6  N   UNL     1      -5.613   0.664  -5.404  0.00  0.00    -0.224 N 
BRANCH   5   7
ATOM      7  C   UNL     1      -7.003   1.780  -7.226  0.00  0.00    +0.063 A 
ATOM      8  C   UNL     1      -8.294   1.595  -6.730  0.00  0.00    +0.019 A 
ATOM      9  C   UNL     1      -9.378   1.710  -7.574  0.00  0.00    +0.046 A 
ATOM     10  C   UNL     1      -9.189   1.999  -8.920  0.00  0.00    +0.124 A 
ATOM     11  C   UNL     1      -7.908   2.179  -9.422  0.00  0.00    +0.092 A 
ATOM     12  C   UNL     1      -6.813   2.071  -8.583  0.00  0.00    +0.134 A 
BRANCH  12  13
ATOM     13  O   UNL     1      -5.559   2.247  -9.073  0.00  0.00    -0.494 OA
ATOM     14  C   UNL     1      -5.442   2.541 -10.467  0.00  0.00    +0.277 C 
ENDBRANCH  12  13
BRANCH  10  15
ATOM     15  O   UNL     1     -10.261   2.104  -9.747  0.00  0.00    -0.495 OA
ATOM     16  C   UNL     1     -11.551   1.907  -9.165  0.00  0.00    +0.277 C 
ENDBRANCH  10  15
ENDBRANCH   5   7
BRANCH   6  17
ATOM     17  N   UNL     1      -6.413  -0.412  -5.142  0.00  0.00    -0.295 N 
ATOM     18  H   UNL     1      -7.353  -0.546  -5.696  0.00  0.00    +0.163 HD
ATOM     19  H   UNL     1      -6.116  -1.144  -4.377  0.00  0.00    +0.163 HD
ENDBRANCH   6  17
ENDBRANCH   1   2
BRANCH   1  20
ATOM     20  C   UNL     1      -2.144   1.075  -3.296  0.00  0.00    +0.173 C 
BRANCH  20  22
ATOM     21  N   UNL     1      -0.123   1.056  -1.870  0.00  0.00    -0.303 N 
ATOM     22  C   UNL     1      -1.280   0.462  -2.224  0.00  0.00    +0.224 C 
ATOM     23  O   UNL     1      -1.625  -0.566  -1.681  0.00  0.00    -0.275 OA
ATOM     24  H   UNL     1       0.190   1.988  -2.363  0.00  0.00    +0.150 HD
BRANCH  21  25
ATOM     25  C   UNL     1       0.717   0.460  -0.829  0.00  0.00    +0.140 C 
BRANCH  25  30
ATOM     26  C   UNL     1       6.197   2.128  -1.589  0.00  0.00    +0.044 C 
ATOM     27  C   UNL     1       4.768   1.693  -1.390  0.00  0.00    -0.050 A 
ATOM     28  C   UNL     1       4.487   0.393  -1.015  0.00  0.00    +0.004 A 
ATOM     29  C   UNL     1       3.176  -0.006  -0.833  0.00  0.00    +0.006 A 
ATOM     30  C   UNL     1       2.147   0.895  -1.026  0.00  0.00    -0.022 A 
ATOM     31  C   UNL     1       2.427   2.194  -1.407  0.00  0.00    +0.006 A 
ATOM     32  C   UNL     1       3.738   2.595  -1.583  0.00  0.00    +0.004 A 
ENDBRANCH  25  30
BRANCH  25  33
ATOM     33  C   UNL     1       0.237   0.914   0.526  0.00  0.00    +0.014 A 
ATOM     34  C   UNL     1       0.130   0.205   1.676  0.00  0.00    +0.013 A 
ATOM     35  C   UNL     1      -0.341   0.836   2.812  0.00  0.00    +0.008 A 
ATOM     36  C   UNL     1      -0.682   2.146   2.742  0.00  0.00    +0.045 A 
ATOM     37  S   UNL     1      -0.332   2.528   1.034  0.00  0.00    -0.099 S 
ENDBRANCH  25  33
ENDBRANCH  21  25
ENDBRANCH  20  22
ENDBRANCH   1  20
TORSDOF 10
