REMARK  Name = ZINC51188208
REMARK  10 active torsions:
REMARK  status: ('A' for Active; 'I' for Inactive)
REMARK    1  A    between atoms: C_1  and  C_2
REMARK    2  A    between atoms: C_2  and  O_3
REMARK    3  A    between atoms: O_3  and  C_4
REMARK    4  A    between atoms: C_6  and  C_18
REMARK    5  A    between atoms: C_9  and  O_10
REMARK    6  A    between atoms: O_10  and  C_11
REMARK    7  A    between atoms: C_11  and  C_12
REMARK    8  A    between atoms: C_18  and  N_19
REMARK    9  A    between atoms: N_19  and  C_20
REMARK   10  A    between atoms: C_29  and  O_31
REMARK                            x       y       z     vdW  Elec       q    Type
REMARK                         _______ _______ _______ _____ _____    ______ ____
ROOT
ATOM      1  C   UNL     1       0.777  -1.811  -1.336  0.00  0.00    +0.162 A 
ATOM      2  C   UNL     1       0.243  -2.669  -0.388  0.00  0.00    +0.051 A 
ATOM      3  C   UNL     1       0.352  -4.037  -0.555  0.00  0.00    -0.061 A 
ATOM      4  C   UNL     1       0.992  -4.552  -1.667  0.00  0.00    +0.005 A 
ATOM      5  C   UNL     1       1.526  -3.702  -2.616  0.00  0.00    +0.049 A 
ATOM      6  C   UNL     1       1.416  -2.330  -2.458  0.00  0.00    +0.162 A 
ENDROOT
BRANCH   1   7
ATOM      7  O   UNL     1       0.671  -0.465  -1.174  0.00  0.00    -0.489 OA
BRANCH   7   9
ATOM      8  C   UNL     1      -0.019   1.526   0.010  0.00  0.00    +0.048 C 
ATOM      9  C   UNL     1       0.002  -0.004   0.002  0.00  0.00    +0.226 C 
ENDBRANCH   7   9
ENDBRANCH   1   7
BRANCH   6  10
ATOM     10  O   UNL     1       1.936  -1.492  -3.394  0.00  0.00    -0.484 OA
BRANCH  10  11
ATOM     11  C   UNL     1       2.578  -2.095  -4.520  0.00  0.00    +0.264 C 
BRANCH  11  12
ATOM     12  C   UNL     1       3.088  -1.019  -5.443  0.00  0.00    -0.010 A 
ATOM     13  C   UNL     1       2.278  -0.532  -6.452  0.00  0.00    +0.007 A 
ATOM     14  C   UNL     1       2.746   0.455  -7.299  0.00  0.00    +0.000 A 
ATOM     15  C   UNL     1       4.024   0.956  -7.137  0.00  0.00    +0.000 A 
ATOM     16  C   UNL     1       4.835   0.470  -6.128  0.00  0.00    +0.000 A 
ATOM     17  C   UNL     1       4.365  -0.514  -5.278  0.00  0.00    +0.007 A 
ENDBRANCH  11  12
ENDBRANCH  10  11
ENDBRANCH   6  10
BRANCH   3  18
ATOM     18  C   UNL     1      -0.229  -4.969   0.477  0.00  0.00    -0.046 C 
BRANCH  18  19
ATOM     19  N   UNL     1      -1.621  -5.283   0.127  0.00  0.00    +0.388 N 
ATOM     20  H   UNL     1      -2.161  -4.431   0.100  0.00  0.00    -0.084 HD
ATOM     21  H   UNL     1      -1.647  -5.726  -0.779  0.00  0.00    -0.084 HD
BRANCH  19  22
ATOM     22  C   UNL     1      -2.187  -6.191   1.133  0.00  0.00    -0.011 C 
ATOM     23  C   UNL     1      -1.512  -7.544   1.057  0.00  0.00    -0.056 A 
ATOM     24  C   UNL     1      -0.281  -7.961   1.534  0.00  0.00    +0.002 A 
ATOM     25  C   UNL     1       0.132  -9.265   1.345  0.00  0.00    +0.000 A 
ATOM     26  C   UNL     1      -0.686 -10.158   0.678  0.00  0.00    +0.000 A 
ATOM     27  C   UNL     1      -1.914  -9.744   0.202  0.00  0.00    +0.004 A 
ATOM     28  C   UNL     1      -2.330  -8.437   0.391  0.00  0.00    -0.043 A 
ATOM     29  C   UNL     1      -3.610  -7.745  -0.028  0.00  0.00    +0.065 C 
ATOM     30  C   UNL     1      -3.676  -6.462   0.833  0.00  0.00    +0.109 C 
BRANCH  30  31
ATOM     31  O   UNL     1      -4.250  -5.381   0.093  0.00  0.00    -0.393 OA
ATOM     32  H   UNL     1      -5.185  -5.504  -0.120  0.00  0.00    +0.210 HD
ENDBRANCH  30  31
ENDBRANCH  19  22
ENDBRANCH  18  19
ENDBRANCH   3  18
TORSDOF 9
