REMARK  Name = ZINC08756382
REMARK  11 active torsions:
REMARK  status: ('A' for Active; 'I' for Inactive)
REMARK    1  A    between atoms: C_1  and  C_2
REMARK    2  A    between atoms: C_2  and  O_3
REMARK    3  A    between atoms: O_3  and  C_4
REMARK    4  A    between atoms: C_4  and  C_6
REMARK    5  A    between atoms: C_7  and  C_18
REMARK    6  A    between atoms: C_12  and  C_13
REMARK    7  A    between atoms: C_18  and  S_19
REMARK    8  A    between atoms: S_19  and  C_20
REMARK    9  A    between atoms: N_24  and  C_25
REMARK   10  A    between atoms: C_30  and  O_31
REMARK   11  A    between atoms: O_31  and  C_32
REMARK                            x       y       z     vdW  Elec       q    Type
REMARK                         _______ _______ _______ _____ _____    ______ ____
ROOT
ATOM      1  C   UNL     1       1.162  -2.219  -2.470  0.00  0.00    +0.082 C 
ATOM      2  C   UNL     1       1.494  -3.525  -2.564  0.00  0.00    +0.034 C 
ATOM      3  N   UNL     1       2.233  -3.990  -3.614  0.00  0.00    -0.272 N 
ATOM      4  C   UNL     1       2.679  -3.215  -4.610  0.00  0.00    +0.304 C 
ATOM      5  O   UNL     1       3.331  -3.721  -5.502  0.00  0.00    -0.252 OA
ATOM      6  N   UNL     1       2.430  -1.891  -4.655  0.00  0.00    -0.285 N 
ATOM      7  C   UNL     1       1.634  -1.291  -3.572  0.00  0.00    +0.179 C 
ATOM      8  H   UNL     1       2.447  -4.936  -3.639  0.00  0.00    +0.156 HD
ATOM      9  H   UNL     1       2.763  -1.348  -5.386  0.00  0.00    +0.151 HD
ENDROOT
BRANCH   7  10
ATOM     10  C   UNL     1       0.419  -0.643  -4.185  0.00  0.00    +0.130 A 
ATOM     11  C   UNL     1      -0.029   0.597  -3.920  0.00  0.00    +0.047 A 
ATOM     12  C   UNL     1      -1.185   0.792  -4.710  0.00  0.00    +0.041 A 
ATOM     13  C   UNL     1      -1.374  -0.340  -5.411  0.00  0.00    +0.195 A 
ATOM     14  O   UNL     1      -0.396  -1.204  -5.093  0.00  0.00    -0.466 OA
ENDBRANCH   7  10
BRANCH   1  15
ATOM     15  C   UNL     1       0.396  -1.735  -1.384  0.00  0.00    +0.339 C 
ATOM     16  O   UNL     1       0.945  -1.170  -0.457  0.00  0.00    -0.245 OA
BRANCH  15  17
ATOM     17  O   UNL     1      -0.943  -1.900  -1.377  0.00  0.00    -0.462 OA
BRANCH  17  19
ATOM     18  C   UNL     1      -3.148  -1.665  -0.416  0.00  0.00    +0.048 C 
ATOM     19  C   UNL     1      -1.653  -1.386  -0.248  0.00  0.00    +0.229 C 
ENDBRANCH  17  19
ENDBRANCH  15  17
ENDBRANCH   1  15
BRANCH   2  20
ATOM     20  C   UNL     1       1.041  -4.483  -1.493  0.00  0.00    +0.127 C 
BRANCH  20  21
ATOM     21  S   UNL     1      -0.338  -5.481  -2.119  0.00  0.00    -0.091 S 
BRANCH  21  22
ATOM     22  C   UNL     1      -0.748  -6.537  -0.769  0.00  0.00    +0.160 A 
ATOM     23  N   UNL     1      -0.205  -6.607   0.432  0.00  0.00    -0.133 NA
ATOM     24  N   UNL     1      -0.684  -7.515   1.347  0.00  0.00    -0.125 NA
ATOM     25  C   UNL     1      -1.683  -8.312   1.020  0.00  0.00    +0.187 A 
ATOM     26  N   UNL     1      -2.316  -9.289   1.780  0.00  0.00    -0.289 N 
ATOM     27  S   UNL     1      -2.013  -7.792  -0.657  0.00  0.00    -0.024 S 
ATOM     28  H   UNL     1      -2.995  -9.852   1.378  0.00  0.00    +0.154 HD
BRANCH  26  29
ATOM     29  C   UNL     1      -1.972  -9.461   3.126  0.00  0.00    +0.075 A 
ATOM     30  C   UNL     1      -0.909  -8.752   3.668  0.00  0.00    +0.027 A 
ATOM     31  C   UNL     1      -0.572  -8.923   4.997  0.00  0.00    +0.002 A 
ATOM     32  C   UNL     1      -1.291  -9.799   5.790  0.00  0.00    +0.004 A 
ATOM     33  C   UNL     1      -2.351 -10.509   5.256  0.00  0.00    +0.047 A 
ATOM     34  C   UNL     1      -2.699 -10.339   3.926  0.00  0.00    +0.141 A 
BRANCH  34  35
ATOM     35  O   UNL     1      -3.745 -11.032   3.402  0.00  0.00    -0.493 OA
ATOM     36  C   UNL     1      -4.445 -11.914   4.282  0.00  0.00    +0.277 C 
ENDBRANCH  34  35
ENDBRANCH  26  29
ENDBRANCH  21  22
ENDBRANCH  20  21
ENDBRANCH   2  20
TORSDOF 9
