REMARK  Name = ZINC40906576
REMARK  7 active torsions:
REMARK  status: ('A' for Active; 'I' for Inactive)
REMARK    1  A    between atoms: C_1  and  O_2
REMARK    2  A    between atoms: O_2  and  C_3
REMARK    3  A    between atoms: C_6  and  C_10
REMARK    4  A    between atoms: C_7  and  O_9
REMARK    5  A    between atoms: C_10  and  N_11
REMARK    6  A    between atoms: N_11  and  C_12
REMARK    7  A    between atoms: C_17  and  N_18
REMARK                            x       y       z     vdW  Elec       q    Type
REMARK                         _______ _______ _______ _____ _____    ______ ____
ROOT
ATOM      1  N   UNL     1       1.463  -2.506  -5.649  0.00  0.00    -0.338 N 
ATOM      2  H   UNL     1       0.520  -2.341  -5.489  0.00  0.00    +0.146 HD
ENDROOT
BRANCH   1   3
ATOM      3  C   UNL     1       1.858  -3.366  -6.676  0.00  0.00    +0.058 A 
ATOM      4  C   UNL     1       3.205  -3.509  -6.985  0.00  0.00    +0.026 A 
ATOM      5  C   UNL     1       3.592  -4.360  -8.001  0.00  0.00    +0.017 A 
ATOM      6  C   UNL     1       2.641  -5.070  -8.711  0.00  0.00    +0.020 A 
ATOM      7  C   UNL     1       1.299  -4.930  -8.406  0.00  0.00    +0.050 A 
ATOM      8  C   UNL     1       0.905  -4.085  -7.387  0.00  0.00    +0.148 A 
ATOM      9 BR   UNL     1       3.175  -6.235 -10.102  0.00  0.00    -0.050 Br
BRANCH   8  10
ATOM     10  N   UNL     1      -0.530  -3.941  -7.056  0.00  0.00    +0.058 N 
ATOM     11  O   UNL     1      -0.876  -3.820  -5.904  0.00  0.00    -0.126 OA
ATOM     12  O   UNL     1      -1.357  -3.943  -7.939  0.00  0.00    -0.126 OA
ENDBRANCH   8  10
ENDBRANCH   1   3
BRANCH   1  13
ATOM     13  C   UNL     1       2.472  -1.851  -4.812  0.00  0.00    +0.140 C 
BRANCH  13  17
ATOM     14  C   UNL     1       0.532   0.614  -1.905  0.00  0.00    +0.124 A 
ATOM     15  C   UNL     1       1.067   1.179  -3.055  0.00  0.00    +0.046 A 
ATOM     16  C   UNL     1       1.693   0.381  -3.992  0.00  0.00    +0.012 A 
ATOM     17  C   UNL     1       1.789  -0.983  -3.788  0.00  0.00    +0.011 A 
ATOM     18  C   UNL     1       1.257  -1.553  -2.640  0.00  0.00    +0.125 A 
ATOM     19  C   UNL     1       0.633  -0.752  -1.695  0.00  0.00    +0.091 A 
BRANCH  14  21
ATOM     20  C   UNL     1      -0.151   2.800  -1.266  0.00  0.00    +0.277 C 
ATOM     21  O   UNL     1      -0.084   1.400  -0.984  0.00  0.00    -0.495 OA
ENDBRANCH  14  21
BRANCH  18  22
ATOM     22  O   UNL     1       1.351  -2.894  -2.440  0.00  0.00    -0.506 OA
ATOM     23  H   UNL     1       2.149  -3.165  -1.966  0.00  0.00    +0.292 HD
ENDBRANCH  18  22
ENDBRANCH  13  17
ENDBRANCH   1  13
TORSDOF 6
