REMARK  Name = ZINC07949848
REMARK  8 active torsions:
REMARK  status: ('A' for Active; 'I' for Inactive)
REMARK    1  A    between atoms: C_1  and  C_2
REMARK    2  A    between atoms: C_2  and  C_18
REMARK    3  A    between atoms: N_3  and  N_4
REMARK    4  A    between atoms: C_5  and  C_7
REMARK    5  A    between atoms: C_16  and  O_17
REMARK    6  A    between atoms: C_20  and  O_25
REMARK    7  A    between atoms: C_23  and  O_24
REMARK    8  A    between atoms: O_25  and  C_26
REMARK                            x       y       z     vdW  Elec       q    Type
REMARK                         _______ _______ _______ _____ _____    ______ ____
ROOT
ATOM      1  N   UNL     1       0.024   0.035   2.340  0.00  0.00    -0.203 N 
ATOM      2  C   UNL     1       0.044  -0.645   3.503  0.00  0.00    +0.267 C 
ATOM      3  O   UNL     1       0.060  -1.861   3.497  0.00  0.00    -0.268 OA
ATOM      4  H   UNL     1       0.011   1.005   2.345  0.00  0.00    +0.178 HD
ENDROOT
BRANCH   2   5
ATOM      5  C   UNL     1       0.046   0.085   4.785  0.00  0.00    +0.080 A 
ATOM      6  C   UNL     1       0.022   1.471   4.787  0.00  0.00    +0.025 A 
ATOM      7  C   UNL     1       0.024   2.160   6.009  0.00  0.00    -0.017 A 
ATOM      8  C   UNL     1      -0.001   3.566   6.048  0.00  0.00    +0.008 A 
ATOM      9  C   UNL     1       0.001   4.206   7.249  0.00  0.00    +0.001 A 
ATOM     10  C   UNL     1       0.028   3.489   8.444  0.00  0.00    +0.001 A 
ATOM     11  C   UNL     1       0.053   2.128   8.445  0.00  0.00    +0.008 A 
ATOM     12  C   UNL     1       0.051   1.430   7.225  0.00  0.00    -0.014 A 
ATOM     13  C   UNL     1       0.076   0.026   7.196  0.00  0.00    +0.054 A 
ATOM     14  C   UNL     1       0.067  -0.631   6.000  0.00  0.00    +0.130 A 
BRANCH  14  15
ATOM     15  O   UNL     1       0.086  -1.988   5.980  0.00  0.00    -0.506 OA
ATOM     16  H   UNL     1       0.974  -2.369   5.965  0.00  0.00    +0.292 HD
ENDBRANCH  14  15
ENDBRANCH   2   5
BRANCH   1  19
ATOM     17  C   UNL     1      -0.018   1.503   0.010  0.00  0.00    +0.068 C 
ATOM     18  C   UNL     1       0.002  -0.004   0.002  0.00  0.00    +0.067 C 
ATOM     19  N   UNL     1       0.022  -0.659   1.123  0.00  0.00    -0.184 NA
BRANCH  18  20
ATOM     20  C   UNL     1      -0.000  -0.734  -1.278  0.00  0.00    +0.042 A 
ATOM     21  C   UNL     1      -0.015  -0.033  -2.486  0.00  0.00    +0.059 A 
ATOM     22  C   UNL     1      -0.017  -0.724  -3.684  0.00  0.00    +0.121 A 
ATOM     23  C   UNL     1      -0.003  -2.113  -3.688  0.00  0.00    +0.049 A 
ATOM     24  C   UNL     1       0.012  -2.814  -2.497  0.00  0.00    +0.049 A 
ATOM     25  C   UNL     1       0.019  -2.135  -1.290  0.00  0.00    +0.126 A 
BRANCH  25  26
ATOM     26  O   UNL     1       0.039  -2.826  -0.120  0.00  0.00    -0.506 OA
ATOM     27  H   UNL     1      -0.839  -3.038   0.227  0.00  0.00    +0.292 HD
ENDBRANCH  25  26
BRANCH  22  28
ATOM     28  O   UNL     1      -0.032  -0.043  -4.861  0.00  0.00    -0.495 OA
ATOM     29  C   UNL     1      -0.033  -0.820  -6.060  0.00  0.00    +0.277 C 
ENDBRANCH  22  28
ENDBRANCH  18  20
ENDBRANCH   1  19
TORSDOF 6
