REMARK  Name = ZINC52853604
REMARK  7 active torsions:
REMARK  status: ('A' for Active; 'I' for Inactive)
REMARK    1  A    between atoms: C_1  and  C_2
REMARK    2  A    between atoms: C_2  and  C_3
REMARK    3  A    between atoms: C_2  and  C_4
REMARK    4  A    between atoms: C_2  and  C_5
REMARK    5  A    between atoms: C_9  and  N_23
REMARK    6  A    between atoms: N_13  and  C_14
REMARK    7  A    between atoms: C_20  and  O_22
REMARK                            x       y       z     vdW  Elec       q    Type
REMARK                         _______ _______ _______ _____ _____    ______ ____
ROOT
ATOM      1  C   UNL     1       0.594  -0.497  -1.329  0.00  0.00    +0.094 A 
ATOM      2  N   UNL     1       1.292   0.250  -2.133  0.00  0.00    -0.343 N 
ATOM      3  C   UNL     1       1.932  -0.530  -3.042  0.00  0.00    +0.066 A 
ATOM      4  C   UNL     1       2.792  -0.255  -4.109  0.00  0.00    +0.050 A 
ATOM      5  C   UNL     1       3.293  -1.295  -4.870  0.00  0.00    +0.027 A 
ATOM      6  C   UNL     1       2.944  -2.612  -4.579  0.00  0.00    +0.025 A 
ATOM      7  C   UNL     1       2.097  -2.894  -3.530  0.00  0.00    +0.030 A 
ATOM      8  C   UNL     1       1.587  -1.861  -2.756  0.00  0.00    +0.067 A 
ATOM      9  N   UNL     1       0.742  -1.808  -1.662  0.00  0.00    -0.323 N 
ATOM     10  H   UNL     1       1.347   1.218  -2.091  0.00  0.00    +0.167 HD
ENDROOT
BRANCH   9  11
ATOM     11  C   UNL     1       0.120  -2.950  -0.989  0.00  0.00    +0.117 C 
ATOM     12  C   UNL     1      -0.799  -3.681  -1.969  0.00  0.00    +0.028 C 
ATOM     13  C   UNL     1      -1.449  -4.875  -1.266  0.00  0.00    +0.002 C 
ATOM     14  C   UNL     1      -0.361  -5.832  -0.776  0.00  0.00    +0.003 C 
ATOM     15  C   UNL     1       0.558  -5.101   0.204  0.00  0.00    +0.033 C 
ATOM     16  C   UNL     1       1.208  -3.908  -0.499  0.00  0.00    +0.137 C 
BRANCH  16  17
ATOM     17  O   UNL     1       2.066  -3.225   0.417  0.00  0.00    -0.390 OA
ATOM     18  H   UNL     1       2.781  -3.773   0.769  0.00  0.00    +0.210 HD
ENDBRANCH  16  17
ENDBRANCH   9  11
BRANCH   1  20
ATOM     19  C   UNL     1      -0.175   1.542  -0.145  0.00  0.00    +0.018 C 
ATOM     20  C   UNL     1      -0.250   0.014  -0.190  0.00  0.00    +0.019 C 
ATOM     21  C   UNL     1       0.271  -0.561   1.129  0.00  0.00    +0.018 C 
ATOM     22  C   UNL     1      -1.702  -0.420  -0.397  0.00  0.00    +0.018 C 
ENDBRANCH   1  20
BRANCH   5  23
ATOM     23  N   UNL     1       4.154  -1.023  -5.939  0.00  0.00    -0.358 N 
ATOM     24  H   UNL     1       4.398  -0.106  -6.144  0.00  0.00    +0.142 HD
ATOM     25  H   UNL     1       4.507  -1.750  -6.475  0.00  0.00    +0.142 HD
ENDBRANCH   5  23
TORSDOF 4
