REMARK  Name = ZINC12588850
REMARK  6 active torsions:
REMARK  status: ('A' for Active; 'I' for Inactive)
REMARK    1  A    between atoms: C_4  and  C_7
REMARK    2  A    between atoms: C_7  and  C_9
REMARK    3  A    between atoms: C_11  and  C_29
REMARK    4  A    between atoms: N_16  and  C_23
REMARK    5  A    between atoms: C_17  and  C_18
REMARK    6  A    between atoms: C_17  and  O_22
REMARK                            x       y       z     vdW  Elec       q    Type
REMARK                         _______ _______ _______ _____ _____    ______ ____
ROOT
ATOM      1  C   UNL     1      -0.090   0.720  -0.413  0.00  0.00    +0.145 C 
ATOM      2  C   UNL     1       0.409  -0.672  -0.814  0.00  0.00    +0.120 C 
ATOM      3  N   UNL     1       1.836  -0.779  -0.504  0.00  0.00    -0.291 N 
ATOM      4  C   UNL     1       2.634   0.299  -0.513  0.00  0.00    +0.309 C 
ATOM      5  O   UNL     1       3.814   0.154  -0.259  0.00  0.00    -0.252 OA
ATOM      6  N   UNL     1       2.182   1.531  -0.792  0.00  0.00    -0.218 N 
ATOM      7  C   UNL     1       0.775   1.770  -1.119  0.00  0.00    +0.250 C 
ATOM      8  H   UNL     1       2.212  -1.646  -0.287  0.00  0.00    +0.151 HD
ENDROOT
BRANCH   2   9
ATOM      9  C   UNL     1       0.198  -0.877  -2.292  0.00  0.00    -0.026 A 
ATOM     10  C   UNL     1      -0.969  -0.439  -2.890  0.00  0.00    +0.007 A 
ATOM     11  C   UNL     1      -1.160  -0.622  -4.247  0.00  0.00    +0.020 A 
ATOM     12  C   UNL     1      -0.189  -1.253  -5.003  0.00  0.00    +0.041 A 
ATOM     13  C   UNL     1       0.976  -1.696  -4.403  0.00  0.00    +0.020 A 
ATOM     14  C   UNL     1       1.169  -1.508  -3.047  0.00  0.00    +0.007 A 
ATOM     15 CL   UNL     1      -0.432  -1.490  -6.706  0.00  0.00    -0.084 Cl
ENDBRANCH   2   9
BRANCH   6  16
ATOM     16  C   UNL     1       3.073   2.610  -0.771  0.00  0.00    +0.041 A 
ATOM     17  C   UNL     1       3.736   2.987  -1.931  0.00  0.00    +0.023 A 
ATOM     18  C   UNL     1       4.612   4.055  -1.907  0.00  0.00    +0.002 A 
ATOM     19  C   UNL     1       4.836   4.742  -0.728  0.00  0.00    +0.000 A 
ATOM     20  C   UNL     1       4.181   4.365   0.430  0.00  0.00    +0.002 A 
ATOM     21  C   UNL     1       3.300   3.301   0.412  0.00  0.00    +0.023 A 
ENDBRANCH   6  16
BRANCH   7  22
ATOM     22  C   UNL     1       0.576   1.663  -2.632  0.00  0.00    +0.437 C 
ATOM     23  F   UNL     1      -0.783   1.479  -2.912  0.00  0.00    -0.166 F 
ATOM     24  F   UNL     1       1.023   2.839  -3.245  0.00  0.00    -0.166 F 
ATOM     25  F   UNL     1       1.305   0.575  -3.123  0.00  0.00    -0.166 F 
ENDBRANCH   7  22
BRANCH   1  26
ATOM     26  C   UNL     1       0.022   0.892   1.080  0.00  0.00    +0.173 C 
ATOM     27  O   UNL     1       1.007   1.413   1.558  0.00  0.00    -0.292 OA
BRANCH  26  31
ATOM     28  C   UNL     1      -3.109  -0.446   3.610  0.00  0.00    +0.000 A 
ATOM     29  C   UNL     1      -1.986   0.149   4.160  0.00  0.00    +0.001 A 
ATOM     30  C   UNL     1      -0.964   0.586   3.344  0.00  0.00    +0.011 A 
ATOM     31  C   UNL     1      -1.064   0.428   1.958  0.00  0.00    +0.018 A 
ATOM     32  C   UNL     1      -2.205  -0.168   1.410  0.00  0.00    +0.011 A 
ATOM     33  C   UNL     1      -3.216  -0.605   2.240  0.00  0.00    +0.001 A 
ENDBRANCH  26  31
ENDBRANCH   1  26
BRANCH   7  34
ATOM     34  O   UNL     1       0.397   3.075  -0.676  0.00  0.00    -0.364 OA
ATOM     35  H   UNL     1       0.927   3.788  -1.058  0.00  0.00    +0.212 HD
ENDBRANCH   7  34
TORSDOF 6
