REMARK  Name = ZINC04801039
REMARK  6 active torsions:
REMARK  status: ('A' for Active; 'I' for Inactive)
REMARK    1  A    between atoms: C_1  and  C_2
REMARK    2  A    between atoms: N_10  and  C_11
REMARK    3  A    between atoms: C_11  and  C_12
REMARK    4  A    between atoms: C_12  and  N_13
REMARK    5  A    between atoms: C_14  and  C_16
REMARK    6  A    between atoms: C_16  and  C_21
REMARK                            x       y       z     vdW  Elec       q    Type
REMARK                         _______ _______ _______ _____ _____    ______ ____
ROOT
ATOM      1  N   UNL     1      -1.168   1.895  -0.196  0.00  0.00    -0.313 N 
ATOM      2  C   UNL     1      -0.015   1.228   0.008  0.00  0.00    +0.224 C 
ATOM      3  O   UNL     1      -0.032   0.030   0.195  0.00  0.00    -0.275 OA
ATOM      4  H   UNL     1      -1.150   2.840  -0.417  0.00  0.00    +0.149 HD
ENDROOT
BRANCH   2   5
ATOM      5  C   UNL     1       1.297   1.970  -0.004  0.00  0.00    +0.072 C 
ATOM      6  C   UNL     1       1.468   2.717  -1.338  0.00  0.00    +0.021 C 
ATOM      7  C   UNL     1       2.739   2.147  -2.002  0.00  0.00    +0.001 C 
ATOM      8  C   UNL     1       2.897   0.740  -1.373  0.00  0.00    +0.001 C 
ATOM      9  C   UNL     1       2.469   0.973   0.097  0.00  0.00    +0.021 C 
BRANCH   5  10
ATOM     10  C   UNL     1       1.348   2.945   1.144  0.00  0.00    -0.032 A 
ATOM     11  C   UNL     1       0.327   2.970   2.076  0.00  0.00    +0.006 A 
ATOM     12  C   UNL     1       0.376   3.860   3.132  0.00  0.00    +0.020 A 
ATOM     13  C   UNL     1       1.442   4.734   3.251  0.00  0.00    +0.041 A 
ATOM     14  C   UNL     1       2.461   4.713   2.315  0.00  0.00    +0.020 A 
ATOM     15  C   UNL     1       2.413   3.818   1.262  0.00  0.00    +0.006 A 
ATOM     16 CL   UNL     1       1.501   5.856   4.574  0.00  0.00    -0.084 Cl
ENDBRANCH   5  10
ENDBRANCH   2   5
BRANCH   1  17
ATOM     17  C   UNL     1      -2.450   1.194  -0.082  0.00  0.00    +0.125 C 
BRANCH  17  18
ATOM     18  C   UNL     1      -3.593   2.173  -0.359  0.00  0.00    +0.141 C 
BRANCH  18  28
ATOM     19  C   UNL     1      -5.213   1.923   2.243  0.00  0.00    +0.063 C 
ATOM     20  C   UNL     1      -5.606   1.353   0.905  0.00  0.00    +0.017 A 
ATOM     21  C   UNL     1      -6.725   0.652   0.664  0.00  0.00    +0.031 A 
ATOM     22  C   UNL     1      -6.709   0.294  -0.756  0.00  0.00    +0.000 A 
ATOM     23  C   UNL     1      -7.578  -0.416  -1.588  0.00  0.00    +0.010 A 
ATOM     24  C   UNL     1      -7.268  -0.582  -2.908  0.00  0.00    +0.001 A 
ATOM     25  C   UNL     1      -6.097  -0.049  -3.430  0.00  0.00    +0.002 A 
ATOM     26  C   UNL     1      -5.227   0.655  -2.628  0.00  0.00    +0.026 A 
ATOM     27  C   UNL     1      -5.524   0.840  -1.282  0.00  0.00    +0.049 A 
ATOM     28  N   UNL     1      -4.874   1.472  -0.245  0.00  0.00    -0.343 N 
ENDBRANCH  18  28
ENDBRANCH  17  18
ENDBRANCH   1  17
TORSDOF 5
