REMARK  Name = ZINC35938808
REMARK  8 active torsions:
REMARK  status: ('A' for Active; 'I' for Inactive)
REMARK    1  A    between atoms: C_1  and  C_2
REMARK    2  A    between atoms: C_2  and  C_3
REMARK    3  A    between atoms: C_3  and  C_4
REMARK    4  A    between atoms: C_4  and  N_5
REMARK    5  A    between atoms: C_14  and  C_16
REMARK    6  A    between atoms: C_16  and  C_18
REMARK    7  A    between atoms: C_16  and  N_19
REMARK    8  A    between atoms: C_27  and  C_29
REMARK                            x       y       z     vdW  Elec       q    Type
REMARK                         _______ _______ _______ _____ _____    ______ ____
ROOT
ATOM      1  C   UNL     1       4.787  -6.993  -7.085  0.00  0.00    +0.018 C 
ATOM      2  C   UNL     1       5.616  -7.835  -6.114  0.00  0.00    -0.004 C 
ENDROOT
BRANCH   1  12
ATOM      3  N   UNL     1       0.595  -2.339  -3.686  0.00  0.00    -0.299 N 
ATOM      4  C   UNL     1       0.712  -3.661  -3.916  0.00  0.00    +0.302 C 
ATOM      5  O   UNL     1       0.043  -4.451  -3.277  0.00  0.00    -0.253 OA
ATOM      6  N   UNL     1       1.571  -4.109  -4.853  0.00  0.00    -0.283 N 
ATOM      7  C   UNL     1       2.473  -3.179  -5.547  0.00  0.00    +0.128 C 
ATOM      8  C   UNL     1       3.914  -3.673  -5.374  0.00  0.00    +0.126 C 
ATOM      9  N   UNL     1       3.966  -5.100  -5.720  0.00  0.00    -0.300 N 
ATOM     10  C   UNL     1       3.064  -6.031  -5.026  0.00  0.00    +0.126 C 
ATOM     11  C   UNL     1       1.627  -5.537  -5.195  0.00  0.00    +0.128 C 
ATOM     12  C   UNL     1       4.825  -5.548  -6.657  0.00  0.00    +0.202 C 
ATOM     13  O   UNL     1       5.629  -4.789  -7.155  0.00  0.00    -0.277 OA
ATOM     14  H   UNL     1       1.179  -1.713  -4.143  0.00  0.00    +0.150 HD
BRANCH   3  15
ATOM     15  C   UNL     1      -0.415  -1.845  -2.747  0.00  0.00    +0.106 C 
BRANCH  15  16
ATOM     16  C   UNL     1      -0.337  -0.319  -2.670  0.00  0.00    +0.018 C 
BRANCH  16  18
ATOM     17  C   UNL     1      -1.314   1.723  -1.612  0.00  0.00    +0.004 C 
ATOM     18  C   UNL     1      -1.392   0.197  -1.689  0.00  0.00    -0.002 C 
ENDBRANCH  16  18
ENDBRANCH  15  16
ENDBRANCH   3  15
ENDBRANCH   1  12
BRANCH   1  19
ATOM     19  N   UNL     1       5.343  -7.117  -8.439  0.00  0.00    +0.395 N 
ATOM     20  C   UNL     1       6.779  -6.807  -8.402  0.00  0.00    -0.071 C 
ATOM     21  C   UNL     1       7.284  -6.612  -9.842  0.00  0.00    +0.024 C 
ATOM     22  C   UNL     1       6.763  -7.750 -10.659  0.00  0.00    -0.010 A 
ATOM     23  C   UNL     1       5.787  -8.628 -10.294  0.00  0.00    -0.047 A 
ATOM     24  C   UNL     1       5.465  -9.619 -11.218  0.00  0.00    +0.010 A 
ATOM     25  C   UNL     1       6.109  -9.670 -12.407  0.00  0.00    +0.045 A 
ATOM     26  S   UNL     1       7.233  -8.286 -12.279  0.00  0.00    -0.101 S 
ATOM     27  C   UNL     1       5.117  -8.481  -8.931  0.00  0.00    -0.005 C 
ATOM     28  H   UNL     1       4.879  -6.462  -9.050  0.00  0.00    -0.079 HD
BRANCH  27  29
ATOM     29  C   UNL     1       3.637  -8.729  -9.067  0.00  0.00    -0.057 A 
ATOM     30  C   UNL     1       2.828  -7.779  -9.661  0.00  0.00    +0.002 A 
ATOM     31  C   UNL     1       1.470  -8.007  -9.785  0.00  0.00    +0.000 A 
ATOM     32  C   UNL     1       0.921  -9.186  -9.317  0.00  0.00    +0.000 A 
ATOM     33  C   UNL     1       1.730 -10.137  -8.724  0.00  0.00    +0.000 A 
ATOM     34  C   UNL     1       3.089  -9.911  -8.603  0.00  0.00    +0.002 A 
ENDBRANCH  27  29
ENDBRANCH   1  19
TORSDOF 6
