REMARK  Name = ZINC20477494
REMARK  4 active torsions:
REMARK  status: ('A' for Active; 'I' for Inactive)
REMARK    1  A    between atoms: C_1  and  C_2
REMARK    2  A    between atoms: C_5  and  N_8
REMARK    3  A    between atoms: C_24  and  C_30
REMARK    4  A    between atoms: C_30  and  C_32
REMARK                            x       y       z     vdW  Elec       q    Type
REMARK                         _______ _______ _______ _____ _____    ______ ____
ROOT
ATOM      1  N   UNL     1       0.059  -4.172  -0.021  0.00  0.00    -0.210 N 
ATOM      2  C   UNL     1       0.167  -4.907   1.098  0.00  0.00    +0.232 C 
ATOM      3  O   UNL     1       0.397  -4.479   2.209  0.00  0.00    -0.274 OA
ATOM      4  C   UNL     1      -0.047  -6.361   0.734  0.00  0.00    +0.115 C 
ATOM      5  C   UNL     1       1.055  -7.236   1.326  0.00  0.00    +0.117 C 
ATOM      6  C   UNL     1       1.572  -6.679   2.627  0.00  0.00    -0.019 A 
ATOM      7  C   UNL     1       0.738  -6.027   3.505  0.00  0.00    +0.006 A 
ATOM      8  C   UNL     1       1.242  -5.520   4.691  0.00  0.00    +0.000 A 
ATOM      9  C   UNL     1       2.583  -5.666   4.997  0.00  0.00    +0.001 A 
ATOM     10  C   UNL     1       3.430  -6.320   4.126  0.00  0.00    +0.008 A 
ATOM     11  C   UNL     1       2.930  -6.836   2.929  0.00  0.00    -0.019 A 
ATOM     12  C   UNL     1       3.825  -7.549   1.994  0.00  0.00    +0.023 C 
ATOM     13  C   UNL     1       3.437  -7.729   0.716  0.00  0.00    +0.072 C 
ATOM     14  N   UNL     1       2.177  -7.248   0.370  0.00  0.00    -0.317 N 
ATOM     15  C   UNL     1       1.766  -6.614  -0.877  0.00  0.00    +0.158 C 
ATOM     16  C   UNL     1       0.230  -6.354  -0.801  0.00  0.00    +0.118 C 
ATOM     17  C   UNL     1      -0.036  -4.897  -1.147  0.00  0.00    +0.232 C 
ATOM     18  O   UNL     1      -0.288  -4.463  -2.250  0.00  0.00    -0.274 OA
ENDROOT
BRANCH   1  23
ATOM     19  C   UNL     1      -0.017   1.503   0.012  0.00  0.00    +0.044 C 
ATOM     20  C   UNL     1       0.003  -0.004   0.003  0.00  0.00    -0.050 A 
ATOM     21  C   UNL     1      -1.128  -0.707  -0.369  0.00  0.00    +0.005 A 
ATOM     22  C   UNL     1      -1.113  -2.088  -0.378  0.00  0.00    +0.024 A 
ATOM     23  C   UNL     1       0.040  -2.771  -0.013  0.00  0.00    +0.044 A 
ATOM     24  C   UNL     1       1.174  -2.062   0.359  0.00  0.00    +0.024 A 
ATOM     25  C   UNL     1       1.154  -0.681   0.362  0.00  0.00    +0.005 A 
ENDBRANCH   1  23
BRANCH  15  26
ATOM     26  C   UNL     1       2.497  -5.307  -1.050  0.00  0.00    +0.191 C 
ATOM     27  O   UNL     1       3.094  -4.817  -0.113  0.00  0.00    -0.289 OA
BRANCH  26  28
ATOM     28  C   UNL     1       2.486  -4.652  -2.301  0.00  0.00    +0.056 A 
ATOM     29  C   UNL     1       3.093  -3.455  -2.671  0.00  0.00    +0.019 A 
ATOM     30  C   UNL     1       2.902  -3.069  -3.973  0.00  0.00    +0.008 A 
ATOM     31  C   UNL     1       2.156  -3.854  -4.792  0.00  0.00    +0.046 A 
ATOM     32  S   UNL     1       1.697  -5.146  -3.822  0.00  0.00    -0.094 S 
ENDBRANCH  26  28
ENDBRANCH  15  26
TORSDOF 3
