REMARK  Name = ZINC00910657
REMARK  11 active torsions:
REMARK  status: ('A' for Active; 'I' for Inactive)
REMARK    1  A    between atoms: C_1  and  C_2
REMARK    2  A    between atoms: C_4  and  C_26
REMARK    3  A    between atoms: C_6  and  O_8
REMARK    4  A    between atoms: O_8  and  C_9
REMARK    5  A    between atoms: C_9  and  C_10
REMARK    6  A    between atoms: C_13  and  C_21
REMARK    7  A    between atoms: C_13  and  O_25
REMARK    8  A    between atoms: C_15  and  C_17
REMARK    9  A    between atoms: C_21  and  C_22
REMARK   10  A    between atoms: C_21  and  C_23
REMARK   11  A    between atoms: C_21  and  C_24
REMARK                            x       y       z     vdW  Elec       q    Type
REMARK                         _______ _______ _______ _____ _____    ______ ____
ROOT
ATOM      1  C   UNL     1      -0.506  -2.944   5.070  0.00  0.00    +0.275 C 
ATOM      2  O   UNL     1      -0.257  -4.076   4.713  0.00  0.00    -0.270 OA
ATOM      3  N   UNL     1      -0.500  -2.635   6.382  0.00  0.00    -0.158 N 
ATOM      4  C   UNL     1      -0.231  -3.573   7.484  0.00  0.00    +0.166 C 
ATOM      5  C   UNL     1      -0.356  -2.688   8.741  0.00  0.00    +0.119 C 
ATOM      6  C   UNL     1      -0.689  -1.321   8.187  0.00  0.00    +0.144 C 
ATOM      7  N   UNL     1      -0.743  -1.372   6.920  0.00  0.00    -0.175 NA
ENDROOT
BRANCH   6   8
ATOM      8  C   UNL     1      -0.917  -0.082   9.015  0.00  0.00    +0.432 C 
ATOM      9  F   UNL     1      -1.202   0.997   8.171  0.00  0.00    -0.165 F 
ATOM     10  F   UNL     1      -1.994  -0.293   9.883  0.00  0.00    -0.165 F 
ATOM     11  F   UNL     1       0.234   0.200   9.759  0.00  0.00    -0.165 F 
ENDBRANCH   6   8
BRANCH   4  12
ATOM     12  C   UNL     1       1.181  -4.151   7.369  0.00  0.00    +0.010 C 
ATOM     13  C   UNL     1       2.192  -3.007   7.265  0.00  0.00    +0.015 C 
ATOM     14  C   UNL     1       1.490  -4.994   8.607  0.00  0.00    +0.015 C 
ATOM     15  C   UNL     1       1.272  -5.028   6.119  0.00  0.00    +0.015 C 
ENDBRANCH   4  12
BRANCH   4  16
ATOM     16  O   UNL     1      -1.205  -4.619   7.505  0.00  0.00    -0.369 OA
ATOM     17  H   UNL     1      -2.114  -4.307   7.614  0.00  0.00    +0.212 HD
ENDBRANCH   4  16
BRANCH   1  18
ATOM     18  C   UNL     1      -0.822  -1.883   4.047  0.00  0.00    +0.326 C 
BRANCH  18  19
ATOM     19  O   UNL     1      -0.764  -2.453   2.738  0.00  0.00    -0.483 OA
BRANCH  19  25
ATOM     20  C   UNL     1      -1.929   1.998   1.108  0.00  0.00    +0.044 C 
ATOM     21  C   UNL     1      -1.597   0.549   0.859  0.00  0.00    -0.047 A 
ATOM     22  C   UNL     1      -1.559   0.062  -0.435  0.00  0.00    +0.007 A 
ATOM     23  C   UNL     1      -1.254  -1.267  -0.667  0.00  0.00    -0.047 A 
ATOM     24  C   UNL     1      -0.988  -2.111   0.394  0.00  0.00    +0.049 A 
ATOM     25  C   UNL     1      -1.026  -1.625   1.693  0.00  0.00    +0.122 A 
ATOM     26  C   UNL     1      -1.326  -0.290   1.922  0.00  0.00    +0.049 A 
ATOM     27  C   UNL     1      -1.213  -1.794  -2.078  0.00  0.00    +0.044 C 
ENDBRANCH  19  25
ENDBRANCH  18  19
ENDBRANCH   1  18
TORSDOF 6
