REMARK  Name = ZINC58143661
REMARK  5 active torsions:
REMARK  status: ('A' for Active; 'I' for Inactive)
REMARK    1  A    between atoms: C_1  and  C_2
REMARK    2  A    between atoms: C_15  and  C_17
REMARK    3  A    between atoms: C_17  and  C_19
REMARK    4  A    between atoms: C_17  and  N_20
REMARK    5  A    between atoms: C_23  and  C_26
REMARK                            x       y       z     vdW  Elec       q    Type
REMARK                         _______ _______ _______ _____ _____    ______ ____
ROOT
ATOM      1  C   UNL     1      -0.988   1.736   1.598  0.00  0.00    +0.008 C 
ATOM      2  C   UNL     1      -0.831   0.235   1.343  0.00  0.00    -0.009 C 
ATOM      3  C   UNL     1      -2.211  -0.429   1.320  0.00  0.00    +0.008 C 
ATOM      4  C   UNL     1      -2.086  -1.869   0.823  0.00  0.00    +0.037 C 
ATOM      5  C   UNL     1      -1.027  -2.589   1.654  0.00  0.00    -0.023 A 
ATOM      6  C   UNL     1      -0.120  -1.885   2.370  0.00  0.00    -0.004 A 
ATOM      7  S   UNL     1       0.894  -3.107   3.164  0.00  0.00    -0.073 S 
ATOM      8  C   UNL     1       0.102  -4.553   2.537  0.00  0.00    +0.116 A 
ATOM      9  C   UNL     1      -0.931  -4.036   1.725  0.00  0.00    +0.075 A 
ATOM     10  C   UNL     1      -1.775  -4.987   1.058  0.00  0.00    +0.260 A 
ATOM     11  O   UNL     1      -2.695  -4.644   0.336  0.00  0.00    -0.267 OA
ATOM     12  N   UNL     1      -1.484  -6.290   1.285  0.00  0.00    -0.309 N 
ATOM     13  H   UNL     1      -2.028  -6.968   0.854  0.00  0.00    +0.170 HD
ATOM     14  C   UNL     1      -0.466  -6.692   2.084  0.00  0.00    +0.128 A 
ATOM     15  N   UNL     1       0.328  -5.852   2.711  0.00  0.00    -0.225 NA
ATOM     16  C   UNL     1       0.003  -0.395   2.467  0.00  0.00    +0.046 C 
ENDROOT
BRANCH  14  17
ATOM     17  C   UNL     1      -0.234  -8.170   2.263  0.00  0.00    +0.120 C 
ATOM     18  C   UNL     1      -0.087  -8.834   0.892  0.00  0.00    +0.032 C 
BRANCH  17  19
ATOM     19  N   UNL     1       0.993  -8.382   3.043  0.00  0.00    -0.289 NA
ATOM     20  C   UNL     1       2.183  -7.984   2.274  0.00  0.00    +0.090 C 
ATOM     21  C   UNL     1       3.380  -7.921   3.226  0.00  0.00    +0.051 C 
ATOM     22  C   UNL     1       3.444  -9.182   4.042  0.00  0.00    -0.042 C 
ATOM     23  C   UNL     1       2.428 -10.009   4.152  0.00  0.00    -0.008 C 
ATOM     24  C   UNL     1       1.109  -9.782   3.471  0.00  0.00    +0.112 C 
BRANCH  22  25
ATOM     25  C   UNL     1       4.702  -9.505   4.749  0.00  0.00    -0.022 A 
ATOM     26  C   UNL     1       5.155  -8.686   5.783  0.00  0.00    +0.008 A 
ATOM     27  C   UNL     1       6.329  -8.993   6.439  0.00  0.00    +0.001 A 
ATOM     28  C   UNL     1       7.056 -10.112   6.073  0.00  0.00    +0.000 A 
ATOM     29  C   UNL     1       6.613 -10.929   5.049  0.00  0.00    +0.001 A 
ATOM     30  C   UNL     1       5.437 -10.635   4.388  0.00  0.00    +0.008 A 
ENDBRANCH  22  25
ENDBRANCH  17  19
ENDBRANCH  14  17
TORSDOF 3
