REMARK  Name = ZINC20883226
REMARK  12 active torsions:
REMARK  status: ('A' for Active; 'I' for Inactive)
REMARK    1  A    between atoms: C_1  and  C_2
REMARK    2  A    between atoms: C_2  and  C_3
REMARK    3  A    between atoms: C_2  and  O_4
REMARK    4  A    between atoms: O_4  and  C_5
REMARK    5  A    between atoms: C_8  and  C_13
REMARK    6  A    between atoms: C_10  and  O_11
REMARK    7  A    between atoms: O_11  and  C_12
REMARK    8  A    between atoms: C_18  and  C_28
REMARK    9  A    between atoms: C_31  and  O_36
REMARK   10  A    between atoms: C_32  and  O_34
REMARK   11  A    between atoms: O_34  and  C_35
REMARK   12  A    between atoms: O_36  and  C_37
REMARK                            x       y       z     vdW  Elec       q    Type
REMARK                         _______ _______ _______ _____ _____    ______ ____
ROOT
ATOM      1  C   UNL     1       1.407   0.766  -0.531  0.00  0.00    +0.032 C 
ATOM      2  C   UNL     1       1.014   1.618   0.674  0.00  0.00    +0.059 C 
ATOM      3  C   UNL     1       1.719   1.107   1.921  0.00  0.00    +0.017 C 
ATOM      4  C   UNL     1       2.944   0.563   1.834  0.00  0.00    +0.036 C 
ATOM      5  C   UNL     1       3.765   0.040   2.989  0.00  0.00    +0.136 C 
ATOM      6  N   UNL     1       3.036  -0.088   4.233  0.00  0.00    -0.331 N 
ATOM      7  C   UNL     1       2.523   1.032   4.886  0.00  0.00    +0.049 A 
ATOM      8  C   UNL     1       3.031   1.453   6.104  0.00  0.00    +0.025 A 
ATOM      9  C   UNL     1       2.567   2.631   6.664  0.00  0.00    +0.002 A 
ATOM     10  C   UNL     1       1.603   3.381   6.016  0.00  0.00    +0.002 A 
ATOM     11  C   UNL     1       1.078   2.952   4.809  0.00  0.00    +0.025 A 
ATOM     12  C   UNL     1       1.530   1.766   4.256  0.00  0.00    +0.052 A 
ATOM     13  N   UNL     1       1.014   1.255   3.071  0.00  0.00    -0.316 N 
ATOM     14  C   UNL     1       3.582   0.438   0.577  0.00  0.00    +0.163 C 
ATOM     15  O   UNL     1       4.699  -0.037   0.532  0.00  0.00    -0.292 OA
ATOM     16  C   UNL     1       2.928   0.870  -0.701  0.00  0.00    +0.088 C 
ATOM     17  H   UNL     1       2.878  -1.081   4.678  0.00  0.00    +0.147 HD
ATOM     18  H   UNL     1      -0.045   0.960   3.108  0.00  0.00    +0.152 HD
ENDROOT
BRANCH   1  22
ATOM     19  C   UNL     1      -0.543   2.236  -4.042  0.00  0.00    +0.162 A 
ATOM     20  C   UNL     1       0.301   3.062  -3.318  0.00  0.00    +0.050 A 
ATOM     21  C   UNL     1       0.930   2.584  -2.184  0.00  0.00    +0.008 A 
ATOM     22  C   UNL     1       0.719   1.282  -1.769  0.00  0.00    -0.040 A 
ATOM     23  C   UNL     1      -0.118   0.451  -2.489  0.00  0.00    +0.053 A 
ATOM     24  C   UNL     1      -0.756   0.925  -3.624  0.00  0.00    +0.162 A 
BRANCH  24  25
ATOM     25  O   UNL     1      -1.584   0.111  -4.332  0.00  0.00    -0.491 OA
ATOM     26  C   UNL     1      -1.755  -1.222  -3.844  0.00  0.00    +0.277 C 
ENDBRANCH  24  25
BRANCH  19  27
ATOM     27  O   UNL     1      -1.163   2.704  -5.158  0.00  0.00    -0.486 OA
BRANCH  27  29
ATOM     28  C   UNL     1       0.291   4.287  -6.264  0.00  0.00    +0.051 C 
ATOM     29  C   UNL     1      -0.996   4.091  -5.459  0.00  0.00    +0.167 C 
ATOM     30  C   UNL     1      -2.190   4.582  -6.279  0.00  0.00    +0.051 C 
ENDBRANCH  27  29
ENDBRANCH  19  27
ENDBRANCH   1  22
BRANCH   5  31
ATOM     31  C   UNL     1       4.928   0.972   3.210  0.00  0.00    -0.019 A 
ATOM     32  C   UNL     1       4.700   2.275   3.613  0.00  0.00    +0.009 A 
ATOM     33  C   UNL     1       5.763   3.135   3.817  0.00  0.00    +0.050 A 
ATOM     34  C   UNL     1       7.061   2.691   3.620  0.00  0.00    +0.162 A 
ATOM     35  C   UNL     1       7.290   1.379   3.215  0.00  0.00    +0.162 A 
ATOM     36  C   UNL     1       6.220   0.522   3.016  0.00  0.00    +0.055 A 
BRANCH  35  37
ATOM     37  O   UNL     1       8.562   0.939   3.020  0.00  0.00    -0.491 OA
ATOM     38  C   UNL     1       8.722  -0.419   2.604  0.00  0.00    +0.277 C 
ENDBRANCH  35  37
BRANCH  34  39
ATOM     39  O   UNL     1       8.108   3.535   3.821  0.00  0.00    -0.491 OA
ATOM     40  C   UNL     1       7.797   4.867   4.236  0.00  0.00    +0.277 C 
ENDBRANCH  34  39
ENDBRANCH   5  31
TORSDOF 7
