REMARK  Name = ZINC03157742
REMARK  12 active torsions:
REMARK  status: ('A' for Active; 'I' for Inactive)
REMARK    1  A    between atoms: C_1  and  C_2
REMARK    2  A    between atoms: C_3  and  C_27
REMARK    3  A    between atoms: C_4  and  C_26
REMARK    4  A    between atoms: C_5  and  C_10
REMARK    5  A    between atoms: C_6  and  C_9
REMARK    6  A    between atoms: C_7  and  C_8
REMARK    7  A    between atoms: C_10  and  S_11
REMARK    8  A    between atoms: S_11  and  C_12
REMARK    9  A    between atoms: C_12  and  C_13
REMARK   10  A    between atoms: N_15  and  N_16
REMARK   11  A    between atoms: C_17  and  C_18
REMARK   12  A    between atoms: C_19  and  C_20
REMARK                            x       y       z     vdW  Elec       q    Type
REMARK                         _______ _______ _______ _____ _____    ______ ____
ROOT
ATOM      1  C   UNL     1       0.049  -2.422   1.526  0.00  0.00    +0.166 C 
ENDROOT
BRANCH   1   2
ATOM      2  C   UNL     1       0.071  -3.065   2.889  0.00  0.00    +0.242 C 
ATOM      3  O   UNL     1       0.071  -2.374   3.886  0.00  0.00    -0.273 OA
ATOM      4  N   UNL     1       0.090  -4.408   3.000  0.00  0.00    -0.206 N 
ATOM      5  H   UNL     1       0.090  -4.961   2.203  0.00  0.00    +0.177 HD
BRANCH   4   6
ATOM      6  N   UNL     1       0.111  -5.006   4.267  0.00  0.00    -0.188 NA
ATOM      7  C   UNL     1       0.129  -6.303   4.375  0.00  0.00    +0.130 C 
BRANCH   7   8
ATOM      8  C   UNL     1       0.150  -6.908   5.657  0.00  0.00    +0.022 C 
ATOM      9  C   UNL     1       0.169  -8.252   5.769  0.00  0.00    +0.009 C 
BRANCH   9  10
ATOM     10  C   UNL     1       0.190  -8.880   7.100  0.00  0.00    -0.025 A 
ATOM     11  C   UNL     1       0.196  -8.086   8.251  0.00  0.00    +0.008 A 
ATOM     12  C   UNL     1       0.210  -8.682   9.495  0.00  0.00    +0.001 A 
ATOM     13  C   UNL     1       0.230 -10.062   9.605  0.00  0.00    +0.000 A 
ATOM     14  C   UNL     1       0.230 -10.854   8.470  0.00  0.00    +0.001 A 
ATOM     15  C   UNL     1       0.210 -10.273   7.220  0.00  0.00    +0.008 A 
ENDBRANCH   9  10
ENDBRANCH   7   8
ENDBRANCH   4   6
ENDBRANCH   1   2
BRANCH   1  16
ATOM     16  S   UNL     1       0.027  -0.618   1.709  0.00  0.00    -0.147 S 
BRANCH  16  17
ATOM     17  C   UNL     1       0.002  -0.004   0.002  0.00  0.00    +0.105 C 
BRANCH  17  22
ATOM     18  C   UNL     1      -0.076   5.774   0.033  0.00  0.00    +0.044 C 
ATOM     19  C   UNL     1      -0.056   4.267   0.025  0.00  0.00    -0.044 A 
ATOM     20  C   UNL     1       1.151   3.592   0.010  0.00  0.00    -0.044 A 
ATOM     21  C   UNL     1       1.169   2.210   0.003  0.00  0.00    -0.043 A 
ATOM     22  C   UNL     1      -0.018   1.503   0.010  0.00  0.00    -0.031 A 
ATOM     23  C   UNL     1      -1.225   2.178   0.020  0.00  0.00    -0.043 A 
ATOM     24  C   UNL     1      -1.244   3.560   0.032  0.00  0.00    -0.044 A 
ATOM     25  C   UNL     1      -2.559   4.295   0.048  0.00  0.00    +0.044 C 
ATOM     26  C   UNL     1      -2.519   1.406   0.022  0.00  0.00    +0.044 C 
ATOM     27  C   UNL     1       2.484   1.474  -0.013  0.00  0.00    +0.044 C 
ATOM     28  C   UNL     1       2.445   4.364   0.003  0.00  0.00    +0.044 C 
ENDBRANCH  17  22
ENDBRANCH  16  17
ENDBRANCH   1  16
TORSDOF 7
