REMARK  Name = ZINC40568872
REMARK  8 active torsions:
REMARK  status: ('A' for Active; 'I' for Inactive)
REMARK    1  A    between atoms: C_1  and  C_2
REMARK    2  A    between atoms: C_2  and  O_3
REMARK    3  A    between atoms: O_3  and  C_4
REMARK    4  A    between atoms: C_4  and  C_6
REMARK    5  A    between atoms: C_7  and  N_34
REMARK    6  A    between atoms: C_11  and  C_15
REMARK    7  A    between atoms: N_23  and  C_26
REMARK    8  A    between atoms: C_26  and  C_27
REMARK                            x       y       z     vdW  Elec       q    Type
REMARK                         _______ _______ _______ _____ _____    ______ ____
ROOT
ATOM      1  C   UNL     1       1.462  -2.349   2.421  0.00  0.00    +0.117 C 
ATOM      2  C   UNL     1       1.480  -3.695   2.594  0.00  0.00    +0.198 C 
ATOM      3  O   UNL     1       2.097  -4.307   3.624  0.00  0.00    -0.424 OA
ATOM      4  C   UNL     1       2.952  -3.574   4.380  0.00  0.00    +0.223 A 
ATOM      5  C   UNL     1       3.015  -2.209   4.308  0.00  0.00    +0.061 A 
ATOM      6  C   UNL     1       3.985  -1.777   5.203  0.00  0.00    +0.068 A 
ATOM      7  N   UNL     1       4.492  -2.831   5.796  0.00  0.00    -0.176 NA
ATOM      8  N   UNL     1       3.853  -3.974   5.290  0.00  0.00    -0.246 N 
ATOM      9  H   UNL     1       4.032  -4.891   5.552  0.00  0.00    +0.192 HD
ATOM     10  C   UNL     1       4.385  -0.345   5.449  0.00  0.00    +0.068 C 
ATOM     11  C   UNL     1       2.144  -1.412   3.380  0.00  0.00    +0.142 C 
ATOM     12  C   UNL     1       1.151  -0.594   4.140  0.00  0.00    -0.002 A 
ATOM     13  C   UNL     1       0.136  -0.952   5.000  0.00  0.00    +0.007 A 
ATOM     14  C   UNL     1      -0.619   0.078   5.550  0.00  0.00    +0.000 A 
ATOM     15  C   UNL     1      -0.361   1.399   5.246  0.00  0.00    +0.002 A 
ATOM     16  C   UNL     1       0.657   1.768   4.381  0.00  0.00    +0.024 A 
ATOM     17  C   UNL     1       1.423   0.743   3.822  0.00  0.00    +0.041 A 
ATOM     18  N   UNL     1       2.485   0.822   2.939  0.00  0.00    -0.265 N 
ATOM     19  C   UNL     1       2.971  -0.397   2.622  0.00  0.00    +0.240 C 
ATOM     20  O   UNL     1       3.895  -0.633   1.873  0.00  0.00    -0.274 OA
ENDROOT
BRANCH   2  21
ATOM     21  N   UNL     1       0.836  -4.474   1.671  0.00  0.00    -0.329 N 
ATOM     22  H   UNL     1       0.450  -4.068   0.879  0.00  0.00    +0.145 HD
ATOM     23  H   UNL     1       0.766  -5.432   1.809  0.00  0.00    +0.145 HD
ENDBRANCH   2  21
BRANCH   1  24
ATOM     24  C   UNL     1       0.791  -1.815   1.311  0.00  0.00    +0.342 C 
ATOM     25  O   UNL     1      -0.324  -1.342   1.443  0.00  0.00    -0.245 OA
BRANCH  24  26
ATOM     26  O   UNL     1       1.381  -1.826   0.096  0.00  0.00    -0.462 OA
BRANCH  26  28
ATOM     27  C   UNL     1       1.464  -1.366  -2.275  0.00  0.00    +0.048 C 
ATOM     28  C   UNL     1       0.640  -1.266  -0.990  0.00  0.00    +0.229 C 
ENDBRANCH  26  28
ENDBRANCH  24  26
ENDBRANCH   1  24
BRANCH  18  29
ATOM     29  C   UNL     1       3.018   2.080   2.409  0.00  0.00    +0.151 C 
BRANCH  29  30
ATOM     30  C   UNL     1       4.105   2.588   3.321  0.00  0.00    +0.005 A 
ATOM     31  C   UNL     1       3.828   3.583   4.240  0.00  0.00    +0.008 A 
ATOM     32  C   UNL     1       4.824   4.049   5.076  0.00  0.00    +0.000 A 
ATOM     33  C   UNL     1       6.100   3.521   4.995  0.00  0.00    +0.003 A 
ATOM     34  C   UNL     1       6.379   2.526   4.078  0.00  0.00    +0.038 A 
ATOM     35  C   UNL     1       5.380   2.054   3.243  0.00  0.00    +0.128 A 
ATOM     36  F   UNL     1       5.651   1.078   2.349  0.00  0.00    -0.205 F 
ENDBRANCH  29  30
ENDBRANCH  18  29
TORSDOF 6
