REMARK  Name = ZINC38664527
REMARK  8 active torsions:
REMARK  status: ('A' for Active; 'I' for Inactive)
REMARK    1  A    between atoms: C_1  and  O_2
REMARK    2  A    between atoms: O_2  and  C_3
REMARK    3  A    between atoms: C_3  and  C_5
REMARK    4  A    between atoms: C_7  and  N_16
REMARK    5  A    between atoms: C_17  and  C_19
REMARK    6  A    between atoms: C_19  and  N_20
REMARK    7  A    between atoms: C_23  and  C_26
REMARK    8  A    between atoms: C_26  and  C_27
REMARK                            x       y       z     vdW  Elec       q    Type
REMARK                         _______ _______ _______ _____ _____    ______ ____
ROOT
ATOM      1  N   UNL     1       0.021  -2.347  -2.067  0.00  0.00    -0.288 N 
ATOM      2  C   UNL     1       0.114  -2.774  -3.342  0.00  0.00    +0.200 C 
ATOM      3  O   UNL     1      -0.885  -3.098  -3.947  0.00  0.00    -0.278 OA
ATOM      4  H   UNL     1       0.810  -2.021  -1.606  0.00  0.00    +0.155 HD
ENDROOT
BRANCH   1   6
ATOM      5  C   UNL     1      -2.473  -2.975  -1.932  0.00  0.00    +0.234 C 
ATOM      6  C   UNL     1      -1.181  -2.373  -1.426  0.00  0.00    +0.054 C 
ATOM      7  C   UNL     1      -1.472  -1.855  -0.176  0.00  0.00    +0.036 A 
ATOM      8  C   UNL     1      -2.893  -2.107   0.122  0.00  0.00    +0.046 A 
ATOM      9  N   UNL     1      -3.467  -2.746  -0.879  0.00  0.00    -0.367 N 
ATOM     10  C   UNL     1      -3.406  -1.655   1.364  0.00  0.00    +0.026 A 
ATOM     11  C   UNL     1      -2.593  -1.010   2.236  0.00  0.00    +0.003 A 
ATOM     12  C   UNL     1      -1.246  -0.772   1.952  0.00  0.00    +0.021 A 
ATOM     13  C   UNL     1      -0.683  -1.175   0.784  0.00  0.00    +0.052 A 
ATOM     14 CL   UNL     1       0.995  -0.860   0.470  0.00  0.00    -0.083 Cl
ATOM     15  H   UNL     1      -4.397  -3.020  -0.914  0.00  0.00    +0.161 HD
BRANCH   5  16
ATOM     16  C   UNL     1      -2.299  -4.453  -2.169  0.00  0.00    +0.335 C 
ATOM     17  O   UNL     1      -2.274  -5.216  -1.233  0.00  0.00    -0.248 OA
BRANCH  16  19
ATOM     18  C   UNL     1      -2.010  -6.334  -3.571  0.00  0.00    +0.280 C 
ATOM     19  O   UNL     1      -2.172  -4.922  -3.421  0.00  0.00    -0.466 OA
ENDBRANCH  16  19
ENDBRANCH   5  16
ENDBRANCH   1   6
BRANCH   2  20
ATOM     20  C   UNL     1       1.460  -2.849  -4.015  0.00  0.00    +0.019 C 
BRANCH  20  21
ATOM     21  N   UNL     1       1.313  -3.475  -5.336  0.00  0.00    +0.385 N 
ATOM     22  C   UNL     1       0.928  -4.881  -5.169  0.00  0.00    -0.078 C 
ATOM     23  C   UNL     1       0.695  -5.516  -6.541  0.00  0.00    -0.015 C 
ATOM     24  C   UNL     1       1.984  -5.433  -7.362  0.00  0.00    -0.010 C 
ATOM     25  C   UNL     1       2.417  -3.968  -7.467  0.00  0.00    -0.015 C 
ATOM     26  C   UNL     1       2.587  -3.390  -6.061  0.00  0.00    -0.078 C 
ATOM     27  H   UNL     1       0.597  -2.992  -5.858  0.00  0.00    -0.081 HD
BRANCH  24  28
ATOM     28  C   UNL     1       1.736  -5.995  -8.764  0.00  0.00    +0.038 C 
BRANCH  28  29
ATOM     29  C   UNL     1       3.034  -6.025  -9.530  0.00  0.00    -0.047 A 
ATOM     30  C   UNL     1       3.418  -4.931 -10.282  0.00  0.00    +0.003 A 
ATOM     31  C   UNL     1       4.608  -4.960 -10.985  0.00  0.00    +0.000 A 
ATOM     32  C   UNL     1       5.414  -6.082 -10.935  0.00  0.00    +0.000 A 
ATOM     33  C   UNL     1       5.030  -7.176 -10.182  0.00  0.00    +0.000 A 
ATOM     34  C   UNL     1       3.842  -7.146  -9.476  0.00  0.00    +0.003 A 
ENDBRANCH  28  29
ENDBRANCH  24  28
ENDBRANCH  20  21
ENDBRANCH   2  20
TORSDOF 7
