REMARK  Name = ZINC39465167
REMARK  8 active torsions:
REMARK  status: ('A' for Active; 'I' for Inactive)
REMARK    1  A    between atoms: C_1  and  C_2
REMARK    2  A    between atoms: C_2  and  C_3
REMARK    3  A    between atoms: C_2  and  S_4
REMARK    4  A    between atoms: S_4  and  C_7
REMARK    5  A    between atoms: C_12  and  S_13
REMARK    6  A    between atoms: S_13  and  C_16
REMARK    7  A    between atoms: P_26  and  S_32
REMARK    8  A    between atoms: S_32  and  C_33
REMARK                            x       y       z     vdW  Elec       q    Type
REMARK                         _______ _______ _______ _____ _____    ______ ____
ROOT
ATOM      1  C   UNL     1      -3.128   0.807  -1.764  0.00  0.00    +0.114 A 
ATOM      2  C   UNL     1      -3.854   0.500  -2.898  0.00  0.00    +0.033 A 
ATOM      3  C   UNL     1      -3.869   1.372  -3.975  0.00  0.00    -0.039 A 
ATOM      4  C   UNL     1      -3.158   2.551  -3.917  0.00  0.00    -0.022 A 
ATOM      5  C   UNL     1      -2.430   2.858  -2.776  0.00  0.00    +0.035 A 
ATOM      6  C   UNL     1      -2.420   1.992  -1.701  0.00  0.00    +0.119 A 
ATOM      7  C   UNL     1      -3.140   3.532  -5.059  0.00  0.00    +0.129 C 
ATOM      8  C   UNL     1      -3.271   4.952  -4.501  0.00  0.00    +0.195 C 
ATOM      9  O   UNL     1      -3.134   5.890  -5.588  0.00  0.00    -0.307 OA
ATOM     10  P   UNL     1      -4.033   5.658  -6.923  0.00  0.00    +0.341 P 
ATOM     11  O   UNL     1      -5.401   6.183  -6.716  0.00  0.00    -0.259 OA
ATOM     12  N   UNL     1      -4.077   4.021  -7.151  0.00  0.00    -0.170 NA
ATOM     13  N   UNL     1      -4.217   3.257  -6.010  0.00  0.00    -0.225 NA
ATOM     14  C   UNL     1      -4.239   1.834  -6.382  0.00  0.00    +0.108 C 
ATOM     15  C   UNL     1      -4.676   0.999  -5.193  0.00  0.00    +0.052 C 
ATOM     16  H   UNL     1      -4.018   3.628  -8.036  0.00  0.00    +0.152 HD
ENDROOT
BRANCH   1  17
ATOM     17  S   UNL     1      -3.111  -0.306  -0.398  0.00  0.00    +0.001 S 
ATOM     18  O   UNL     1      -1.863  -0.076   0.242  0.00  0.00    -0.169 OA
ATOM     19  O   UNL     1      -3.413  -1.576  -0.961  0.00  0.00    -0.169 OA
BRANCH  17  21
ATOM     20  C   UNL     1      -5.751   0.370  -0.160  0.00  0.00    +0.032 C 
ATOM     21  C   UNL     1      -4.471   0.244   0.669  0.00  0.00    +0.130 C 
ATOM     22  C   UNL     1      -4.687  -0.778   1.788  0.00  0.00    +0.032 C 
ENDBRANCH  17  21
ENDBRANCH   1  17
BRANCH   6  23
ATOM     23  S   UNL     1      -1.499   2.394  -0.253  0.00  0.00    +0.027 S 
ATOM     24  O   UNL     1      -0.570   1.338  -0.056  0.00  0.00    -0.164 OA
ATOM     25  O   UNL     1      -1.094   3.749  -0.393  0.00  0.00    -0.164 OA
BRANCH  23  26
ATOM     26  C   UNL     1      -2.618   2.341   1.107  0.00  0.00    +0.094 A 
ATOM     27  C   UNL     1      -3.697   3.204   1.149  0.00  0.00    +0.027 A 
ATOM     28  C   UNL     1      -4.575   3.163   2.216  0.00  0.00    +0.002 A 
ATOM     29  C   UNL     1      -4.374   2.258   3.241  0.00  0.00    +0.000 A 
ATOM     30  C   UNL     1      -3.295   1.394   3.199  0.00  0.00    +0.002 A 
ATOM     31  C   UNL     1      -2.420   1.433   2.130  0.00  0.00    +0.027 A 
ENDBRANCH  23  26
ENDBRANCH   6  23
BRANCH  10  32
ATOM     32  S   UNL     1      -3.129   6.609  -8.588  0.00  0.00    -0.056 S 
ATOM     33  C   UNL     1      -3.065   8.359  -8.114  0.00  0.00    +0.096 C 
ENDBRANCH  10  32
TORSDOF 5
