REMARK  Name = ZINC09470114
REMARK  2 active torsions:
REMARK  status: ('A' for Active; 'I' for Inactive)
REMARK    1  A    between atoms: C_15  and  C_17
REMARK    2  A    between atoms: N_22  and  C_25
REMARK                            x       y       z     vdW  Elec       q    Type
REMARK                         _______ _______ _______ _____ _____    ______ ____
ROOT
ATOM      1  C   UNL     1      -8.587   0.152   1.118  0.00  0.00    +0.001 A 
ATOM      2  C   UNL     1      -8.278  -0.237  -0.173  0.00  0.00    +0.000 A 
ATOM      3  C   UNL     1      -7.105   0.195  -0.770  0.00  0.00    +0.006 A 
ATOM      4  C   UNL     1      -6.254   1.023  -0.097  0.00  0.00    -0.021 A 
ATOM      5  C   UNL     1      -6.549   1.417   1.228  0.00  0.00    -0.019 A 
ATOM      6  C   UNL     1      -7.733   0.975   1.822  0.00  0.00    +0.008 A 
ATOM      7  C   UNL     1      -5.630   2.303   1.970  0.00  0.00    +0.022 C 
ATOM      8  C   UNL     1      -4.357   2.440   1.548  0.00  0.00    +0.054 C 
ATOM      9  C   UNL     1      -4.957   1.496  -0.699  0.00  0.00    +0.100 C 
ATOM     10  C   UNL     1      -4.346   0.428  -1.616  0.00  0.00    +0.113 C 
ATOM     11  C   UNL     1      -2.817   0.519  -1.317  0.00  0.00    +0.118 C 
ATOM     12  C   UNL     1      -2.743   1.066   0.115  0.00  0.00    +0.155 C 
ATOM     13  C   UNL     1      -2.366   1.568  -2.310  0.00  0.00    +0.232 C 
ATOM     14  O   UNL     1      -1.350   2.225  -2.237  0.00  0.00    -0.274 OA
ATOM     15  N   UNL     1      -3.285   1.647  -3.286  0.00  0.00    -0.210 N 
ATOM     16  C   UNL     1      -4.400   0.939  -3.047  0.00  0.00    +0.232 C 
ATOM     17  O   UNL     1      -5.298   0.741  -3.838  0.00  0.00    -0.274 OA
ATOM     18  N   UNL     1      -3.913   1.983   0.169  0.00  0.00    -0.383 NA
ATOM     19  H   UNL     1      -3.587   2.846  -0.280  0.00  0.00    +0.127 HD
ENDROOT
BRANCH  15  20
ATOM     20  C   UNL     1      -3.097   2.403  -4.452  0.00  0.00    +0.047 A 
ATOM     21  C   UNL     1      -2.125   2.033  -5.371  0.00  0.00    +0.044 A 
ATOM     22  C   UNL     1      -1.944   2.777  -6.521  0.00  0.00    +0.044 A 
ATOM     23  C   UNL     1      -2.724   3.896  -6.753  0.00  0.00    +0.040 A 
ATOM     24  C   UNL     1      -3.691   4.270  -5.836  0.00  0.00    +0.044 A 
ATOM     25  C   UNL     1      -3.878   3.526  -4.686  0.00  0.00    +0.044 A 
ATOM     26 CL   UNL     1      -4.667   5.675  -6.129  0.00  0.00    -0.083 Cl
ATOM     27 CL   UNL     1      -0.732   2.311  -7.674  0.00  0.00    -0.083 Cl
ENDBRANCH  15  20
BRANCH  12  28
ATOM     28  C   UNL     1      -1.609   2.052   0.226  0.00  0.00    +0.230 C 
ATOM     29  O   UNL     1      -1.835   3.243   0.185  0.00  0.00    -0.274 OA
ATOM     30  N   UNL     1      -0.344   1.610   0.371  0.00  0.00    -0.328 N 
ATOM     31  H   UNL     1      -0.164   0.658   0.405  0.00  0.00    +0.145 HD
ATOM     32  H   UNL     1       0.387   2.245   0.439  0.00  0.00    +0.145 HD
ENDBRANCH  12  28
TORSDOF 2
