REMARK  Name = ZINC39949384
REMARK  8 active torsions:
REMARK  status: ('A' for Active; 'I' for Inactive)
REMARK    1  A    between atoms: C_1  and  C_2
REMARK    2  A    between atoms: C_3  and  C_24
REMARK    3  A    between atoms: C_4  and  N_14
REMARK    4  A    between atoms: C_6  and  C_8
REMARK    5  A    between atoms: N_14  and  N_15
REMARK    6  A    between atoms: C_16  and  C_17
REMARK    7  A    between atoms: C_20  and  O_23
REMARK    8  A    between atoms: C_24  and  C_25
REMARK                            x       y       z     vdW  Elec       q    Type
REMARK                         _______ _______ _______ _____ _____    ______ ____
ROOT
ATOM      1  C   UNL     1      -1.519   1.265   0.129  0.00  0.00    +0.066 C 
ATOM      2  C   UNL     1      -0.936  -0.123   0.054  0.00  0.00    +0.047 A 
ATOM      3  C   UNL     1      -1.063  -0.872  -1.101  0.00  0.00    +0.019 A 
ATOM      4  C   UNL     1      -0.508  -2.154  -1.128  0.00  0.00    +0.146 A 
ATOM      5  N   UNL     1       0.120  -2.608  -0.048  0.00  0.00    -0.211 NA
ATOM      6  C   UNL     1       0.220  -1.857   1.040  0.00  0.00    +0.162 A 
ATOM      7  N   UNL     1      -0.292  -0.635   1.091  0.00  0.00    -0.232 NA
ENDROOT
BRANCH   6   8
ATOM      8  C   UNL     1       0.928  -2.395   2.227  0.00  0.00    +0.019 A 
ATOM      9  C   UNL     1       1.040  -1.624   3.383  0.00  0.00    +0.011 A 
ATOM     10  C   UNL     1       1.699  -2.130   4.485  0.00  0.00    +0.001 A 
ATOM     11  C   UNL     1       2.249  -3.399   4.443  0.00  0.00    +0.000 A 
ATOM     12  C   UNL     1       2.141  -4.168   3.298  0.00  0.00    +0.001 A 
ATOM     13  C   UNL     1       1.479  -3.675   2.193  0.00  0.00    +0.011 A 
ENDBRANCH   6   8
BRANCH   4  14
ATOM     14  N   UNL     1      -0.612  -2.941  -2.263  0.00  0.00    -0.221 N 
ATOM     15  H   UNL     1      -1.073  -2.603  -3.047  0.00  0.00    +0.176 HD
BRANCH  14  16
ATOM     16  N   UNL     1      -0.052  -4.225  -2.279  0.00  0.00    -0.189 NA
ATOM     17  C   UNL     1      -0.046  -4.917  -3.377  0.00  0.00    +0.138 C 
BRANCH  17  18
ATOM     18  C   UNL     1      -0.062  -4.230  -4.682  0.00  0.00    -0.005 A 
ATOM     19  C   UNL     1      -0.274  -4.959  -5.855  0.00  0.00    +0.013 A 
ATOM     20  C   UNL     1      -0.288  -4.313  -7.072  0.00  0.00    +0.046 A 
ATOM     21  C   UNL     1      -0.092  -2.939  -7.134  0.00  0.00    +0.117 A 
ATOM     22  C   UNL     1       0.119  -2.211  -5.970  0.00  0.00    +0.046 A 
ATOM     23  C   UNL     1       0.129  -2.848  -4.748  0.00  0.00    +0.013 A 
BRANCH  21  24
ATOM     24  O   UNL     1      -0.106  -2.306  -8.336  0.00  0.00    -0.507 OA
ATOM     25  H   UNL     1      -0.980  -1.995  -8.606  0.00  0.00    +0.292 HD
ENDBRANCH  21  24
ENDBRANCH  17  18
ENDBRANCH  14  16
ENDBRANCH   4  14
BRANCH   3  26
ATOM     26  C   UNL     1      -1.785  -0.319  -2.303  0.00  0.00    +0.067 C 
BRANCH  26  27
ATOM     27  C   UNL     1      -0.804   0.405  -3.188  0.00  0.00    -0.030 C 
ATOM     28  C   UNL     1      -0.692   0.073  -4.451  0.00  0.00    +0.004 C 
ENDBRANCH  26  27
ENDBRANCH   3  26
TORSDOF 7
