REMARK  Name = ZINC32213265
REMARK  5 active torsions:
REMARK  status: ('A' for Active; 'I' for Inactive)
REMARK    1  A    between atoms: C_6  and  C_7
REMARK    2  A    between atoms: C_7  and  C_9
REMARK    3  A    between atoms: C_7  and  O_19
REMARK    4  A    between atoms: C_9  and  N_10
REMARK    5  A    between atoms: N_10  and  C_11
REMARK                            x       y       z     vdW  Elec       q    Type
REMARK                         _______ _______ _______ _____ _____    ______ ____
ROOT
ATOM      1  C   UNL     1       4.999   4.121  -0.021  0.00  0.00    +0.162 C 
ENDROOT
BRANCH   1   7
ATOM      2  C   UNL     1       4.720   6.409  -0.994  0.00  0.00    +0.010 A 
ATOM      3  C   UNL     1       4.703   7.786  -0.877  0.00  0.00    +0.050 A 
ATOM      4  C   UNL     1       4.949   8.381   0.349  0.00  0.00    +0.166 A 
ATOM      5  C   UNL     1       5.213   7.588   1.464  0.00  0.00    +0.167 A 
ATOM      6  C   UNL     1       5.222   6.209   1.341  0.00  0.00    +0.055 A 
ATOM      7  C   UNL     1       4.982   5.622   0.112  0.00  0.00    -0.014 A 
ATOM      8  O   UNL     1       5.419   8.402   2.539  0.00  0.00    -0.453 OA
ATOM      9  C   UNL     1       4.878   9.682   2.163  0.00  0.00    +0.466 C 
ATOM     10  O   UNL     1       4.991   9.692   0.727  0.00  0.00    -0.453 OA
ENDBRANCH   1   7
BRANCH   1  11
ATOM     11  O   UNL     1       5.632   3.758  -1.249  0.00  0.00    -0.386 OA
ATOM     12  H   UNL     1       5.738   2.698  -1.522  0.00  0.00    +0.210 HD
ENDBRANCH   1  11
BRANCH   1  13
ATOM     13  C   UNL     1       3.563   3.591  -0.011  0.00  0.00    +0.137 C 
BRANCH  13  14
ATOM     14  N   UNL     1       3.583   2.126  -0.019  0.00  0.00    -0.341 N 
ATOM     15  H   UNL     1       4.543   1.589  -0.031  0.00  0.00    +0.146 HD
BRANCH  14  16
ATOM     16  C   UNL     1       2.382   1.411  -0.013  0.00  0.00    +0.029 A 
ATOM     17  C   UNL     1       1.169   2.088   0.002  0.00  0.00    +0.026 A 
ATOM     18  C   UNL     1      -0.017   1.380   0.010  0.00  0.00    +0.041 A 
ATOM     19  C   UNL     1       0.002  -0.004   0.002  0.00  0.00    +0.142 A 
ATOM     20  C   UNL     1       1.210  -0.682  -0.014  0.00  0.00    +0.078 A 
ATOM     21  C   UNL     1       2.399   0.023  -0.021  0.00  0.00    +0.045 A 
ATOM     22 CL   UNL     1       1.231  -2.418  -0.024  0.00  0.00    -0.081 Cl
ATOM     23  F   UNL     1      -1.159  -0.695   0.009  0.00  0.00    -0.204 F 
ENDBRANCH  14  16
ENDBRANCH  13  14
ENDBRANCH   1  13
TORSDOF 5
