REMARK  Name = ZINC02403419
REMARK  8 active torsions:
REMARK  status: ('A' for Active; 'I' for Inactive)
REMARK    1  A    between atoms: C_1  and  C_2
REMARK    2  A    between atoms: C_7  and  C_8
REMARK    3  A    between atoms: N_9  and  N_10
REMARK    4  A    between atoms: C_11  and  N_34
REMARK    5  A    between atoms: C_12  and  C_23
REMARK    6  A    between atoms: N_25  and  C_26
REMARK    7  A    between atoms: C_26  and  C_27
REMARK    8  A    between atoms: C_27  and  C_28
REMARK                            x       y       z     vdW  Elec       q    Type
REMARK                         _______ _______ _______ _____ _____    ______ ____
ROOT
ATOM      1  N   UNL     1      -3.988   0.100  -1.367  0.00  0.00    -0.198 N 
ATOM      2  C   UNL     1      -3.010   0.830  -1.976  0.00  0.00    +0.134 A 
ATOM      3  C   UNL     1      -2.131   1.347  -1.030  0.00  0.00    +0.105 A 
ATOM      4  C   UNL     1      -2.610   0.887   0.283  0.00  0.00    +0.124 A 
ATOM      5  C   UNL     1      -3.811   0.094   0.004  0.00  0.00    +0.183 A 
ATOM      6  N   UNL     1      -4.471  -0.454   1.002  0.00  0.00    -0.224 NA
ATOM      7  C   UNL     1      -4.046  -0.278   2.259  0.00  0.00    +0.092 A 
ATOM      8  C   UNL     1      -4.746  -0.860   3.332  0.00  0.00    +0.030 A 
ATOM      9  C   UNL     1      -4.307  -0.675   4.607  0.00  0.00    +0.002 A 
ATOM     10  C   UNL     1      -3.169   0.084   4.870  0.00  0.00    +0.002 A 
ATOM     11  C   UNL     1      -2.466   0.663   3.860  0.00  0.00    +0.030 A 
ATOM     12  C   UNL     1      -2.889   0.495   2.528  0.00  0.00    +0.090 A 
ATOM     13  N   UNL     1      -2.204   1.060   1.525  0.00  0.00    -0.241 NA
ENDROOT
BRANCH   3  14
ATOM     14  C   UNL     1      -0.958   2.179  -1.291  0.00  0.00    +0.250 C 
ATOM     15  O   UNL     1      -1.066   3.392  -1.318  0.00  0.00    -0.270 OA
ATOM     16  N   UNL     1       0.243   1.605  -1.501  0.00  0.00    -0.311 N 
ATOM     17  H   UNL     1       0.328   0.639  -1.479  0.00  0.00    +0.149 HD
BRANCH  16  18
ATOM     18  C   UNL     1       1.417   2.439  -1.768  0.00  0.00    +0.109 C 
BRANCH  18  19
ATOM     19  C   UNL     1       2.641   1.544  -1.975  0.00  0.00    +0.049 C 
BRANCH  19  20
ATOM     20  C   UNL     1       3.849   2.402  -2.250  0.00  0.00    -0.072 C 
ATOM     21  C   UNL     1       4.614   2.711  -1.252  0.00  0.00    -0.028 C 
ATOM     22  C   UNL     1       5.844   3.563  -1.368  0.00  0.00    +0.027 C 
ATOM     23  C   UNL     1       6.291   3.648  -2.829  0.00  0.00    +0.004 C 
ATOM     24  C   UNL     1       5.074   4.017  -3.687  0.00  0.00    +0.005 C 
ATOM     25  C   UNL     1       4.094   2.840  -3.664  0.00  0.00    +0.030 C 
ENDBRANCH  19  20
ENDBRANCH  18  19
ENDBRANCH  16  18
ENDBRANCH   3  14
BRANCH   2  26
ATOM     26  N   UNL     1      -2.908   1.025  -3.329  0.00  0.00    -0.342 N 
ATOM     27  H   UNL     1      -2.182   1.558  -3.689  0.00  0.00    +0.144 HD
ATOM     28  H   UNL     1      -3.562   0.631  -3.927  0.00  0.00    +0.144 HD
ENDBRANCH   2  26
BRANCH   1  30
ATOM     29  C   UNL     1      -4.876  -1.780  -2.435  0.00  0.00    +0.141 C 
ATOM     30  N   UNL     1      -5.029  -0.554  -2.038  0.00  0.00    -0.171 NA
BRANCH  29  37
ATOM     31  C   UNL     1      -7.436  -0.465  -2.726  0.00  0.00    +0.044 C 
ATOM     32  C   UNL     1      -7.213  -1.845  -3.289  0.00  0.00    -0.042 A 
ATOM     33  C   UNL     1      -8.233  -2.495  -3.952  0.00  0.00    +0.004 A 
ATOM     34  C   UNL     1      -8.030  -3.761  -4.470  0.00  0.00    +0.000 A 
ATOM     35  C   UNL     1      -6.803  -4.386  -4.327  0.00  0.00    +0.001 A 
ATOM     36  C   UNL     1      -5.772  -3.746  -3.672  0.00  0.00    +0.010 A 
ATOM     37  C   UNL     1      -5.972  -2.469  -3.142  0.00  0.00    -0.002 A 
ENDBRANCH  29  37
ENDBRANCH   1  30
TORSDOF 7
