REMARK  Name = ZINC03619261
REMARK  13 active torsions:
REMARK  status: ('A' for Active; 'I' for Inactive)
REMARK    1  A    between atoms: C_1  and  C_2
REMARK    2  A    between atoms: C_3  and  C_12
REMARK    3  A    between atoms: C_12  and  C_13
REMARK    4  A    between atoms: C_13  and  N_14
REMARK    5  A    between atoms: C_15  and  C_17
REMARK    6  A    between atoms: C_17  and  N_25
REMARK    7  A    between atoms: C_18  and  C_19
REMARK    8  A    between atoms: C_26  and  C_28
REMARK    9  A    between atoms: C_31  and  O_34
REMARK   10  A    between atoms: O_34  and  C_35
REMARK   11  A    between atoms: C_35  and  C_36
REMARK   12  A    between atoms: C_36  and  C_37
REMARK   13  A    between atoms: C_36  and  C_38
REMARK                            x       y       z     vdW  Elec       q    Type
REMARK                         _______ _______ _______ _____ _____    ______ ____
ROOT
ATOM      1  C   UNL     1       0.593  -2.042  -0.859  0.00  0.00    +0.097 C 
ATOM      2  C   UNL     1       0.048  -2.820   0.104  0.00  0.00    +0.036 C 
ENDROOT
BRANCH   2   3
ATOM      3  C   UNL     1       0.221  -4.280   0.057  0.00  0.00    -0.023 A 
ATOM      4  C   UNL     1       0.401  -4.927  -1.170  0.00  0.00    +0.008 A 
ATOM      5  C   UNL     1       0.567  -6.295  -1.206  0.00  0.00    +0.001 A 
ATOM      6  C   UNL     1       0.547  -7.029  -0.033  0.00  0.00    +0.000 A 
ATOM      7  C   UNL     1       0.364  -6.397   1.184  0.00  0.00    +0.001 A 
ATOM      8  C   UNL     1       0.201  -5.029   1.238  0.00  0.00    +0.008 A 
ENDBRANCH   2   3
BRANCH   1  10
ATOM      9  N   UNL     1      -0.525  -0.059   0.023  0.00  0.00    -0.310 N 
ATOM     10  C   UNL     1       0.292  -0.603  -0.900  0.00  0.00    +0.258 C 
ATOM     11  O   UNL     1       0.782   0.096  -1.766  0.00  0.00    -0.269 OA
ATOM     12  H   UNL     1      -0.916  -0.617   0.714  0.00  0.00    +0.149 HD
BRANCH   9  13
ATOM     13  C   UNL     1      -0.824   1.375  -0.017  0.00  0.00    +0.109 C 
BRANCH  13  14
ATOM     14  C   UNL     1      -1.769   1.731   1.132  0.00  0.00    +0.056 C 
BRANCH  14  17
ATOM     15  C   UNL     1      -0.177   3.972   2.574  0.00  0.00    +0.063 C 
ATOM     16  C   UNL     1      -1.395   4.181   1.710  0.00  0.00    +0.017 A 
ATOM     17  C   UNL     1      -2.077   3.206   1.091  0.00  0.00    -0.018 A 
ATOM     18  C   UNL     1      -3.181   3.846   0.371  0.00  0.00    +0.003 A 
ATOM     19  C   UNL     1      -4.217   3.372  -0.436  0.00  0.00    +0.010 A 
ATOM     20  C   UNL     1      -5.114   4.251  -0.974  0.00  0.00    +0.001 A 
ATOM     21  C   UNL     1      -5.002   5.612  -0.726  0.00  0.00    +0.002 A 
ATOM     22  C   UNL     1      -3.987   6.101   0.067  0.00  0.00    +0.026 A 
ATOM     23  C   UNL     1      -3.063   5.224   0.626  0.00  0.00    +0.047 A 
ATOM     24  N   UNL     1      -1.966   5.395   1.440  0.00  0.00    -0.358 N 
ATOM     25  H   UNL     1      -1.648   6.248   1.774  0.00  0.00    +0.166 HD
ENDBRANCH  14  17
ENDBRANCH  13  14
ENDBRANCH   9  13
ENDBRANCH   1  10
BRANCH   1  26
ATOM     26  N   UNL     1       1.441  -2.606  -1.816  0.00  0.00    -0.277 N 
ATOM     27  C   UNL     1       1.167  -2.462  -3.128  0.00  0.00    +0.248 C 
ATOM     28  O   UNL     1       0.221  -1.784  -3.481  0.00  0.00    -0.270 OA
ATOM     29  H   UNL     1       2.226  -3.102  -1.536  0.00  0.00    +0.155 HD
BRANCH  27  30
ATOM     30  C   UNL     1       2.016  -3.125  -4.136  0.00  0.00    +0.037 A 
ATOM     31  C   UNL     1       3.173  -3.804  -3.742  0.00  0.00    +0.016 A 
ATOM     32  C   UNL     1       3.959  -4.426  -4.685  0.00  0.00    +0.046 A 
ATOM     33  C   UNL     1       3.611  -4.371  -6.029  0.00  0.00    +0.121 A 
ATOM     34  C   UNL     1       2.464  -3.692  -6.427  0.00  0.00    +0.046 A 
ATOM     35  C   UNL     1       1.669  -3.072  -5.489  0.00  0.00    +0.016 A 
BRANCH  33  36
ATOM     36  O   UNL     1       4.391  -4.981  -6.957  0.00  0.00    -0.492 OA
BRANCH  36  37
ATOM     37  C   UNL     1       5.555  -5.660  -6.480  0.00  0.00    +0.232 C 
BRANCH  37  38
ATOM     38  C   UNL     1       6.303  -6.281  -7.661  0.00  0.00    +0.020 C 
ATOM     39  C   UNL     1       7.612  -6.901  -7.167  0.00  0.00    +0.010 C 
ATOM     40  C   UNL     1       5.434  -7.367  -8.301  0.00  0.00    +0.010 C 
ENDBRANCH  37  38
ENDBRANCH  36  37
ENDBRANCH  33  36
ENDBRANCH  27  30
ENDBRANCH   1  26
TORSDOF 10
