REMARK  Name = ZINC58849121
REMARK  11 active torsions:
REMARK  status: ('A' for Active; 'I' for Inactive)
REMARK    1  A    between atoms: C_1  and  C_2
REMARK    2  A    between atoms: C_2  and  O_3
REMARK    3  A    between atoms: O_3  and  C_4
REMARK    4  A    between atoms: C_9  and  N_10
REMARK    5  A    between atoms: N_10  and  S_11
REMARK    6  A    between atoms: S_11  and  C_14
REMARK    7  A    between atoms: C_27  and  C_30
REMARK    8  A    between atoms: C_33  and  O_38
REMARK    9  A    between atoms: C_35  and  O_36
REMARK   10  A    between atoms: O_36  and  C_37
REMARK   11  A    between atoms: O_38  and  C_39
REMARK                            x       y       z     vdW  Elec       q    Type
REMARK                         _______ _______ _______ _____ _____    ______ ____
ROOT
ATOM      1  C   UNL     1      -4.992  -2.145   2.503  0.00  0.00    +0.109 A 
ATOM      2  C   UNL     1      -4.497  -3.286   3.107  0.00  0.00    +0.030 A 
ATOM      3  C   UNL     1      -4.273  -3.298   4.469  0.00  0.00    +0.025 A 
ATOM      4  C   UNL     1      -4.541  -2.166   5.231  0.00  0.00    +0.031 A 
ATOM      5  C   UNL     1      -5.025  -1.017   4.625  0.00  0.00    -0.018 A 
ATOM      6  C   UNL     1      -5.249  -1.017   3.256  0.00  0.00    +0.034 A 
ATOM      7  C   UNL     1      -5.287   0.229   5.402  0.00  0.00    +0.049 C 
ATOM      8  C   UNL     1      -6.758   0.447   5.645  0.00  0.00    -0.023 C 
ATOM      9  C   UNL     1      -6.948   0.975   6.829  0.00  0.00    -0.030 C 
ATOM     10  C   UNL     1      -5.633   1.180   7.546  0.00  0.00    +0.033 C 
ATOM     11  C   UNL     1      -4.651   0.255   6.790  0.00  0.00    +0.029 C 
ATOM     12  C   UNL     1      -4.642  -1.092   7.483  0.00  0.00    +0.108 C 
ATOM     13  N   UNL     1      -4.328  -2.199   6.604  0.00  0.00    -0.336 N 
ATOM     14  H   UNL     1      -3.973  -3.013   6.995  0.00  0.00    +0.147 HD
ENDROOT
BRANCH  12  15
ATOM     15  C   UNL     1      -5.992  -1.314   8.115  0.00  0.00    +0.015 A 
ATOM     16  C   UNL     1      -6.192  -1.000   9.446  0.00  0.00    +0.012 A 
ATOM     17  C   UNL     1      -7.428  -1.202  10.028  0.00  0.00    +0.046 A 
ATOM     18  C   UNL     1      -8.473  -1.722   9.277  0.00  0.00    +0.124 A 
ATOM     19  C   UNL     1      -8.276  -2.038   7.942  0.00  0.00    +0.091 A 
ATOM     20  C   UNL     1      -7.036  -1.829   7.359  0.00  0.00    +0.128 A 
BRANCH  20  21
ATOM     21  O   UNL     1      -6.841  -2.132   6.048  0.00  0.00    -0.495 OA
ATOM     22  C   UNL     1      -7.959  -2.658   5.331  0.00  0.00    +0.277 C 
ENDBRANCH  20  21
BRANCH  18  23
ATOM     23  O   UNL     1      -9.689  -1.921   9.851  0.00  0.00    -0.495 OA
ATOM     24  C   UNL     1      -9.821  -1.573  11.230  0.00  0.00    +0.277 C 
ENDBRANCH  18  23
ENDBRANCH  12  15
BRANCH   1  25
ATOM     25  S   UNL     1      -5.288  -2.128   0.766  0.00  0.00    +0.072 S 
ATOM     26  O   UNL     1      -6.259  -1.119   0.529  0.00  0.00    -0.150 OA
ATOM     27  O   UNL     1      -5.483  -3.480   0.374  0.00  0.00    -0.150 OA
BRANCH  25  28
ATOM     28  N   UNL     1      -3.890  -1.621   0.036  0.00  0.00    -0.213 N 
ATOM     29  H   UNL     1      -3.891  -0.817  -0.507  0.00  0.00    +0.174 HD
BRANCH  28  35
ATOM     30  C   UNL     1      -1.484  -1.690   0.280  0.00  0.00    +0.143 A 
ATOM     31  C   UNL     1      -0.318  -2.418   0.452  0.00  0.00    +0.047 A 
ATOM     32  C   UNL     1      -0.370  -3.797   0.541  0.00  0.00    +0.004 A 
ATOM     33  C   UNL     1      -1.584  -4.454   0.459  0.00  0.00    +0.002 A 
ATOM     34  C   UNL     1      -2.752  -3.735   0.288  0.00  0.00    +0.028 A 
ATOM     35  C   UNL     1      -2.708  -2.351   0.203  0.00  0.00    +0.090 A 
BRANCH  30  36
ATOM     36  O   UNL     1      -1.435  -0.334   0.192  0.00  0.00    -0.490 OA
BRANCH  36  38
ATOM     37  C   UNL     1      -0.289   1.794   0.160  0.00  0.00    +0.048 C 
ATOM     38  C   UNL     1      -0.145   0.275   0.278  0.00  0.00    +0.226 C 
ENDBRANCH  36  38
ENDBRANCH  30  36
ENDBRANCH  28  35
ENDBRANCH  25  28
ENDBRANCH   1  25
TORSDOF 8
