REMARK  Name = ZINC44599168
REMARK  19 active torsions:
REMARK  status: ('A' for Active; 'I' for Inactive)
REMARK    1  A    between atoms: C_1  and  C_2
REMARK    2  A    between atoms: C_2  and  O_3
REMARK    3  A    between atoms: O_3  and  C_4
REMARK    4  A    between atoms: C_7  and  S_26
REMARK    5  A    between atoms: C_9  and  C_10
REMARK    6  A    between atoms: C_18  and  C_22
REMARK    7  A    between atoms: N_20  and  C_21
REMARK    8  A    between atoms: C_22  and  C_23
REMARK    9  A    between atoms: C_22  and  C_24
REMARK   10  A    between atoms: C_22  and  C_25
REMARK   11  A    between atoms: S_26  and  N_29
REMARK   12  A    between atoms: N_29  and  C_30
REMARK   13  A    between atoms: N_29  and  C_35
REMARK   14  A    between atoms: C_30  and  C_31
REMARK   15  A    between atoms: C_31  and  C_33
REMARK   16  A    between atoms: C_31  and  O_34
REMARK   17  A    between atoms: C_35  and  C_36
REMARK   18  A    between atoms: C_36  and  C_38
REMARK   19  A    between atoms: C_36  and  O_39
REMARK                            x       y       z     vdW  Elec       q    Type
REMARK                         _______ _______ _______ _____ _____    ______ ____
ROOT
ATOM      1  C   UNL     1      -1.498  -1.847   0.006  0.00  0.00    +0.131 A 
ATOM      2  C   UNL     1      -0.389  -2.679  -0.003  0.00  0.00    +0.048 A 
ATOM      3  C   UNL     1      -0.553  -4.050  -0.009  0.00  0.00    +0.032 A 
ATOM      4  C   UNL     1      -1.823  -4.604  -0.006  0.00  0.00    +0.106 A 
ATOM      5  C   UNL     1      -2.936  -3.791   0.003  0.00  0.00    +0.043 A 
ATOM      6  C   UNL     1      -2.784  -2.403   0.016  0.00  0.00    +0.061 A 
ENDROOT
BRANCH   6   7
ATOM      7  C   UNL     1      -3.972  -1.526   0.032  0.00  0.00    +0.145 A 
ATOM      8  N   UNL     1      -5.216  -2.095   0.047  0.00  0.00    -0.305 N 
ATOM      9  H   UNL     1      -5.306  -3.061   0.046  0.00  0.00    +0.170 HD
ATOM     10  C   UNL     1      -6.322  -1.317   0.063  0.00  0.00    +0.278 A 
ATOM     11  O   UNL     1      -7.434  -1.815   0.077  0.00  0.00    -0.265 OA
ATOM     12  C   UNL     1      -6.156   0.087   0.064  0.00  0.00    +0.151 A 
ATOM     13  C   UNL     1      -4.858   0.613   0.048  0.00  0.00    +0.120 A 
ATOM     14  N   UNL     1      -3.803  -0.226   0.038  0.00  0.00    -0.225 NA
ATOM     15  C   UNL     1      -4.983   2.016   0.053  0.00  0.00    +0.094 A 
ATOM     16  N   UNL     1      -6.252   2.323   0.070  0.00  0.00    -0.173 NA
ATOM     17  N   UNL     1      -7.016   1.149   0.077  0.00  0.00    -0.260 N 
ATOM     18  C   UNL     1      -8.479   1.073   0.096  0.00  0.00    +0.173 C 
BRANCH  15  19
ATOM     19  C   UNL     1      -3.842   3.000   0.041  0.00  0.00    +0.008 C 
ATOM     20  C   UNL     1      -3.001   2.789  -1.220  0.00  0.00    +0.017 C 
ATOM     21  C   UNL     1      -4.397   4.426   0.050  0.00  0.00    +0.017 C 
ATOM     22  C   UNL     1      -2.969   2.784   1.278  0.00  0.00    +0.017 C 
ENDBRANCH  15  19
ENDBRANCH   6   7
BRANCH   4  23
ATOM     23  S   UNL     1      -2.016  -6.355  -0.014  0.00  0.00    +0.061 S 
ATOM     24  O   UNL     1      -3.301  -6.620  -0.560  0.00  0.00    -0.153 OA
ATOM     25  O   UNL     1      -0.825  -6.893  -0.574  0.00  0.00    -0.153 OA
BRANCH  23  26
ATOM     26  N   UNL     1      -2.062  -6.850   1.566  0.00  0.00    -0.172 NA
BRANCH  26  27
ATOM     27  C   UNL     1      -3.343  -6.930   2.271  0.00  0.00    +0.140 C 
BRANCH  27  28
ATOM     28  C   UNL     1      -3.882  -8.360   2.189  0.00  0.00    +0.127 C 
ATOM     29  C   UNL     1      -5.276  -8.415   2.817  0.00  0.00    +0.039 C 
BRANCH  28  30
ATOM     30  O   UNL     1      -3.006  -9.240   2.896  0.00  0.00    -0.391 OA
ATOM     31  H   UNL     1      -2.906  -9.027   3.833  0.00  0.00    +0.210 HD
ENDBRANCH  28  30
ENDBRANCH  27  28
ENDBRANCH  26  27
BRANCH  26  32
ATOM     32  C   UNL     1      -0.821  -7.208   2.257  0.00  0.00    +0.140 C 
BRANCH  32  33
ATOM     33  C   UNL     1      -0.302  -5.996   3.034  0.00  0.00    +0.127 C 
ATOM     34  C   UNL     1       1.056  -6.331   3.654  0.00  0.00    +0.039 C 
BRANCH  33  35
ATOM     35  O   UNL     1      -1.228  -5.661   4.069  0.00  0.00    -0.391 OA
ATOM     36  H   UNL     1      -0.963  -4.900   4.603  0.00  0.00    +0.210 HD
ENDBRANCH  33  35
ENDBRANCH  32  33
ENDBRANCH  26  32
ENDBRANCH  23  26
ENDBRANCH   4  23
BRANCH   1  37
ATOM     37  O   UNL     1      -1.339  -0.499   0.012  0.00  0.00    -0.492 OA
BRANCH  37  39
ATOM     38  C   UNL     1      -0.019   1.526   0.010  0.00  0.00    +0.048 C 
ATOM     39  C   UNL     1       0.002  -0.004   0.002  0.00  0.00    +0.226 C 
ENDBRANCH  37  39
ENDBRANCH   1  37
TORSDOF 12
