REMARK  Name = ZINC39561040
REMARK  11 active torsions:
REMARK  status: ('A' for Active; 'I' for Inactive)
REMARK    1  A    between atoms: C_1  and  C_2
REMARK    2  A    between atoms: C_3  and  C_28
REMARK    3  A    between atoms: C_5  and  N_11
REMARK    4  A    between atoms: C_6  and  C_7
REMARK    5  A    between atoms: C_7  and  O_9
REMARK    6  A    between atoms: O_9  and  C_10
REMARK    7  A    between atoms: C_12  and  C_14
REMARK    8  A    between atoms: C_14  and  O_15
REMARK    9  A    between atoms: O_15  and  C_16
REMARK   10  A    between atoms: C_16  and  C_18
REMARK   11  A    between atoms: C_20  and  N_26
REMARK                            x       y       z     vdW  Elec       q    Type
REMARK                         _______ _______ _______ _____ _____    ______ ____
ROOT
ATOM      1  C   UNL     1       0.092  -5.470   2.847  0.00  0.00    +0.328 C 
ENDROOT
BRANCH   1   3
ATOM      2  N   UNL     1       0.055  -3.118   2.081  0.00  0.00    -0.277 N 
ATOM      3  C   UNL     1       0.072  -4.427   1.760  0.00  0.00    +0.255 C 
ATOM      4  O   UNL     1       0.072  -4.765   0.595  0.00  0.00    -0.272 OA
ATOM      5  H   UNL     1       0.055  -2.848   3.013  0.00  0.00    +0.155 HD
BRANCH   2  10
ATOM      6  C   UNL     1      -0.018   1.503   0.010  0.00  0.00    +0.045 C 
ATOM      7  C   UNL     1       0.002  -0.004   0.002  0.00  0.00    -0.025 A 
ATOM      8  C   UNL     1       0.007  -0.712  -1.142  0.00  0.00    -0.008 A 
ATOM      9  S   UNL     1       0.033  -2.400  -0.580  0.00  0.00    -0.078 S 
ATOM     10  C   UNL     1       0.037  -2.159   1.081  0.00  0.00    +0.086 A 
ATOM     11  C   UNL     1       0.024  -0.778   1.223  0.00  0.00    +0.091 A 
ATOM     12  C   UNL     1      -0.007  -0.199  -2.559  0.00  0.00    +0.052 C 
BRANCH  11  13
ATOM     13  C   UNL     1       0.028  -0.139   2.540  0.00  0.00    +0.342 C 
ATOM     14  O   UNL     1      -1.024   0.112   3.097  0.00  0.00    -0.245 OA
BRANCH  13  15
ATOM     15  O   UNL     1       1.198   0.171   3.136  0.00  0.00    -0.464 OA
ATOM     16  C   UNL     1       1.127   0.793   4.420  0.00  0.00    +0.280 C 
ENDBRANCH  13  15
ENDBRANCH  11  13
ENDBRANCH   2  10
ENDBRANCH   1   3
BRANCH   1  17
ATOM     17  O   UNL     1       0.108  -6.772   2.258  0.00  0.00    -0.451 OA
BRANCH  17  18
ATOM     18  C   UNL     1       0.127  -7.824   3.100  0.00  0.00    +0.360 C 
ATOM     19  O   UNL     1       0.129  -7.641   4.301  0.00  0.00    -0.243 OA
BRANCH  18  20
ATOM     20  C   UNL     1       0.144  -9.201   2.562  0.00  0.00    +0.169 A 
ATOM     21  C   UNL     1       0.157 -10.284   3.438  0.00  0.00    +0.095 A 
ATOM     22  C   UNL     1       0.173 -11.577   2.914  0.00  0.00    +0.067 A 
ATOM     23  C   UNL     1       0.175 -11.730   1.528  0.00  0.00    +0.100 A 
ATOM     24  C   UNL     1       0.161 -10.602   0.722  0.00  0.00    +0.150 A 
ATOM     25  N   UNL     1       0.141  -9.395   1.246  0.00  0.00    -0.226 NA
ATOM     26 CL   UNL     1       0.163 -10.785  -1.004  0.00  0.00    -0.060 Cl
ATOM     27 CL   UNL     1       0.194 -13.315   0.820  0.00  0.00    -0.078 Cl
ATOM     28 CL   UNL     1       0.155 -10.028   5.155  0.00  0.00    -0.079 Cl
BRANCH  22  29
ATOM     29  N   UNL     1       0.187 -12.688   3.755  0.00  0.00    -0.356 N 
ATOM     30  H   UNL     1       0.186 -12.568   4.717  0.00  0.00    +0.142 HD
ATOM     31  H   UNL     1       0.198 -13.582   3.378  0.00  0.00    +0.142 HD
ENDBRANCH  22  29
ENDBRANCH  18  20
ENDBRANCH  17  18
ENDBRANCH   1  17
TORSDOF 8
