REMARK  Name = ZINC34686348
REMARK  15 active torsions:
REMARK  status: ('A' for Active; 'I' for Inactive)
REMARK    1  A    between atoms: C_1  and  C_2
REMARK    2  A    between atoms: C_2  and  C_3
REMARK    3  A    between atoms: C_3  and  C_5
REMARK    4  A    between atoms: C_3  and  O_13
REMARK    5  A    between atoms: N_7  and  C_8
REMARK    6  A    between atoms: C_8  and  C_9
REMARK    7  A    between atoms: C_9  and  N_10
REMARK    8  A    between atoms: N_10  and  C_11
REMARK    9  A    between atoms: N_10  and  C_12
REMARK   10  A    between atoms: O_13  and  C_14
REMARK   11  A    between atoms: C_20  and  C_31
REMARK   12  A    between atoms: C_25  and  C_27
REMARK   13  A    between atoms: C_27  and  C_28
REMARK   14  A    between atoms: C_28  and  C_29
REMARK   15  A    between atoms: C_28  and  C_30
REMARK                            x       y       z     vdW  Elec       q    Type
REMARK                         _______ _______ _______ _____ _____    ______ ____
ROOT
ATOM      1  C   UNL     1      -2.641   1.070   1.292  0.00  0.00    +0.122 A 
ATOM      2  C   UNL     1      -2.691   1.877   0.165  0.00  0.00    +0.046 A 
ATOM      3  C   UNL     1      -3.263   3.129   0.244  0.00  0.00    +0.007 A 
ATOM      4  C   UNL     1      -3.794   3.591   1.442  0.00  0.00    -0.040 A 
ATOM      5  C   UNL     1      -3.754   2.786   2.559  0.00  0.00    -0.016 A 
ATOM      6  C   UNL     1      -3.177   1.526   2.484  0.00  0.00    +0.051 A 
ATOM      7  C   UNL     1      -4.337   3.213   3.883  0.00  0.00    +0.137 C 
ATOM      8  N   UNL     1      -4.660   4.644   3.842  0.00  0.00    -0.290 N 
ATOM      9  C   UNL     1      -5.339   5.149   2.637  0.00  0.00    +0.113 C 
ATOM     10  C   UNL     1      -4.388   4.975   1.454  0.00  0.00    +0.054 C 
ATOM     11  C   UNL     1      -4.347   5.462   4.866  0.00  0.00    +0.217 C 
ATOM     12  O   UNL     1      -3.787   5.020   5.847  0.00  0.00    -0.276 OA
ENDROOT
BRANCH   7  13
ATOM     13  C   UNL     1      -5.592   2.425   4.155  0.00  0.00    -0.023 A 
ATOM     14  C   UNL     1      -5.722   1.717   5.336  0.00  0.00    +0.006 A 
ATOM     15  C   UNL     1      -6.873   0.994   5.586  0.00  0.00    +0.000 A 
ATOM     16  C   UNL     1      -7.895   0.978   4.655  0.00  0.00    +0.000 A 
ATOM     17  C   UNL     1      -7.766   1.686   3.475  0.00  0.00    +0.000 A 
ATOM     18  C   UNL     1      -6.617   2.413   3.227  0.00  0.00    +0.006 A 
ENDBRANCH   7  13
BRANCH   1  19
ATOM     19  O   UNL     1      -2.074  -0.163   1.225  0.00  0.00    -0.480 OA
BRANCH  19  20
ATOM     20  C   UNL     1      -1.478  -0.537  -0.019  0.00  0.00    +0.258 C 
BRANCH  20  21
ATOM     21  C   UNL     1      -1.670  -2.014  -0.244  0.00  0.00    +0.254 C 
ATOM     22  O   UNL     1      -2.178  -2.699   0.619  0.00  0.00    -0.272 OA
ATOM     23  N   UNL     1      -1.277  -2.576  -1.405  0.00  0.00    -0.314 N 
ATOM     24  H   UNL     1      -0.870  -2.029  -2.095  0.00  0.00    +0.149 HD
BRANCH  23  25
ATOM     25  C   UNL     1      -1.463  -4.012  -1.624  0.00  0.00    +0.086 C 
BRANCH  25  26
ATOM     26  C   UNL     1      -0.936  -4.389  -3.010  0.00  0.00    -0.061 C 
BRANCH  26  27
ATOM     27  N   UNL     1      -1.123  -5.830  -3.230  0.00  0.00    +0.377 N 
ATOM     28  C   UNL     1      -0.729  -6.171  -4.603  0.00  0.00    -0.097 C 
ATOM     29  C   UNL     1      -0.293  -6.582  -2.280  0.00  0.00    -0.097 C 
ATOM     30  H   UNL     1      -2.094  -6.068  -3.090  0.00  0.00    -0.083 HD
ENDBRANCH  26  27
ENDBRANCH  25  26
ENDBRANCH  23  25
ENDBRANCH  20  21
BRANCH  20  32
ATOM     31  C   UNL     1       0.212   1.298   0.119  0.00  0.00    +0.008 C 
ATOM     32  C   UNL     1       0.018  -0.216   0.016  0.00  0.00    +0.051 C 
ENDBRANCH  20  32
ENDBRANCH  19  20
ENDBRANCH   1  19
BRANCH  11  33
ATOM     33  C   UNL     1      -4.693   6.927   4.792  0.00  0.00    +0.099 C 
BRANCH  33  34
ATOM     34  C   UNL     1      -4.232   7.625   6.073  0.00  0.00    -0.008 C 
ATOM     35  C   UNL     1      -2.705   7.574   6.161  0.00  0.00    +0.008 C 
ATOM     36  C   UNL     1      -4.692   9.084   6.053  0.00  0.00    +0.008 C 
ENDBRANCH  33  34
ENDBRANCH  11  33
TORSDOF 10
