REMARK  Name = ZINC19947177
REMARK  10 active torsions:
REMARK  status: ('A' for Active; 'I' for Inactive)
REMARK    1  A    between atoms: C_1  and  C_2
REMARK    2  A    between atoms: C_4  and  C_25
REMARK    3  A    between atoms: C_6  and  N_8
REMARK    4  A    between atoms: C_9  and  C_11
REMARK    5  A    between atoms: C_11  and  N_12
REMARK    6  A    between atoms: N_12  and  C_13
REMARK    7  A    between atoms: N_12  and  S_21
REMARK    8  A    between atoms: C_15  and  C_20
REMARK    9  A    between atoms: C_17  and  C_19
REMARK   10  A    between atoms: S_21  and  C_24
REMARK                            x       y       z     vdW  Elec       q    Type
REMARK                         _______ _______ _______ _____ _____    ______ ____
ROOT
ATOM      1  C   UNL     1      -1.326   1.929  -0.144  0.00  0.00    +0.227 C 
ENDROOT
BRANCH   1   3
ATOM      2  N   UNL     1       1.143   1.898   0.001  0.00  0.00    -0.284 N 
ATOM      3  C   UNL     1      -0.003   1.208  -0.160  0.00  0.00    +0.236 C 
ATOM      4  O   UNL     1       0.031   0.006  -0.322  0.00  0.00    -0.274 OA
ATOM      5  H   UNL     1       1.120   2.997   0.061  0.00  0.00    +0.155 HD
BRANCH   2  11
ATOM      6  C   UNL     1       5.978   1.746  -0.877  0.00  0.00    +0.044 C 
ATOM      7  C   UNL     1       4.723   1.121  -0.326  0.00  0.00    -0.048 A 
ATOM      8  C   UNL     1       4.775  -0.125   0.271  0.00  0.00    +0.006 A 
ATOM      9  C   UNL     1       3.625  -0.701   0.778  0.00  0.00    -0.048 A 
ATOM     10  C   UNL     1       2.420  -0.033   0.690  0.00  0.00    +0.026 A 
ATOM     11  C   UNL     1       2.363   1.219   0.092  0.00  0.00    +0.034 A 
ATOM     12  C   UNL     1       3.519   1.792  -0.422  0.00  0.00    +0.026 A 
ATOM     13  C   UNL     1       3.687  -2.060   1.428  0.00  0.00    +0.044 C 
ENDBRANCH   2  11
ENDBRANCH   1   3
BRANCH   1  14
ATOM     14  N   UNL     1      -2.410   0.964  -0.344  0.00  0.00    -0.199 N 
BRANCH  14  15
ATOM     15  C   UNL     1      -2.781   0.590  -1.637  0.00  0.00    +0.052 A 
ATOM     16  C   UNL     1      -4.065   0.119  -1.884  0.00  0.00    +0.028 A 
ATOM     17  C   UNL     1      -4.430  -0.246  -3.165  0.00  0.00    -0.048 A 
ATOM     18  C   UNL     1      -3.517  -0.153  -4.199  0.00  0.00    +0.006 A 
ATOM     19  C   UNL     1      -2.237   0.310  -3.956  0.00  0.00    -0.048 A 
ATOM     20  C   UNL     1      -1.867   0.682  -2.679  0.00  0.00    +0.028 A 
ATOM     21  C   UNL     1      -1.246   0.410  -5.086  0.00  0.00    +0.044 C 
ATOM     22  C   UNL     1      -5.824  -0.752  -3.434  0.00  0.00    +0.044 C 
ENDBRANCH  14  15
BRANCH  14  23
ATOM     23  S   UNL     1      -3.195   0.318   0.963  0.00  0.00    +0.043 S 
ATOM     24  O   UNL     1      -3.604  -0.974   0.538  0.00  0.00    -0.155 OA
ATOM     25  O   UNL     1      -2.286   0.472   2.044  0.00  0.00    -0.155 OA
ATOM     26  C   UNL     1      -4.644   1.382   1.209  0.00  0.00    +0.218 C 
ENDBRANCH  14  23
ENDBRANCH   1  14
TORSDOF 5
