REMARK  Name = ZINC39498398
REMARK  11 active torsions:
REMARK  status: ('A' for Active; 'I' for Inactive)
REMARK    1  A    between atoms: C_4  and  O_7
REMARK    2  A    between atoms: O_7  and  S_8
REMARK    3  A    between atoms: S_8  and  C_11
REMARK    4  A    between atoms: C_12  and  C_31
REMARK    5  A    between atoms: C_15  and  C_24
REMARK    6  A    between atoms: C_16  and  C_17
REMARK    7  A    between atoms: C_22  and  O_23
REMARK    8  A    between atoms: C_29  and  O_30
REMARK    9  A    between atoms: C_31  and  C_33
REMARK   10  A    between atoms: C_31  and  N_36
REMARK   11  A    between atoms: C_33  and  C_34
REMARK                            x       y       z     vdW  Elec       q    Type
REMARK                         _______ _______ _______ _____ _____    ______ ____
ROOT
ATOM      1  C   UNL     1       2.917  -1.949   1.444  0.00  0.00    +0.141 A 
ATOM      2  C   UNL     1       1.996  -1.893   2.472  0.00  0.00    +0.002 A 
ATOM      3  C   UNL     1       1.303  -3.028   2.854  0.00  0.00    +0.008 A 
ATOM      4  C   UNL     1       1.525  -4.231   2.213  0.00  0.00    +0.009 A 
ATOM      5  C   UNL     1       2.450  -4.306   1.175  0.00  0.00    -0.005 A 
ATOM      6  C   UNL     1       3.149  -3.152   0.783  0.00  0.00    +0.022 A 
ENDROOT
BRANCH   6   7
ATOM      7  C   UNL     1       4.132  -3.216  -0.324  0.00  0.00    +0.026 A 
ATOM      8  C   UNL     1       5.466  -3.518  -0.059  0.00  0.00    +0.012 A 
ATOM      9  C   UNL     1       6.378  -3.577  -1.093  0.00  0.00    +0.001 A 
ATOM     10  C   UNL     1       5.972  -3.336  -2.394  0.00  0.00    +0.004 A 
ATOM     11  C   UNL     1       4.651  -3.035  -2.669  0.00  0.00    +0.046 A 
ATOM     12  C   UNL     1       3.724  -2.980  -1.641  0.00  0.00    +0.125 A 
BRANCH  12  13
ATOM     13  O   UNL     1       2.424  -2.690  -1.910  0.00  0.00    -0.506 OA
ATOM     14  H   UNL     1       2.218  -1.746  -1.886  0.00  0.00    +0.292 HD
ENDBRANCH  12  13
ENDBRANCH   6   7
BRANCH   5  15
ATOM     15  C   UNL     1       2.692  -5.594   0.484  0.00  0.00    +0.024 A 
ATOM     16  C   UNL     1       1.677  -6.188  -0.265  0.00  0.00    +0.012 A 
ATOM     17  C   UNL     1       1.907  -7.388  -0.907  0.00  0.00    +0.001 A 
ATOM     18  C   UNL     1       3.142  -8.004  -0.809  0.00  0.00    +0.004 A 
ATOM     19  C   UNL     1       4.155  -7.425  -0.069  0.00  0.00    +0.046 A 
ATOM     20  C   UNL     1       3.940  -6.217   0.575  0.00  0.00    +0.125 A 
BRANCH  20  21
ATOM     21  O   UNL     1       4.937  -5.643   1.298  0.00  0.00    -0.506 OA
ATOM     22  H   UNL     1       4.956  -5.913   2.226  0.00  0.00    +0.292 HD
ENDBRANCH  20  21
ENDBRANCH   5  15
BRANCH   1  23
ATOM     23  S   UNL     1       3.794  -0.497   0.966  0.00  0.00    +0.152 S 
ATOM     24  O   UNL     1       5.054  -0.929   0.470  0.00  0.00    -0.131 OA
ATOM     25  O   UNL     1       3.673   0.423   2.042  0.00  0.00    -0.131 OA
BRANCH  23  26
ATOM     26  O   UNL     1       3.047   0.111  -0.213  0.00  0.00    -0.342 OA
BRANCH  26  30
ATOM     27  C   UNL     1      -0.450   2.037   0.826  0.00  0.00    +0.000 A 
ATOM     28  C   UNL     1       0.742   2.737   0.797  0.00  0.00    +0.004 A 
ATOM     29  C   UNL     1       1.914   2.095   0.449  0.00  0.00    +0.048 A 
ATOM     30  C   UNL     1       1.895   0.745   0.130  0.00  0.00    +0.157 A 
ATOM     31  C   UNL     1       0.699   0.044   0.160  0.00  0.00    +0.048 A 
ATOM     32  C   UNL     1      -0.471   0.691   0.508  0.00  0.00    +0.004 A 
ENDBRANCH  26  30
ENDBRANCH  23  26
ENDBRANCH   1  23
BRANCH   2  33
ATOM     33  C   UNL     1       1.745  -0.587   3.181  0.00  0.00    +0.112 C 
BRANCH  33  34
ATOM     34  N   UNL     1       0.421  -0.619   3.807  0.00  0.00    -0.311 N 
ATOM     35  C   UNL     1       0.188  -1.439   4.851  0.00  0.00    +0.326 C 
ATOM     36  O   UNL     1       1.094  -2.095   5.320  0.00  0.00    -0.280 OA
ATOM     37  H   UNL     1      -0.289  -0.050   3.470  0.00  0.00    +0.149 HD
ENDBRANCH  33  34
BRANCH  33  38
ATOM     38  C   UNL     1       2.812  -0.377   4.256  0.00  0.00    +0.097 C 
BRANCH  38  39
ATOM     39  C   UNL     1       2.610   0.966   4.909  0.00  0.00    +0.225 C 
ATOM     40  O   UNL     1       2.486   1.042   6.108  0.00  0.00    -0.301 OA
ENDBRANCH  38  39
ENDBRANCH  33  38
ENDBRANCH   2  33
TORSDOF 11
