REMARK  Name = ZINC11494863
REMARK  6 active torsions:
REMARK  status: ('A' for Active; 'I' for Inactive)
REMARK    1  A    between atoms: C_1  and  C_2
REMARK    2  A    between atoms: C_7  and  N_8
REMARK    3  A    between atoms: C_11  and  C_16
REMARK    4  A    between atoms: C_16  and  S_17
REMARK    5  A    between atoms: S_17  and  C_18
REMARK    6  A    between atoms: C_22  and  C_24
REMARK                            x       y       z     vdW  Elec       q    Type
REMARK                         _______ _______ _______ _____ _____    ______ ____
ROOT
ATOM      1  N   UNL     1       0.025  -0.015   2.416  0.00  0.00    -0.283 N 
ATOM      2  C   UNL     1      -0.058  -0.712   3.606  0.00  0.00    +0.224 A 
ATOM      3  N   UNL     1      -0.162  -0.053   4.758  0.00  0.00    -0.198 NA
ATOM      4  C   UNL     1      -0.242  -0.719   5.897  0.00  0.00    +0.146 A 
ATOM      5  N   UNL     1      -0.219  -2.041   5.897  0.00  0.00    -0.199 NA
ATOM      6  C   UNL     1      -0.115  -2.706   4.749  0.00  0.00    +0.217 A 
ATOM      7  N   UNL     1      -0.041  -2.040   3.602  0.00  0.00    -0.181 NA
ATOM      8  N   UNL     1      -0.091  -4.086   4.750  0.00  0.00    -0.327 N 
ATOM      9  H   UNL     1      -0.077   0.949   2.411  0.00  0.00    +0.155 HD
ATOM     10  H   UNL     1      -0.150  -4.571   5.588  0.00  0.00    +0.145 HD
ATOM     11  H   UNL     1      -0.015  -4.570   3.913  0.00  0.00    +0.145 HD
ENDROOT
BRANCH   1  18
ATOM     12  C   UNL     1      -1.030   1.083   0.013  0.00  0.00    +0.045 C 
ATOM     13  C   UNL     1      -0.239  -0.200   0.024  0.00  0.00    -0.029 A 
ATOM     14  C   UNL     1      -0.003  -0.876  -1.157  0.00  0.00    +0.005 A 
ATOM     15  C   UNL     1       0.723  -2.053  -1.149  0.00  0.00    +0.000 A 
ATOM     16  C   UNL     1       1.214  -2.557   0.042  0.00  0.00    +0.002 A 
ATOM     17  C   UNL     1       0.981  -1.886   1.226  0.00  0.00    +0.023 A 
ATOM     18  C   UNL     1       0.258  -0.701   1.220  0.00  0.00    +0.036 A 
ENDBRANCH   1  18
BRANCH   4  19
ATOM     19  C   UNL     1      -0.360   0.031   7.199  0.00  0.00    +0.153 C 
BRANCH  19  20
ATOM     20  S   UNL     1      -2.111   0.302   7.585  0.00  0.00    -0.079 S 
BRANCH  20  21
ATOM     21  C   UNL     1      -2.081   1.177   9.114  0.00  0.00    +0.185 A 
ATOM     22  N   UNL     1      -3.158   1.601   9.810  0.00  0.00    -0.254 N 
ATOM     23  H   UNL     1      -4.090   1.483   9.568  0.00  0.00    +0.191 HD
ATOM     24  N   UNL     1      -2.660   2.245  10.954  0.00  0.00    -0.157 NA
ATOM     25  C   UNL     1      -1.358   2.181  10.893  0.00  0.00    +0.155 A 
ATOM     26  N   UNL     1      -1.004   1.530   9.784  0.00  0.00    -0.205 NA
BRANCH  25  27
ATOM     27  C   UNL     1      -0.406   2.745  11.915  0.00  0.00    +0.059 C 
ATOM     28  C   UNL     1      -1.004   3.272  13.222  0.00  0.00    +0.012 C 
ATOM     29  C   UNL     1      -0.463   4.252  12.178  0.00  0.00    +0.012 C 
ENDBRANCH  25  27
ENDBRANCH  20  21
ENDBRANCH  19  20
ENDBRANCH   4  19
TORSDOF 5
