REMARK  Name = ZINC34750136
REMARK  9 active torsions:
REMARK  status: ('A' for Active; 'I' for Inactive)
REMARK    1  A    between atoms: C_1  and  C_2
REMARK    2  A    between atoms: C_5  and  C_35
REMARK    3  A    between atoms: C_6  and  C_8
REMARK    4  A    between atoms: C_8  and  S_9
REMARK    5  A    between atoms: S_9  and  C_10
REMARK    6  A    between atoms: C_21  and  C_23
REMARK    7  A    between atoms: C_21  and  C_24
REMARK    8  A    between atoms: N_28  and  C_31
REMARK    9  A    between atoms: C_31  and  C_32
REMARK                            x       y       z     vdW  Elec       q    Type
REMARK                         _______ _______ _______ _____ _____    ______ ____
ROOT
ATOM      1  C   UNL     1       1.621  -4.006   4.522  0.00  0.00    +0.191 A 
ATOM      2  N   UNL     1       2.719  -4.370   5.175  0.00  0.00    -0.206 NA
ATOM      3  C   UNL     1       2.671  -5.046   6.310  0.00  0.00    +0.134 A 
ATOM      4  C   UNL     1       1.405  -5.399   6.857  0.00  0.00    +0.051 A 
ATOM      5  C   UNL     1       1.109  -6.136   8.084  0.00  0.00    -0.020 A 
ATOM      6  C   UNL     1      -0.192  -6.340   8.381  0.00  0.00    +0.021 A 
ATOM      7  S   UNL     1      -1.091  -5.572   7.063  0.00  0.00    -0.071 S 
ATOM      8  C   UNL     1       0.284  -4.978   6.112  0.00  0.00    +0.115 A 
ATOM      9  N   UNL     1       0.415  -4.301   4.987  0.00  0.00    -0.215 NA
ATOM     10  C   UNL     1      -0.725  -7.066   9.577  0.00  0.00    +0.203 C 
ATOM     11  O   UNL     1       0.365  -7.780  10.182  0.00  0.00    -0.368 OA
ATOM     12  C   UNL     1       1.535  -6.979  10.372  0.00  0.00    +0.068 C 
ATOM     13  C   UNL     1       2.188  -6.672   9.021  0.00  0.00    +0.071 C 
ATOM     14  C   UNL     1       1.145  -5.667  11.057  0.00  0.00    +0.041 C 
ATOM     15  C   UNL     1       2.528  -7.734  11.257  0.00  0.00    +0.041 C 
ATOM     16  N   UNL     1       3.837  -5.407   6.958  0.00  0.00    -0.318 N 
ATOM     17  C   UNL     1       4.437  -6.735   6.754  0.00  0.00    +0.088 C 
ATOM     18  C   UNL     1       5.919  -6.552   6.414  0.00  0.00    -0.059 C 
ATOM     19  N   UNL     1       6.565  -5.750   7.461  0.00  0.00    +0.387 N 
ATOM     20  C   UNL     1       5.994  -4.398   7.480  0.00  0.00    -0.059 C 
ATOM     21  C   UNL     1       4.518  -4.473   7.868  0.00  0.00    +0.088 C 
ATOM     22  H   UNL     1       6.417  -6.189   8.358  0.00  0.00    -0.081 HD
ENDROOT
BRANCH   1  23
ATOM     23  S   UNL     1       1.770  -3.106   3.014  0.00  0.00    -0.081 S 
BRANCH  23  24
ATOM     24  C   UNL     1       0.053  -2.826   2.499  0.00  0.00    +0.112 C 
BRANCH  24  30
ATOM     25  C   UNL     1      -0.031   1.539   0.054  0.00  0.00    +0.044 C 
ATOM     26  C   UNL     1      -0.004   0.033   0.034  0.00  0.00    -0.050 A 
ATOM     27  C   UNL     1       0.005  -0.643  -1.172  0.00  0.00    +0.003 A 
ATOM     28  C   UNL     1       0.029  -2.025  -1.190  0.00  0.00    +0.004 A 
ATOM     29  C   UNL     1       0.045  -2.732  -0.002  0.00  0.00    -0.046 A 
ATOM     30  C   UNL     1       0.037  -2.056   1.204  0.00  0.00    -0.034 A 
ATOM     31  C   UNL     1       0.017  -0.674   1.222  0.00  0.00    +0.008 A 
ATOM     32  C   UNL     1       0.071  -4.238  -0.022  0.00  0.00    +0.044 C 
ENDBRANCH  24  30
ENDBRANCH  23  24
ENDBRANCH   1  23
BRANCH  19  33
ATOM     33  C   UNL     1       8.007  -5.668   7.193  0.00  0.00    +0.018 C 
BRANCH  33  34
ATOM     34  C   UNL     1       8.689  -4.951   8.330  0.00  0.00    +0.194 C 
ATOM     35  O   UNL     1       8.038  -4.549   9.271  0.00  0.00    -0.278 OA
ATOM     36  N   UNL     1      10.022  -4.756   8.300  0.00  0.00    -0.331 N 
ATOM     37  H   UNL     1      10.543  -5.078   7.548  0.00  0.00    +0.145 HD
ATOM     38  H   UNL     1      10.461  -4.295   9.032  0.00  0.00    +0.145 HD
ENDBRANCH  33  34
ENDBRANCH  19  33
TORSDOF 5
