REMARK  Name = ZINC47823161
REMARK  7 active torsions:
REMARK  status: ('A' for Active; 'I' for Inactive)
REMARK    1  A    between atoms: C_1  and  C_2
REMARK    2  A    between atoms: C_5  and  S_7
REMARK    3  A    between atoms: S_7  and  C_8
REMARK    4  A    between atoms: C_8  and  C_10
REMARK    5  A    between atoms: C_8  and  C_11
REMARK    6  A    between atoms: C_15  and  C_22
REMARK    7  A    between atoms: C_18  and  C_21
REMARK                            x       y       z     vdW  Elec       q    Type
REMARK                         _______ _______ _______ _____ _____    ______ ____
ROOT
ATOM      1  C   UNL     1      -0.026  -5.829   2.771  0.00  0.00    +0.229 C 
ATOM      2  O   UNL     1       0.256  -5.560   3.920  0.00  0.00    -0.274 OA
ATOM      3  N   UNL     1      -0.431  -7.073   2.450  0.00  0.00    -0.300 N 
ATOM      4  C   UNL     1      -0.769  -7.415   1.062  0.00  0.00    +0.111 C 
ATOM      5  C   UNL     1       0.043  -8.646   0.645  0.00  0.00    +0.004 C 
ATOM      6  C   UNL     1      -0.201  -9.776   1.648  0.00  0.00    +0.009 C 
ATOM      7  C   UNL     1       0.267  -9.337   3.038  0.00  0.00    +0.004 C 
ATOM      8  C   UNL     1      -0.537  -8.115   3.480  0.00  0.00    +0.111 C 
ATOM      9  C   UNL     1       0.054 -10.479   4.033  0.00  0.00    +0.009 C 
ATOM     10  C   UNL     1      -0.394  -9.098  -0.750  0.00  0.00    +0.009 C 
ENDROOT
BRANCH   1  11
ATOM     11  C   UNL     1       0.078  -4.771   1.703  0.00  0.00    +0.136 C 
ATOM     12  C   UNL     1       1.384  -4.955   0.928  0.00  0.00    +0.029 C 
BRANCH  11  13
ATOM     13  S   UNL     1       0.058  -3.129   2.474  0.00  0.00    -0.086 S 
BRANCH  13  18
ATOM     14  C   UNL     1      -0.018   1.503   0.010  0.00  0.00    +0.066 C 
ATOM     15  C   UNL     1       0.002  -0.004   0.002  0.00  0.00    +0.047 A 
ATOM     16  C   UNL     1       0.006  -0.705  -1.157  0.00  0.00    +0.070 A 
ATOM     17  S   UNL     1       0.032  -2.378  -0.535  0.00  0.00    -0.069 S 
ATOM     18  C   UNL     1       0.036  -2.016   1.108  0.00  0.00    +0.135 A 
ATOM     19  N   UNL     1       0.023  -0.700   1.125  0.00  0.00    -0.238 NA
ENDBRANCH  13  18
ENDBRANCH  11  13
ENDBRANCH   1  11
TORSDOF 3
