REMARK  Name = ZINC40985712
REMARK  14 active torsions:
REMARK  status: ('A' for Active; 'I' for Inactive)
REMARK    1  A    between atoms: C_1  and  C_2
REMARK    2  A    between atoms: C_2  and  C_3
REMARK    3  A    between atoms: C_3  and  C_4
REMARK    4  A    between atoms: C_4  and  S_5
REMARK    5  A    between atoms: S_5  and  C_6
REMARK    6  A    between atoms: C_9  and  C_13
REMARK    7  A    between atoms: N_15  and  C_16
REMARK    8  A    between atoms: C_16  and  C_17
REMARK    9  A    between atoms: C_17  and  C_19
REMARK   10  A    between atoms: C_17  and  N_29
REMARK   11  A    between atoms: C_21  and  O_27
REMARK   12  A    between atoms: C_24  and  O_25
REMARK   13  A    between atoms: O_25  and  C_26
REMARK   14  A    between atoms: O_27  and  C_28
REMARK                            x       y       z     vdW  Elec       q    Type
REMARK                         _______ _______ _______ _____ _____    ______ ____
ROOT
ATOM      1  C   UNL     1       0.441 -10.805  -0.008  0.00  0.00    -0.017 C 
ENDROOT
BRANCH   1   2
ATOM      2  N   UNL     1       1.010 -10.162   1.184  0.00  0.00    +0.385 N 
ATOM      3  C   UNL     1       0.627  -8.745   1.203  0.00  0.00    -0.078 C 
ATOM      4  C   UNL     1       1.148  -8.089   2.483  0.00  0.00    -0.019 C 
ATOM      5  C   UNL     1       2.675  -8.207   2.526  0.00  0.00    -0.004 C 
ATOM      6  C   UNL     1       3.065  -9.685   2.430  0.00  0.00    -0.019 C 
ATOM      7  C   UNL     1       2.472 -10.281   1.151  0.00  0.00    -0.078 C 
ATOM      8  H   UNL     1       0.654 -10.615   2.012  0.00  0.00    -0.081 HD
ENDBRANCH   1   2
BRANCH   1   9
ATOM      9  C   UNL     1       0.746 -12.280   0.024  0.00  0.00    -0.014 A 
ATOM     10  C   UNL     1       0.971 -12.913   1.231  0.00  0.00    +0.051 A 
ATOM     11  C   UNL     1       1.251 -14.271   1.260  0.00  0.00    +0.121 A 
ATOM     12  C   UNL     1       1.304 -14.994   0.077  0.00  0.00    +0.049 A 
ATOM     13  C   UNL     1       1.079 -14.361  -1.129  0.00  0.00    +0.049 A 
ATOM     14  C   UNL     1       0.793 -13.004  -1.158  0.00  0.00    +0.122 A 
BRANCH  14  15
ATOM     15  O   UNL     1       0.566 -12.382  -2.346  0.00  0.00    -0.495 OA
ATOM     16  C   UNL     1       0.631 -13.189  -3.524  0.00  0.00    +0.277 C 
ENDBRANCH  14  15
BRANCH  11  17
ATOM     17  O   UNL     1       1.474 -14.894   2.448  0.00  0.00    -0.495 OA
ATOM     18  C   UNL     1       1.756 -16.294   2.404  0.00  0.00    +0.277 C 
ENDBRANCH  11  17
ENDBRANCH   1   9
BRANCH   1  19
ATOM     19  C   UNL     1      -1.075 -10.597  -0.026  0.00  0.00    +0.094 C 
BRANCH  19  22
ATOM     20  C   UNL     1      -2.958 -10.890   1.492  0.00  0.00    +0.248 C 
ATOM     21  O   UNL     1      -3.667 -10.340   0.671  0.00  0.00    -0.270 OA
ATOM     22  N   UNL     1      -1.646 -11.067   1.239  0.00  0.00    -0.312 N 
ATOM     23  H   UNL     1      -1.081 -11.505   1.894  0.00  0.00    +0.149 HD
BRANCH  20  27
ATOM     24  C   UNL     1      -4.580 -12.222   5.081  0.00  0.00    +0.190 A 
ATOM     25  N   UNL     1      -3.286 -12.406   4.850  0.00  0.00    -0.229 NA
ATOM     26  C   UNL     1      -2.733 -11.998   3.724  0.00  0.00    +0.129 A 
ATOM     27  C   UNL     1      -3.534 -11.362   2.765  0.00  0.00    +0.092 A 
ATOM     28  C   UNL     1      -4.897 -11.187   3.048  0.00  0.00    +0.146 A 
ATOM     29  N   UNL     1      -5.374 -11.630   4.198  0.00  0.00    -0.209 NA
ATOM     30 CL   UNL     1      -5.942 -10.406   1.902  0.00  0.00    -0.061 Cl
BRANCH  24  31
ATOM     31  S   UNL     1      -5.266 -12.787   6.603  0.00  0.00    -0.086 S 
BRANCH  31  32
ATOM     32  C   UNL     1      -3.853 -13.513   7.478  0.00  0.00    +0.077 C 
BRANCH  32  33
ATOM     33  C   UNL     1      -4.315 -14.050   8.834  0.00  0.00    +0.011 C 
BRANCH  33  35
ATOM     34  C   UNL     1      -3.585 -15.200  10.929  0.00  0.00    +0.004 C 
ATOM     35  C   UNL     1      -3.123 -14.663   9.573  0.00  0.00    -0.003 C 
ENDBRANCH  33  35
ENDBRANCH  32  33
ENDBRANCH  31  32
ENDBRANCH  24  31
ENDBRANCH  20  27
ENDBRANCH  19  22
ENDBRANCH   1  19
TORSDOF 11
