REMARK  Name = ZINC65492896
REMARK  7 active torsions:
REMARK  status: ('A' for Active; 'I' for Inactive)
REMARK    1  A    between atoms: C_1  and  C_2
REMARK    2  A    between atoms: C_2  and  C_3
REMARK    3  A    between atoms: C_3  and  C_4
REMARK    4  A    between atoms: C_8  and  N_11
REMARK    5  A    between atoms: C_12  and  C_14
REMARK    6  A    between atoms: C_14  and  N_15
REMARK    7  A    between atoms: C_18  and  N_21
REMARK                            x       y       z     vdW  Elec       q    Type
REMARK                         _______ _______ _______ _____ _____    ______ ____
ROOT
ATOM      1  N   UNL     1      -1.752  -7.839  -5.391  0.00  0.00    -0.290 NA
ATOM      2  C   UNL     1      -2.333  -9.191  -5.345  0.00  0.00    +0.091 C 
ATOM      3  C   UNL     1      -2.413  -9.734  -6.773  0.00  0.00    +0.069 C 
ATOM      4  C   UNL     1      -1.090  -9.545  -7.462  0.00  0.00    +0.027 C 
ATOM      5  C   UNL     1      -0.170  -8.730  -7.016  0.00  0.00    +0.010 C 
ATOM      6  C   UNL     1      -0.335  -7.908  -5.770  0.00  0.00    +0.114 C 
ENDROOT
BRANCH   4   7
ATOM      7  N   UNL     1      -0.834 -10.269  -8.626  0.00  0.00    -0.265 N 
ATOM      8  C   UNL     1      -1.754 -11.054  -9.318  0.00  0.00    +0.074 A 
ATOM      9  C   UNL     1      -3.092 -11.355  -9.113  0.00  0.00    +0.028 A 
ATOM     10  C   UNL     1      -3.752 -12.187  -9.996  0.00  0.00    +0.002 A 
ATOM     11  C   UNL     1      -3.084 -12.721 -11.084  0.00  0.00    +0.002 A 
ATOM     12  C   UNL     1      -1.751 -12.427 -11.296  0.00  0.00    +0.028 A 
ATOM     13  C   UNL     1      -1.080 -11.593 -10.415  0.00  0.00    +0.067 A 
ATOM     14  N   UNL     1       0.228 -11.119 -10.356  0.00  0.00    -0.306 N 
ATOM     15  H   UNL     1       0.935 -11.324 -10.988  0.00  0.00    +0.170 HD
ATOM     16  C   UNL     1       0.344 -10.324  -9.276  0.00  0.00    +0.332 A 
ATOM     17  O   UNL     1       1.359  -9.745  -8.937  0.00  0.00    -0.246 OA
ENDBRANCH   4   7
BRANCH   1  18
ATOM     18  C   UNL     1      -1.919  -7.150  -4.104  0.00  0.00    +0.180 C 
BRANCH  18  20
ATOM     19  N   UNL     1      -1.588  -4.874  -3.193  0.00  0.00    -0.289 N 
ATOM     20  C   UNL     1      -1.517  -5.705  -4.252  0.00  0.00    +0.229 C 
ATOM     21  O   UNL     1      -1.129  -5.290  -5.324  0.00  0.00    -0.274 OA
ATOM     22  H   UNL     1      -1.898  -5.205  -2.336  0.00  0.00    +0.151 HD
BRANCH  19  26
ATOM     23  C   UNL     1      -0.013  -1.516  -1.750  0.00  0.00    +0.130 C 
ATOM     24  N   UNL     1       0.661  -1.955  -3.003  0.00  0.00    -0.241 NA
ATOM     25  N   UNL     1       0.292  -3.317  -3.369  0.00  0.00    -0.227 NA
ATOM     26  C   UNL     1      -1.197  -3.469  -3.337  0.00  0.00    +0.216 C 
ATOM     27  S   UNL     1      -1.566  -2.505  -1.806  0.00  0.00    -0.102 S 
ATOM     28  H   UNL     1       0.472  -1.313  -3.759  0.00  0.00    +0.142 HD
ATOM     29  H   UNL     1       0.737  -3.988  -2.760  0.00  0.00    +0.143 HD
BRANCH  23  30
ATOM     30  C   UNL     1      -0.316  -0.016  -1.784  0.00  0.00    +0.031 C 
BRANCH  30  32
ATOM     31  C   UNL     1      -1.270   1.903  -0.500  0.00  0.00    +0.004 C 
ATOM     32  C   UNL     1      -0.968   0.403  -0.465  0.00  0.00    -0.001 C 
ENDBRANCH  30  32
ENDBRANCH  23  30
ENDBRANCH  19  26
ENDBRANCH  18  20
ENDBRANCH   1  18
TORSDOF 6
