REMARK  Name = ZINC13882234
REMARK  2 active torsions:
REMARK  status: ('A' for Active; 'I' for Inactive)
REMARK    1  A    between atoms: C_10  and  C_12
REMARK    2  A    between atoms: C_21  and  N_24
REMARK                            x       y       z     vdW  Elec       q    Type
REMARK                         _______ _______ _______ _____ _____    ______ ____
ROOT
ATOM      1  C   UNL     1       1.678   6.030  -0.096  0.00  0.00    +0.050 C 
ATOM      2  C   UNL     1       0.831   5.756  -1.341  0.00  0.00    +0.020 C 
ATOM      3  C   UNL     1      -0.282   6.802  -1.440  0.00  0.00    -0.007 C 
ATOM      4  C   UNL     1      -1.167   6.724  -0.194  0.00  0.00    +0.007 C 
ATOM      5  C   UNL     1      -0.320   6.998   1.051  0.00  0.00    -0.007 C 
ATOM      6  C   UNL     1       0.793   5.952   1.150  0.00  0.00    +0.020 C 
ATOM      7  C   UNL     1       0.299   8.393   0.950  0.00  0.00    +0.034 C 
ATOM      8  C   UNL     1       1.184   8.471  -0.295  0.00  0.00    +0.067 C 
ATOM      9  C   UNL     1       0.337   8.197  -1.540  0.00  0.00    +0.034 C 
ATOM     10  C   UNL     1       2.296   7.425  -0.196  0.00  0.00    +0.046 C 
ENDROOT
BRANCH   1  20
ATOM     11  C   UNL     1       4.890   0.306   0.087  0.00  0.00    +0.000 A 
ATOM     12  C   UNL     1       5.519   1.531  -0.041  0.00  0.00    +0.002 A 
ATOM     13  C   UNL     1       4.779   2.694  -0.043  0.00  0.00    +0.024 A 
ATOM     14  C   UNL     1       3.389   2.644   0.080  0.00  0.00    +0.039 A 
ATOM     15  C   UNL     1       2.768   1.412   0.203  0.00  0.00    -0.024 A 
ATOM     16  C   UNL     1       3.514   0.249   0.203  0.00  0.00    +0.005 A 
ATOM     17  C   UNL     1       1.277   1.634   0.319  0.00  0.00    +0.056 C 
ATOM     18  C   UNL     1       1.106   3.160   0.248  0.00  0.00    +0.118 C 
ATOM     19  N   UNL     1       2.463   3.692   0.101  0.00  0.00    -0.270 N 
ATOM     20  C   UNL     1       2.774   5.000   0.002  0.00  0.00    +0.226 C 
ATOM     21  O   UNL     1       3.936   5.348  -0.009  0.00  0.00    -0.275 OA
ENDBRANCH   1  20
BRANCH   8  22
ATOM     22  N   UNL     1       1.776   9.807  -0.392  0.00  0.00    -0.245 N 
ATOM     23  C   UNL     1       2.809  10.176  -1.168  0.00  0.00    +0.220 A 
ATOM     24  N   UNL     1       3.034  11.449  -0.968  0.00  0.00    -0.209 NA
ATOM     25  C   UNL     1       2.168  11.926  -0.073  0.00  0.00    +0.217 A 
ATOM     26  N   UNL     1       1.374  10.958   0.305  0.00  0.00    -0.142 NA
ATOM     27 BR   UNL     1       2.095  13.712   0.543  0.00  0.00    -0.005 Br
ENDBRANCH   8  22
TORSDOF 2
