REMARK  Name = ZINC01088021
REMARK  5 active torsions:
REMARK  status: ('A' for Active; 'I' for Inactive)
REMARK    1  A    between atoms: C_3  and  C_6
REMARK    2  A    between atoms: C_8  and  C_25
REMARK    3  A    between atoms: C_10  and  N_24
REMARK    4  A    between atoms: C_11  and  C_15
REMARK    5  A    between atoms: C_15  and  C_17
REMARK                            x       y       z     vdW  Elec       q    Type
REMARK                         _______ _______ _______ _____ _____    ______ ____
ROOT
ATOM      1  C   UNL     1       1.642   3.228   0.115  0.00  0.00    +0.108 A 
ATOM      2  C   UNL     1       0.665   4.232   0.144  0.00  0.00    +0.044 A 
ATOM      3  C   UNL     1       1.026   5.544   0.138  0.00  0.00    +0.068 A 
ATOM      4  C   UNL     1       2.404   5.886   0.091  0.00  0.00    +0.041 A 
ATOM      5  C   UNL     1       3.007   7.207   0.071  0.00  0.00    +0.053 A 
ATOM      6  C   UNL     1       4.386   7.297   0.022  0.00  0.00    +0.083 A 
ATOM      7  S   UNL     1       4.910   5.594   0.003  0.00  0.00    -0.064 S 
ATOM      8  C   UNL     1       3.319   4.807   0.058  0.00  0.00    +0.112 A 
ATOM      9  N   UNL     1       2.932   3.551   0.071  0.00  0.00    -0.236 NA
ENDROOT
BRANCH   1  12
ATOM     10  C   UNL     1       1.272  -0.412   0.125  0.00  0.00    +0.042 A 
ATOM     11  C   UNL     1       2.081   0.739   0.098  0.00  0.00    +0.051 A 
ATOM     12  C   UNL     1       1.240   1.810   0.129  0.00  0.00    +0.153 A 
ATOM     13  O   UNL     1      -0.025   1.347   0.172  0.00  0.00    -0.461 OA
ATOM     14  C   UNL     1      -0.009   0.005   0.170  0.00  0.00    +0.196 A 
ENDBRANCH   1  12
BRANCH   3  15
ATOM     15  C   UNL     1      -0.025   6.623   0.175  0.00  0.00    +0.418 C 
ATOM     16  F   UNL     1      -1.294   6.037   0.219  0.00  0.00    -0.166 F 
ATOM     17  F   UNL     1       0.161   7.417   1.312  0.00  0.00    -0.166 F 
ATOM     18  F   UNL     1       0.082   7.418  -0.971  0.00  0.00    -0.166 F 
ENDBRANCH   3  15
BRANCH   5  19
ATOM     19  N   UNL     1       2.221   8.348   0.098  0.00  0.00    -0.356 N 
ATOM     20  H   UNL     1       1.254   8.270   0.132  0.00  0.00    +0.142 HD
ATOM     21  H   UNL     1       2.637   9.224   0.085  0.00  0.00    +0.142 HD
ENDBRANCH   5  19
BRANCH   6  22
ATOM     22  C   UNL     1       5.188   8.461  -0.004  0.00  0.00    +0.202 C 
ATOM     23  O   UNL     1       4.667   9.558  -0.106  0.00  0.00    -0.286 OA
BRANCH  22  24
ATOM     24  C   UNL     1       6.659   8.347   0.092  0.00  0.00    +0.023 A 
ATOM     25  C   UNL     1       7.237   7.228   0.695  0.00  0.00    +0.014 A 
ATOM     26  C   UNL     1       8.610   7.124   0.777  0.00  0.00    +0.039 A 
ATOM     27  C   UNL     1       9.415   8.134   0.273  0.00  0.00    +0.123 A 
ATOM     28  C   UNL     1       8.846   9.251  -0.321  0.00  0.00    +0.039 A 
ATOM     29  C   UNL     1       7.475   9.362  -0.413  0.00  0.00    +0.014 A 
ATOM     30  F   UNL     1      10.759   8.031   0.361  0.00  0.00    -0.205 F 
ENDBRANCH  22  24
ENDBRANCH   6  22
TORSDOF 5
