REMARK  Name = ZINC09087973
REMARK  4 active torsions:
REMARK  status: ('A' for Active; 'I' for Inactive)
REMARK    1  A    between atoms: C_4  and  C_7
REMARK    2  A    between atoms: N_11  and  C_12
REMARK    3  A    between atoms: C_12  and  N_14
REMARK    4  A    between atoms: C_15  and  C_17
REMARK                            x       y       z     vdW  Elec       q    Type
REMARK                         _______ _______ _______ _____ _____    ______ ____
ROOT
ATOM      1  C   UNL     1       6.519  -4.367  -0.194  0.00  0.00    +0.163 C 
ATOM      2  S   UNL     1       7.795  -3.226  -0.194  0.00  0.00    -0.016 S 
ENDROOT
BRANCH   1   7
ATOM      3  C   UNL     1       3.694  -0.686  -0.056  0.00  0.00    +0.055 A 
ATOM      4  C   UNL     1       4.872  -0.023  -0.059  0.00  0.00    +0.074 A 
ATOM      5  S   UNL     1       6.051  -1.361  -0.071  0.00  0.00    -0.060 S 
ATOM      6  C   UNL     1       4.977  -2.654  -0.072  0.00  0.00    +0.162 A 
ATOM      7  N   UNL     1       5.254  -3.955  -0.080  0.00  0.00    -0.169 NA
ATOM      8  N   UNL     1       3.755  -2.052  -0.058  0.00  0.00    -0.335 N 
ATOM      9  H   UNL     1       2.943  -2.583  -0.052  0.00  0.00    +0.168 HD
BRANCH   3  13
ATOM     10  C   UNL     1      -0.019   1.377  -0.028  0.00  0.00    +0.000 A 
ATOM     11  C   UNL     1       1.165   2.092  -0.035  0.00  0.00    +0.001 A 
ATOM     12  C   UNL     1       2.375   1.428  -0.045  0.00  0.00    +0.010 A 
ATOM     13  C   UNL     1       2.401   0.033  -0.046  0.00  0.00    -0.001 A 
ATOM     14  C   UNL     1       1.203  -0.682  -0.038  0.00  0.00    +0.010 A 
ATOM     15  C   UNL     1       0.000  -0.006  -0.029  0.00  0.00    +0.001 A 
ENDBRANCH   3  13
ENDBRANCH   1   7
BRANCH   1  16
ATOM     16  N   UNL     1       6.791  -5.682  -0.310  0.00  0.00    -0.262 N 
ATOM     17  C   UNL     1       8.068  -6.098  -0.425  0.00  0.00    +0.251 C 
ATOM     18  O   UNL     1       8.974  -5.288  -0.425  0.00  0.00    -0.270 OA
ATOM     19  H   UNL     1       6.068  -6.329  -0.310  0.00  0.00    +0.157 HD
BRANCH  17  20
ATOM     20  C   UNL     1       8.366  -7.539  -0.552  0.00  0.00    +0.055 A 
ATOM     21  C   UNL     1       7.327  -8.472  -0.559  0.00  0.00    +0.016 A 
ATOM     22  C   UNL     1       7.612  -9.816  -0.678  0.00  0.00    +0.021 A 
ATOM     23  C   UNL     1       8.925 -10.242  -0.790  0.00  0.00    +0.042 A 
ATOM     24  C   UNL     1       9.960  -9.323  -0.785  0.00  0.00    +0.040 A 
ATOM     25  C   UNL     1       9.689  -7.974  -0.672  0.00  0.00    +0.054 A 
ATOM     26 CL   UNL     1      10.987  -6.822  -0.673  0.00  0.00    -0.083 Cl
ATOM     27 CL   UNL     1       9.274 -11.936  -0.939  0.00  0.00    -0.083 Cl
ENDBRANCH  17  20
ENDBRANCH   1  16
TORSDOF 4
