REMARK  Name = ZINC13643199
REMARK  4 active torsions:
REMARK  status: ('A' for Active; 'I' for Inactive)
REMARK    1  A    between atoms: C_1  and  C_2
REMARK    2  A    between atoms: C_2  and  N_3
REMARK    3  A    between atoms: C_14  and  C_16
REMARK    4  A    between atoms: C_27  and  C_32
REMARK                            x       y       z     vdW  Elec       q    Type
REMARK                         _______ _______ _______ _____ _____    ______ ____
ROOT
ATOM      1  C   UNL     1      -0.731   8.870   0.116  0.00  0.00    +0.105 C 
ATOM      2  C   UNL     1      -0.670   9.421  -1.312  0.00  0.00    +0.029 C 
ATOM      3  C   UNL     1      -0.861   8.218  -2.282  0.00  0.00    +0.033 C 
ATOM      4  C   UNL     1       0.526   7.612  -2.366  0.00  0.00    -0.030 C 
ATOM      5  C   UNL     1       1.434   8.495  -2.028  0.00  0.00    -0.023 C 
ATOM      6  C   UNL     1       0.779   9.806  -1.665  0.00  0.00    +0.049 C 
ATOM      7  C   UNL     1       1.496  10.479  -0.537  0.00  0.00    -0.019 A 
ATOM      8  C   UNL     1       2.708  11.094  -0.797  0.00  0.00    +0.019 A 
ATOM      9  C   UNL     1       3.410  11.730   0.227  0.00  0.00    +0.037 A 
ATOM     10  C   UNL     1       2.891  11.749   1.525  0.00  0.00    +0.015 A 
ATOM     11  C   UNL     1       1.686  11.138   1.782  0.00  0.00    +0.024 A 
ATOM     12  C   UNL     1       0.988  10.504   0.756  0.00  0.00    +0.031 A 
ATOM     13  N   UNL     1      -0.230   9.891   1.041  0.00  0.00    -0.336 N 
ATOM     14  H   UNL     1      -0.735  10.135   1.833  0.00  0.00    +0.147 HD
ENDROOT
BRANCH   1  26
ATOM     15  N   UNL     1       2.678   4.388   0.548  0.00  0.00    -0.340 N 
ATOM     16  C   UNL     1       3.885   4.994   0.851  0.00  0.00    +0.050 A 
ATOM     17  C   UNL     1       5.156   4.481   1.092  0.00  0.00    +0.026 A 
ATOM     18  C   UNL     1       6.201   5.332   1.377  0.00  0.00    +0.002 A 
ATOM     19  C   UNL     1       5.999   6.703   1.433  0.00  0.00    +0.001 A 
ATOM     20  C   UNL     1       4.748   7.230   1.192  0.00  0.00    +0.010 A 
ATOM     21  C   UNL     1       3.683   6.381   0.902  0.00  0.00    +0.008 A 
ATOM     22  C   UNL     1       2.256   6.607   0.608  0.00  0.00    +0.008 A 
ATOM     23  C   UNL     1       1.687   5.342   0.398  0.00  0.00    +0.050 A 
ATOM     24  C   UNL     1       0.333   5.245   0.097  0.00  0.00    +0.027 A 
ATOM     25  C   UNL     1      -0.438   6.385   0.008  0.00  0.00    +0.007 A 
ATOM     26  C   UNL     1       0.126   7.634   0.216  0.00  0.00    -0.026 A 
ATOM     27  C   UNL     1       1.466   7.751   0.515  0.00  0.00    +0.016 A 
BRANCH  15  29
ATOM     28  C   UNL     1       2.104   2.344   1.762  0.00  0.00    +0.027 C 
ATOM     29  C   UNL     1       2.479   2.944   0.405  0.00  0.00    +0.119 C 
ENDBRANCH  15  29
ENDBRANCH   1  26
BRANCH   9  30
ATOM     30  C   UNL     1       4.702  12.383  -0.060  0.00  0.00    +0.247 C 
ATOM     31  O   UNL     1       4.853  13.001  -1.096  0.00  0.00    -0.270 OA
ATOM     32  N   UNL     1       5.714  12.293   0.825  0.00  0.00    -0.298 N 
ATOM     33  C   UNL     1       6.928  13.034   0.567  0.00  0.00    +0.108 C 
ATOM     34  C   UNL     1       7.898  12.176  -0.273  0.00  0.00    +0.019 C 
ATOM     35  C   UNL     1       8.448  11.082   0.542  0.00  0.00    +0.002 C 
ATOM     36  C   UNL     1       7.406  10.090   1.049  0.00  0.00    +0.002 C 
ATOM     37  C   UNL     1       6.799  10.613   2.328  0.00  0.00    +0.019 C 
ATOM     38  C   UNL     1       5.538  11.439   2.016  0.00  0.00    +0.108 C 
ENDBRANCH   9  30
TORSDOF 3
