REMARK  Name = ZINC09434586
REMARK  14 active torsions:
REMARK  status: ('A' for Active; 'I' for Inactive)
REMARK    1  A    between atoms: C_1  and  C_2
REMARK    2  A    between atoms: C_2  and  C_3
REMARK    3  A    between atoms: C_3  and  N_62
REMARK    4  A    between atoms: C_4  and  C_5
REMARK    5  A    between atoms: C_4  and  N_62
REMARK    6  A    between atoms: C_5  and  C_6
REMARK    7  A    between atoms: C_7  and  N_8
REMARK    8  A    between atoms: C_7  and  N_62
REMARK    9  A    between atoms: N_16  and  N_17
REMARK   10  A    between atoms: C_18  and  C_20
REMARK   11  A    between atoms: C_20  and  O_21
REMARK   12  A    between atoms: O_21  and  C_22
REMARK   13  A    between atoms: C_25  and  O_28
REMARK   14  A    between atoms: O_28  and  C_29
REMARK                            x       y       z     vdW  Elec       q    Type
REMARK                         _______ _______ _______ _____ _____    ______ ____
ROOT
ATOM      1  N   UNL     1       6.113  -0.400 -10.674  0.00  0.00    -0.282 N 
ATOM      2  C   UNL     1       6.452  -1.699 -11.038  0.00  0.00    +0.044 A 
ATOM      3  C   UNL     1       7.159  -2.198 -12.127  0.00  0.00    +0.025 A 
ATOM      4  C   UNL     1       7.361  -3.557 -12.258  0.00  0.00    +0.017 A 
ATOM      5  C   UNL     1       6.864  -4.439 -11.311  0.00  0.00    +0.019 A 
ATOM      6  C   UNL     1       6.159  -3.961 -10.224  0.00  0.00    +0.027 A 
ATOM      7  C   UNL     1       5.957  -2.593 -10.080  0.00  0.00    +0.029 A 
ATOM      8  C   UNL     1       5.258  -1.773  -9.064  0.00  0.00    +0.153 C 
ATOM      9  N   UNL     1       4.640  -2.192  -7.986  0.00  0.00    -0.174 NA
ATOM     10  C   UNL     1       5.413  -0.379  -9.526  0.00  0.00    +0.270 C 
ATOM     11  O   UNL     1       4.984   0.614  -8.968  0.00  0.00    -0.268 OA
ATOM     12 BR   UNL     1       7.152  -6.298 -11.509  0.00  0.00    -0.050 Br
ENDROOT
BRANCH   9  13
ATOM     13  N   UNL     1       4.032  -1.270  -7.124  0.00  0.00    -0.203 N 
ATOM     14  C   UNL     1       3.397  -1.702  -6.016  0.00  0.00    +0.270 C 
ATOM     15  O   UNL     1       3.352  -2.887  -5.766  0.00  0.00    -0.270 OA
ATOM     16  H   UNL     1       4.068  -0.322  -7.324  0.00  0.00    +0.177 HD
BRANCH  14  17
ATOM     17  C   UNL     1       2.743  -0.710  -5.089  0.00  0.00    +0.326 C 
BRANCH  17  18
ATOM     18  O   UNL     1       2.140  -1.406  -3.996  0.00  0.00    -0.483 OA
BRANCH  18  19
ATOM     19  C   UNL     1       1.503  -0.653  -3.060  0.00  0.00    +0.121 A 
ATOM     20  C   UNL     1       0.897  -1.264  -1.973  0.00  0.00    +0.049 A 
ATOM     21  C   UNL     1       0.250  -0.499  -1.022  0.00  0.00    +0.049 A 
ATOM     22  C   UNL     1       0.207   0.881  -1.154  0.00  0.00    +0.120 A 
ATOM     23  C   UNL     1       0.809   1.492  -2.244  0.00  0.00    +0.049 A 
ATOM     24  C   UNL     1       1.459   0.727  -3.193  0.00  0.00    +0.049 A 
BRANCH  22  25
ATOM     25  O   UNL     1      -0.429   1.635  -0.218  0.00  0.00    -0.495 OA
ATOM     26  C   UNL     1      -0.434   3.050  -0.418  0.00  0.00    +0.277 C 
ENDBRANCH  22  25
ENDBRANCH  18  19
ENDBRANCH  17  18
ENDBRANCH  14  17
ENDBRANCH   9  13
BRANCH   1  27
ATOM     27  C   UNL     1       6.473   0.793 -11.443  0.00  0.00    +0.039 C 
BRANCH  27  28
ATOM     28  N   UNL     1       7.776   1.293 -10.955  0.00  0.00    +0.390 N 
ATOM     29  H   UNL     1       7.856   1.089  -9.952  0.00  0.00    -0.080 HD
BRANCH  28  30
ATOM     30  C   UNL     1       8.877   0.616 -11.672  0.00  0.00    -0.077 C 
BRANCH  30  32
ATOM     31  C   UNL     1      10.056   0.345 -13.858  0.00  0.00    +0.002 C 
ATOM     32  C   UNL     1       8.849   0.975 -13.159  0.00  0.00    -0.022 C 
ENDBRANCH  30  32
ENDBRANCH  28  30
BRANCH  28  33
ATOM     33  C   UNL     1       7.864   2.754 -11.158  0.00  0.00    -0.077 C 
BRANCH  33  34
ATOM     34  C   UNL     1       9.165   3.263 -10.534  0.00  0.00    -0.022 C 
ATOM     35  C   UNL     1       9.198   4.791 -10.596  0.00  0.00    +0.002 C 
ENDBRANCH  33  34
ENDBRANCH  28  33
ENDBRANCH  27  28
ENDBRANCH   1  27
TORSDOF 11
