REMARK  Name = ZINC29185634
REMARK  8 active torsions:
REMARK  status: ('A' for Active; 'I' for Inactive)
REMARK    1  A    between atoms: C_1  and  C_2
REMARK    2  A    between atoms: C_2  and  C_4
REMARK    3  A    between atoms: C_2  and  N_14
REMARK    4  A    between atoms: C_6  and  O_12
REMARK    5  A    between atoms: C_9  and  O_10
REMARK    6  A    between atoms: O_10  and  C_11
REMARK    7  A    between atoms: O_12  and  C_13
REMARK    8  A    between atoms: N_14  and  C_15
REMARK                            x       y       z     vdW  Elec       q    Type
REMARK                         _______ _______ _______ _____ _____    ______ ____
ROOT
ATOM      1  N   UNL     1       2.387   4.170   0.092  0.00  0.00    -0.342 N 
ATOM      2  H   UNL     1       3.343   3.628   0.071  0.00  0.00    +0.146 HD
ENDROOT
BRANCH   1   3
ATOM      3  C   UNL     1       1.216   3.487  -0.001  0.00  0.00    +0.081 C 
ATOM      4  C   UNL     1       1.218   2.110   0.025  0.00  0.00    +0.058 C 
ATOM      5  C   UNL     1       2.289   1.364   0.718  0.00  0.00    +0.000 A 
ATOM      6  C   UNL     1       3.331   2.015   1.368  0.00  0.00    +0.009 A 
ATOM      7  C   UNL     1       4.308   1.273   2.001  0.00  0.00    +0.001 A 
ATOM      8  C   UNL     1       4.256  -0.114   1.993  0.00  0.00    +0.001 A 
ATOM      9  C   UNL     1       3.231  -0.776   1.353  0.00  0.00    +0.013 A 
ATOM     10  C   UNL     1       2.233  -0.045   0.708  0.00  0.00    +0.045 A 
ATOM     11  C   UNL     1       1.123  -0.712   0.014  0.00  0.00    +0.251 C 
ATOM     12  O   UNL     1       1.069  -1.927   0.002  0.00  0.00    -0.270 OA
ATOM     13  N   UNL     1       0.166  -0.002  -0.606  0.00  0.00    -0.248 N 
ATOM     14  C   UNL     1       0.157   1.340  -0.635  0.00  0.00    +0.252 C 
ATOM     15  O   UNL     1      -0.737   1.925  -1.219  0.00  0.00    -0.270 OA
ATOM     16  H   UNL     1      -0.657  -0.520  -1.119  0.00  0.00    +0.158 HD
ENDBRANCH   1   3
BRANCH   1  18
ATOM     17  C   UNL     1       2.327   6.010   1.703  0.00  0.00    +0.033 C 
ATOM     18  C   UNL     1       2.375   5.630   0.222  0.00  0.00    +0.101 C 
BRANCH  18  19
ATOM     19  C   UNL     1       3.623   6.199  -0.403  0.00  0.00    +0.017 A 
ATOM     20  C   UNL     1       4.763   5.426  -0.496  0.00  0.00    +0.054 A 
ATOM     21  C   UNL     1       5.911   5.950  -1.072  0.00  0.00    +0.121 A 
ATOM     22  C   UNL     1       5.914   7.250  -1.554  0.00  0.00    +0.049 A 
ATOM     23  C   UNL     1       4.773   8.023  -1.462  0.00  0.00    +0.049 A 
ATOM     24  C   UNL     1       3.623   7.498  -0.890  0.00  0.00    +0.125 A 
BRANCH  24  25
ATOM     25  O   UNL     1       2.499   8.257  -0.804  0.00  0.00    -0.495 OA
ATOM     26  C   UNL     1       2.571   9.585  -1.325  0.00  0.00    +0.277 C 
ENDBRANCH  24  25
BRANCH  21  27
ATOM     27  O   UNL     1       7.034   5.189  -1.163  0.00  0.00    -0.495 OA
ATOM     28  C   UNL     1       8.180   5.792  -1.768  0.00  0.00    +0.277 C 
ENDBRANCH  21  27
ENDBRANCH  18  19
ENDBRANCH   1  18
TORSDOF 5
