REMARK  Name = ZINC20153407
REMARK  10 active torsions:
REMARK  status: ('A' for Active; 'I' for Inactive)
REMARK    1  A    between atoms: C_1  and  C_2
REMARK    2  A    between atoms: C_6  and  C_10
REMARK    3  A    between atoms: C_7  and  O_8
REMARK    4  A    between atoms: O_8  and  C_9
REMARK    5  A    between atoms: N_12  and  C_13
REMARK    6  A    between atoms: C_13  and  N_15
REMARK    7  A    between atoms: N_15  and  C_16
REMARK    8  A    between atoms: C_18  and  C_25
REMARK    9  A    between atoms: C_21  and  O_22
REMARK   10  A    between atoms: O_22  and  C_23
REMARK                            x       y       z     vdW  Elec       q    Type
REMARK                         _______ _______ _______ _____ _____    ______ ____
ROOT
ATOM      1  C   UNL     1       0.333  -4.914   3.558  0.00  0.00    +0.141 C 
ATOM      2  S   UNL     1       0.665  -4.082   5.016  0.00  0.00    -0.018 S 
ENDROOT
BRANCH   1   5
ATOM      3  C   UNL     1       0.532  -2.914   2.371  0.00  0.00    +0.253 C 
ATOM      4  O   UNL     1       0.767  -2.323   3.407  0.00  0.00    -0.270 OA
ATOM      5  N   UNL     1       0.302  -4.242   2.390  0.00  0.00    -0.263 N 
ATOM      6  H   UNL     1       0.114  -4.713   1.564  0.00  0.00    +0.157 HD
BRANCH   3  12
ATOM      7  C   UNL     1       0.955   1.371  -0.170  0.00  0.00    +0.047 C 
ATOM      8  C   UNL     1       0.700  -0.114  -0.138  0.00  0.00    -0.007 A 
ATOM      9  C   UNL     1       0.432  -0.794  -1.310  0.00  0.00    +0.022 A 
ATOM     10  C   UNL     1       0.197  -2.159  -1.290  0.00  0.00    +0.019 A 
ATOM     11  C   UNL     1       0.227  -2.854  -0.099  0.00  0.00    +0.032 A 
ATOM     12  C   UNL     1       0.497  -2.178   1.093  0.00  0.00    +0.080 A 
ATOM     13  C   UNL     1       0.740  -0.797   1.068  0.00  0.00    +0.135 A 
ATOM     14 BR   UNL     1      -0.170  -3.075  -2.904  0.00  0.00    -0.050 Br
BRANCH  13  15
ATOM     15  O   UNL     1       1.008  -0.132   2.220  0.00  0.00    -0.494 OA
ATOM     16  C   UNL     1      -0.108   0.403   2.934  0.00  0.00    +0.277 C 
ENDBRANCH  13  15
ENDBRANCH   3  12
ENDBRANCH   1   5
BRANCH   1  17
ATOM     17  N   UNL     1       0.104  -6.242   3.577  0.00  0.00    -0.294 N 
ATOM     18  H   UNL     1      -0.145  -6.703   2.761  0.00  0.00    +0.154 HD
BRANCH  17  19
ATOM     19  C   UNL     1       0.225  -6.957   4.776  0.00  0.00    +0.077 A 
ATOM     20  C   UNL     1      -0.365  -6.476   5.930  0.00  0.00    +0.042 A 
ATOM     21  C   UNL     1      -0.242  -7.192   7.125  0.00  0.00    +0.067 A 
ATOM     22  C   UNL     1       0.477  -8.391   7.147  0.00  0.00    +0.039 A 
ATOM     23  C   UNL     1       1.063  -8.865   5.993  0.00  0.00    +0.085 A 
ATOM     24  C   UNL     1       0.936  -8.157   4.804  0.00  0.00    +0.159 A 
ATOM     25 CL   UNL     1       1.955 -10.354   6.024  0.00  0.00    -0.080 Cl
BRANCH  21  26
ATOM     26  C   UNL     1      -0.868  -6.684   8.358  0.00  0.00    +0.387 C 
ATOM     27  O   UNL     1      -1.497  -5.635   8.337  0.00  0.00    -0.241 OA
ATOM     28  O   UNL     1      -0.760  -7.311   9.402  0.00  0.00    -0.241 OA
ENDBRANCH  21  26
BRANCH  24  29
ATOM     29  O   UNL     1       1.510  -8.631   3.669  0.00  0.00    -0.492 OA
ATOM     30  C   UNL     1       2.852  -8.219   3.400  0.00  0.00    +0.277 C 
ENDBRANCH  24  29
ENDBRANCH  17  19
ENDBRANCH   1  17
TORSDOF 7
