REMARK  Name = ZINC06057920
REMARK  6 active torsions:
REMARK  status: ('A' for Active; 'I' for Inactive)
REMARK    1  A    between atoms: C_1  and  C_2
REMARK    2  A    between atoms: C_5  and  C_8
REMARK    3  A    between atoms: C_11  and  S_14
REMARK    4  A    between atoms: N_12  and  N_13
REMARK    5  A    between atoms: S_14  and  C_15
REMARK    6  A    between atoms: C_15  and  C_16
REMARK                            x       y       z     vdW  Elec       q    Type
REMARK                         _______ _______ _______ _____ _____    ______ ____
ROOT
ATOM      1  S   UNL     1      -1.476  -3.598  -0.409  0.00  0.00    -0.075 S 
ENDROOT
BRANCH   1   5
ATOM      2  C   UNL     1       0.002  -0.004   0.002  0.00  0.00    +0.182 A 
ATOM      3  N   UNL     1       1.035  -0.772   0.262  0.00  0.00    -0.127 NA
ATOM      4  N   UNL     1       0.698  -2.008   0.164  0.00  0.00    -0.121 NA
ATOM      5  C   UNL     1      -0.571  -2.105  -0.164  0.00  0.00    +0.209 A 
ATOM      6  N   UNL     1      -1.060  -0.835  -0.273  0.00  0.00    -0.224 N 
BRANCH   2  11
ATOM      7  C   UNL     1      -0.076   5.750   0.035  0.00  0.00    +0.044 C 
ATOM      8  C   UNL     1      -0.056   4.243   0.026  0.00  0.00    -0.050 A 
ATOM      9  C   UNL     1       1.154   3.571   0.010  0.00  0.00    +0.004 A 
ATOM     10  C   UNL     1       1.179   2.191   0.003  0.00  0.00    +0.012 A 
ATOM     11  C   UNL     1      -0.018   1.474   0.010  0.00  0.00    +0.021 A 
ATOM     12  C   UNL     1      -1.234   2.159   0.020  0.00  0.00    +0.012 A 
ATOM     13  C   UNL     1      -1.246   3.538   0.033  0.00  0.00    +0.004 A 
ENDBRANCH   2  11
BRANCH   6  14
ATOM     14  N   UNL     1      -2.336  -0.466  -0.592  0.00  0.00    -0.295 N 
ATOM     15  H   UNL     1      -2.443  -0.360  -1.590  0.00  0.00    +0.163 HD
ATOM     16  H   UNL     1      -3.005  -1.125  -0.224  0.00  0.00    +0.163 HD
ENDBRANCH   6  14
ENDBRANCH   1   5
BRANCH   1  17
ATOM     17  C   UNL     1      -0.173  -4.812  -0.085  0.00  0.00    +0.173 C 
BRANCH  17  18
ATOM     18  C   UNL     1      -0.733  -6.202  -0.241  0.00  0.00    +0.231 C 
ATOM     19  O   UNL     1      -1.897  -6.357  -0.542  0.00  0.00    -0.274 OA
ATOM     20  N   UNL     1       0.061  -7.274  -0.046  0.00  0.00    -0.260 N 
ATOM     21  C   UNL     1       1.478  -7.113   0.314  0.00  0.00    +0.209 C 
ATOM     22  C   UNL     1       2.301  -8.105  -0.461  0.00  0.00    +0.235 C 
ATOM     23  O   UNL     1       3.451  -7.840  -0.739  0.00  0.00    -0.274 OA
ATOM     24  N   UNL     1       1.776  -9.281  -0.852  0.00  0.00    -0.283 N 
ATOM     25  C   UNL     1       0.438  -9.591  -0.587  0.00  0.00    +0.055 A 
ATOM     26  C   UNL     1      -0.436  -8.579  -0.185  0.00  0.00    +0.058 A 
ATOM     27  C   UNL     1      -1.765  -8.868   0.068  0.00  0.00    +0.025 A 
ATOM     28  C   UNL     1      -2.225 -10.165  -0.074  0.00  0.00    +0.002 A 
ATOM     29  C   UNL     1      -1.360 -11.170  -0.468  0.00  0.00    +0.002 A 
ATOM     30  C   UNL     1      -0.031 -10.887  -0.724  0.00  0.00    +0.025 A 
ATOM     31  H   UNL     1       2.332  -9.921  -1.323  0.00  0.00    +0.155 HD
ENDBRANCH  17  18
ENDBRANCH   1  17
TORSDOF 5
