REMARK  Name = ZINC12141383
REMARK  12 active torsions:
REMARK  status: ('A' for Active; 'I' for Inactive)
REMARK    1  A    between atoms: C_1  and  C_2
REMARK    2  A    between atoms: C_5  and  S_9
REMARK    3  A    between atoms: S_9  and  N_12
REMARK    4  A    between atoms: N_12  and  C_13
REMARK    5  A    between atoms: C_13  and  C_14
REMARK    6  A    between atoms: C_14  and  N_46
REMARK    7  A    between atoms: C_15  and  C_16
REMARK    8  A    between atoms: C_15  and  C_17
REMARK    9  A    between atoms: C_15  and  N_46
REMARK   10  A    between atoms: C_18  and  C_19
REMARK   11  A    between atoms: C_18  and  C_20
REMARK   12  A    between atoms: C_18  and  N_46
REMARK                            x       y       z     vdW  Elec       q    Type
REMARK                         _______ _______ _______ _____ _____    ______ ____
ROOT
ATOM      1  N   UNL     1       0.258   1.203   0.004  0.00  0.00    -0.192 NA
ATOM      2  H   UNL     1       0.268   0.235  -0.056  0.00  0.00    +0.148 HD
ENDROOT
BRANCH   1   3
ATOM      3  S   UNL     1      -1.182   2.008   0.147  0.00  0.00    +0.059 S 
ATOM      4  O   UNL     1      -2.193   1.016   0.260  0.00  0.00    -0.153 OA
ATOM      5  O   UNL     1      -1.196   2.999  -0.871  0.00  0.00    -0.153 OA
BRANCH   3  10
ATOM      6  C   UNL     1      -1.065   4.951   5.414  0.00  0.00    +0.044 C 
ATOM      7  C   UNL     1      -1.093   4.216   4.099  0.00  0.00    -0.049 A 
ATOM      8  C   UNL     1      -1.146   4.923   2.913  0.00  0.00    +0.005 A 
ATOM      9  C   UNL     1      -1.173   4.250   1.706  0.00  0.00    +0.030 A 
ATOM     10  C   UNL     1      -1.147   2.868   1.685  0.00  0.00    +0.119 A 
ATOM     11  C   UNL     1      -1.099   2.159   2.872  0.00  0.00    +0.044 A 
ATOM     12  C   UNL     1      -1.067   2.834   4.080  0.00  0.00    +0.020 A 
ATOM     13 BR   UNL     1      -1.071   0.269   2.845  0.00  0.00    -0.048 Br
ENDBRANCH   3  10
ENDBRANCH   1   3
BRANCH   1  14
ATOM     14  C   UNL     1       1.516   1.953  -0.040  0.00  0.00    +0.087 C 
BRANCH  14  15
ATOM     15  C   UNL     1       2.680   1.015   0.284  0.00  0.00    -0.061 C 
BRANCH  15  16
ATOM     16  N   UNL     1       3.915   1.817   0.409  0.00  0.00    +0.384 N 
ATOM     17  H   UNL     1       3.719   2.643   0.987  0.00  0.00    -0.081 HD
BRANCH  16  18
ATOM     18  C   UNL     1       4.974   1.016   1.060  0.00  0.00    -0.074 C 
ATOM     19  C   UNL     1       5.465  -0.088   0.122  0.00  0.00    -0.014 C 
ATOM     20  C   UNL     1       6.141   1.939   1.417  0.00  0.00    -0.014 C 
ENDBRANCH  16  18
BRANCH  16  21
ATOM     21  C   UNL     1       4.367   2.261  -0.926  0.00  0.00    -0.074 C 
ATOM     22  C   UNL     1       3.935   1.256  -1.996  0.00  0.00    -0.014 C 
ATOM     23  C   UNL     1       3.740   3.624  -1.224  0.00  0.00    -0.014 C 
ENDBRANCH  16  21
ENDBRANCH  15  16
ENDBRANCH  14  15
ENDBRANCH   1  14
TORSDOF 7
