REMARK  Name = ZINC07141464
REMARK  3 active torsions:
REMARK  status: ('A' for Active; 'I' for Inactive)
REMARK    1  A    between atoms: C_6  and  S_7
REMARK    2  A    between atoms: S_7  and  N_10
REMARK    3  A    between atoms: N_10  and  C_11
REMARK                            x       y       z     vdW  Elec       q    Type
REMARK                         _______ _______ _______ _____ _____    ______ ____
ROOT
ATOM      1  N   UNL     1      -1.403   5.447   0.164  0.00  0.00    -0.184 NA
ATOM      2  H   UNL     1      -0.800   6.056   0.618  0.00  0.00    +0.149 HD
ENDROOT
BRANCH   1   3
ATOM      3  C   UNL     1      -1.663   4.119   0.726  0.00  0.00    +0.041 C 
ATOM      4  C   UNL     1      -0.995   3.055  -0.148  0.00  0.00    +0.027 C 
ATOM      5  C   UNL     1      -1.266   1.669   0.439  0.00  0.00    -0.009 C 
ATOM      6  C   UNL     1      -0.696   1.595   1.857  0.00  0.00    +0.007 C 
ATOM      7  C   UNL     1      -1.364   2.658   2.731  0.00  0.00    -0.009 C 
ATOM      8  C   UNL     1      -1.093   4.045   2.144  0.00  0.00    +0.027 C 
ATOM      9  C   UNL     1      -2.873   2.409   2.774  0.00  0.00    +0.007 C 
ATOM     10  C   UNL     1      -3.443   2.483   1.356  0.00  0.00    -0.009 C 
ATOM     11  C   UNL     1      -2.775   1.419   0.482  0.00  0.00    +0.007 C 
ATOM     12  C   UNL     1      -3.172   3.869   0.769  0.00  0.00    +0.027 C 
ENDBRANCH   1   3
BRANCH   1  13
ATOM     13  S   UNL     1      -2.139   5.907  -1.246  0.00  0.00    +0.059 S 
ATOM     14  O   UNL     1      -1.538   7.134  -1.635  0.00  0.00    -0.153 OA
ATOM     15  O   UNL     1      -2.153   4.764  -2.089  0.00  0.00    -0.153 OA
BRANCH  13  21
ATOM     16  C   UNL     1      -4.805   5.336  -1.121  0.00  0.00    +0.030 A 
ATOM     17  C   UNL     1      -6.124   5.617  -0.815  0.00  0.00    +0.023 A 
ATOM     18  C   UNL     1      -6.459   6.838  -0.260  0.00  0.00    +0.059 A 
ATOM     19  C   UNL     1      -5.473   7.777  -0.005  0.00  0.00    +0.061 A 
ATOM     20  C   UNL     1      -4.154   7.491  -0.306  0.00  0.00    +0.050 A 
ATOM     21  C   UNL     1      -3.820   6.270  -0.861  0.00  0.00    +0.107 A 
ATOM     22 CL   UNL     1      -5.893   9.310   0.694  0.00  0.00    -0.082 Cl
ATOM     23 CL   UNL     1      -8.116   7.194   0.119  0.00  0.00    -0.082 Cl
ENDBRANCH  13  21
ENDBRANCH   1  13
TORSDOF 3
