REMARK  Name = ZINC39500660
REMARK  8 active torsions:
REMARK  status: ('A' for Active; 'I' for Inactive)
REMARK    1  A    between atoms: C_4  and  C_7
REMARK    2  A    between atoms: C_10  and  C_13
REMARK    3  A    between atoms: C_13  and  N_14
REMARK    4  A    between atoms: N_14  and  C_15
REMARK    5  A    between atoms: N_18  and  C_21
REMARK    6  A    between atoms: C_24  and  C_27
REMARK    7  A    between atoms: C_27  and  C_28
REMARK    8  A    between atoms: C_33  and  O_36
REMARK                            x       y       z     vdW  Elec       q    Type
REMARK                         _______ _______ _______ _____ _____    ______ ____
ROOT
ATOM      1  C   UNL     1       5.875  -5.183  -3.201  0.00  0.00    -0.068 C 
ATOM      2  C   UNL     1       4.810  -6.283  -3.203  0.00  0.00    +0.003 C 
ATOM      3  C   UNL     1       5.091  -7.258  -4.351  0.00  0.00    +0.103 C 
ATOM      4  N   UNL     1       6.469  -7.752  -4.225  0.00  0.00    -0.330 N 
ATOM      5  C   UNL     1       7.563  -6.776  -4.123  0.00  0.00    +0.103 C 
ATOM      6  C   UNL     1       7.254  -5.806  -2.978  0.00  0.00    +0.003 C 
ENDROOT
BRANCH   4   7
ATOM      7  C   UNL     1       6.734  -9.123  -4.201  0.00  0.00    +0.030 A 
ATOM      8  C   UNL     1       5.686 -10.034  -4.182  0.00  0.00    +0.023 A 
ATOM      9  C   UNL     1       5.952 -11.389  -4.160  0.00  0.00    +0.006 A 
ATOM     10  C   UNL     1       7.260 -11.839  -4.155  0.00  0.00    -0.039 A 
ATOM     11  C   UNL     1       8.306 -10.935  -4.175  0.00  0.00    +0.006 A 
ATOM     12  C   UNL     1       8.047  -9.578  -4.203  0.00  0.00    +0.023 A 
BRANCH  10  13
ATOM     13  C   UNL     1       7.546 -13.319  -4.130  0.00  0.00    +0.131 C 
BRANCH  13  14
ATOM     14  C   UNL     1       7.637 -13.837  -5.542  0.00  0.00    +0.220 C 
ATOM     15  O   UNL     1       7.484 -13.080  -6.477  0.00  0.00    -0.275 OA
ATOM     16  N   UNL     1       7.888 -15.143  -5.765  0.00  0.00    -0.301 N 
ATOM     17  C   UNL     1       8.068 -16.073  -4.643  0.00  0.00    +0.110 C 
ATOM     18  C   UNL     1       7.106 -17.252  -4.819  0.00  0.00    +0.050 C 
ATOM     19  C   UNL     1       7.323 -17.880  -6.198  0.00  0.00    +0.118 C 
ATOM     20  C   UNL     1       7.024 -16.845  -7.285  0.00  0.00    +0.050 C 
ATOM     21  C   UNL     1       7.979 -15.663  -7.136  0.00  0.00    +0.110 C 
BRANCH  19  22
ATOM     22  O   UNL     1       6.449 -19.000  -6.353  0.00  0.00    -0.392 OA
ATOM     23  H   UNL     1       6.532 -19.448  -7.206  0.00  0.00    +0.210 HD
ENDBRANCH  19  22
ENDBRANCH  13  14
ENDBRANCH  10  13
ENDBRANCH   4   7
BRANCH   1  24
ATOM     24  N   UNL     1       5.589  -4.228  -2.123  0.00  0.00    +0.385 N 
ATOM     25  H   UNL     1       6.333  -3.549  -2.069  0.00  0.00    -0.085 HD
ATOM     26  H   UNL     1       5.520  -4.721  -1.245  0.00  0.00    -0.085 HD
BRANCH  24  27
ATOM     27  C   UNL     1       4.320  -3.542  -2.399  0.00  0.00    -0.024 C 
BRANCH  27  30
ATOM     28  C   UNL     1       3.654  -0.719  -0.057  0.00  0.00    +0.153 C 
ATOM     29  C   UNL     1       3.977  -1.237  -1.447  0.00  0.00    +0.026 C 
ATOM     30  C   UNL     1       4.027  -2.562  -1.292  0.00  0.00    +0.043 C 
ATOM     31  N   UNL     1       3.779  -2.905  -0.009  0.00  0.00    -0.185 NA
ATOM     32  N   UNL     1       3.563  -1.950   0.747  0.00  0.00    -0.298 N 
ATOM     33  H   UNL     1       3.370  -2.000   1.696  0.00  0.00    +0.183 HD
BRANCH  28  37
ATOM     34  C   UNL     1      -0.075   1.366  -0.054  0.00  0.00    +0.000 A 
ATOM     35  C   UNL     1       1.112   2.073  -0.044  0.00  0.00    +0.000 A 
ATOM     36  C   UNL     1       2.319   1.399  -0.044  0.00  0.00    +0.006 A 
ATOM     37  C   UNL     1       2.338   0.017  -0.055  0.00  0.00    -0.020 A 
ATOM     38  C   UNL     1       1.151  -0.691  -0.064  0.00  0.00    +0.006 A 
ATOM     39  C   UNL     1      -0.056  -0.016  -0.065  0.00  0.00    +0.000 A 
ENDBRANCH  28  37
ENDBRANCH  27  30
ENDBRANCH  24  27
ENDBRANCH   1  24
TORSDOF 8
