REMARK  Name = ZINC14642253
REMARK  12 active torsions:
REMARK  status: ('A' for Active; 'I' for Inactive)
REMARK    1  A    between atoms: C_1  and  C_2
REMARK    2  A    between atoms: C_2  and  C_3
REMARK    3  A    between atoms: C_3  and  C_5
REMARK    4  A    between atoms: C_3  and  C_6
REMARK    5  A    between atoms: C_9  and  O_12
REMARK    6  A    between atoms: O_12  and  C_13
REMARK    7  A    between atoms: C_13  and  C_14
REMARK    8  A    between atoms: N_16  and  N_17
REMARK    9  A    between atoms: C_18  and  C_20
REMARK   10  A    between atoms: C_20  and  O_21
REMARK   11  A    between atoms: O_21  and  C_22
REMARK   12  A    between atoms: C_25  and  C_29
REMARK                            x       y       z     vdW  Elec       q    Type
REMARK                         _______ _______ _______ _____ _____    ______ ____
ROOT
ATOM      1  N   UNL     1       5.308  -1.538   8.842  0.00  0.00    -0.231 N 
ATOM      2  C   UNL     1       6.590  -1.400   9.236  0.00  0.00    +0.267 C 
ATOM      3  O   UNL     1       7.357  -0.728   8.581  0.00  0.00    -0.271 OA
ATOM      4  H   UNL     1       4.695  -2.076   9.367  0.00  0.00    +0.173 HD
ENDROOT
BRANCH   1   7
ATOM      5  C   UNL     1       3.582  -1.044   7.279  0.00  0.00    +0.267 C 
ATOM      6  O   UNL     1       2.814  -1.716   7.935  0.00  0.00    -0.271 OA
ATOM      7  N   UNL     1       4.863  -0.906   7.674  0.00  0.00    -0.231 N 
ATOM      8  H   UNL     1       5.477  -0.368   7.149  0.00  0.00    +0.173 HD
BRANCH   5   9
ATOM      9  C   UNL     1       3.103  -0.364   6.022  0.00  0.00    +0.326 C 
BRANCH   9  10
ATOM     10  O   UNL     1       1.720  -0.660   5.818  0.00  0.00    -0.483 OA
BRANCH  10  14
ATOM     11  C   UNL     1      -0.074   0.981   2.485  0.00  0.00    -0.044 A 
ATOM     12  C   UNL     1       1.264   1.222   2.738  0.00  0.00    +0.007 A 
ATOM     13  C   UNL     1       1.865   0.679   3.857  0.00  0.00    +0.046 A 
ATOM     14  C   UNL     1       1.129  -0.119   4.720  0.00  0.00    +0.121 A 
ATOM     15  C   UNL     1      -0.211  -0.365   4.461  0.00  0.00    +0.046 A 
ATOM     16  C   UNL     1      -0.810   0.185   3.344  0.00  0.00    +0.007 A 
BRANCH  11  17
ATOM     17  C   UNL     1      -0.729   1.579   1.267  0.00  0.00    +0.016 C 
ATOM     18  C   UNL     1      -0.641   3.105   1.339  0.00  0.00    +0.012 C 
BRANCH  17  20
ATOM     19  C   UNL     1      -0.753   1.593  -1.232  0.00  0.00    +0.004 C 
ATOM     20  C   UNL     1      -0.013   1.086   0.008  0.00  0.00    +0.004 C 
ENDBRANCH  17  20
ENDBRANCH  11  17
ENDBRANCH  10  14
ENDBRANCH   9  10
ENDBRANCH   5   9
ENDBRANCH   1   7
BRANCH   2  21
ATOM     21  C   UNL     1       7.069  -2.080  10.493  0.00  0.00    +0.326 C 
BRANCH  21  22
ATOM     22  O   UNL     1       8.452  -1.785  10.697  0.00  0.00    -0.482 OA
BRANCH  22  23
ATOM     23  C   UNL     1       9.043  -2.325  11.795  0.00  0.00    +0.135 A 
ATOM     24  C   UNL     1       8.302  -3.119  12.660  0.00  0.00    +0.047 A 
ATOM     25  C   UNL     1       8.900  -3.674  13.772  0.00  0.00    +0.012 A 
ATOM     26  C   UNL     1      10.247  -3.427  14.034  0.00  0.00    -0.017 A 
ATOM     27  C   UNL     1      10.987  -2.625  13.167  0.00  0.00    +0.027 A 
ATOM     28  C   UNL     1      10.385  -2.077  12.053  0.00  0.00    +0.060 A 
ATOM     29 BR   UNL     1      11.387  -0.988  10.876  0.00  0.00    -0.046 Br
BRANCH  26  30
ATOM     30  C   UNL     1      10.892  -4.018  15.233  0.00  0.00    -0.018 A 
ATOM     31  C   UNL     1      12.239  -3.777  15.492  0.00  0.00    +0.008 A 
ATOM     32  C   UNL     1      12.832  -4.324  16.611  0.00  0.00    +0.001 A 
ATOM     33  C   UNL     1      12.094  -5.120  17.469  0.00  0.00    +0.000 A 
ATOM     34  C   UNL     1      10.758  -5.366  17.214  0.00  0.00    +0.001 A 
ATOM     35  C   UNL     1      10.153  -4.820  16.100  0.00  0.00    +0.008 A 
ENDBRANCH  26  30
ENDBRANCH  22  23
ENDBRANCH  21  22
ENDBRANCH   2  21
TORSDOF 10
