REMARK  Name = ZINC66420726
REMARK  9 active torsions:
REMARK  status: ('A' for Active; 'I' for Inactive)
REMARK    1  A    between atoms: C_1  and  C_2
REMARK    2  A    between atoms: C_2  and  C_3
REMARK    3  A    between atoms: C_3  and  C_4
REMARK    4  A    between atoms: C_4  and  C_6
REMARK    5  A    between atoms: C_4  and  N_27
REMARK    6  A    between atoms: N_11  and  C_14
REMARK    7  A    between atoms: C_14  and  C_15
REMARK    8  A    between atoms: N_17  and  C_18
REMARK    9  A    between atoms: C_23  and  C_26
REMARK                            x       y       z     vdW  Elec       q    Type
REMARK                         _______ _______ _______ _____ _____    ______ ____
ROOT
ATOM      1  C   UNL     1       1.444  -2.553  -2.489  0.00  0.00    +0.236 C 
ATOM      2  O   UNL     1       0.826  -3.187  -3.319  0.00  0.00    -0.274 OA
ATOM      3  N   UNL     1       2.759  -2.316  -2.664  0.00  0.00    -0.298 N 
ATOM      4  C   UNL     1       3.550  -1.647  -1.620  0.00  0.00    +0.123 C 
ATOM      5  C   UNL     1       4.312  -0.481  -2.259  0.00  0.00    +0.104 C 
ATOM      6  N   UNL     1       5.087  -0.976  -3.405  0.00  0.00    -0.291 NA
ATOM      7  C   UNL     1       4.207  -1.511  -4.452  0.00  0.00    +0.104 C 
ATOM      8  C   UNL     1       3.442  -2.725  -3.900  0.00  0.00    +0.123 C 
ENDROOT
BRANCH   1   9
ATOM      9  C   UNL     1       0.740  -2.031  -1.263  0.00  0.00    +0.160 C 
BRANCH   9  10
ATOM     10  N   UNL     1      -0.447  -2.848  -0.996  0.00  0.00    -0.288 N 
ATOM     11  C   UNL     1      -0.943  -2.926   0.255  0.00  0.00    +0.298 C 
ATOM     12  O   UNL     1      -0.406  -2.319   1.161  0.00  0.00    -0.253 OA
ATOM     13  N   UNL     1      -2.035  -3.677   0.500  0.00  0.00    -0.313 N 
ATOM     14  H   UNL     1      -0.875  -3.332  -1.719  0.00  0.00    +0.151 HD
ATOM     15  H   UNL     1      -2.463  -4.162  -0.223  0.00  0.00    +0.146 HD
ATOM     16  H   UNL     1      -2.392  -3.734   1.400  0.00  0.00    +0.146 HD
ENDBRANCH   9  10
BRANCH   9  17
ATOM     17  C   UNL     1       0.318  -0.579  -1.497  0.00  0.00    +0.031 C 
BRANCH  17  19
ATOM     18  C   UNL     1      -0.685   1.450  -0.439  0.00  0.00    +0.004 C 
ATOM     19  C   UNL     1      -0.263  -0.002  -0.205  0.00  0.00    -0.001 C 
ENDBRANCH  17  19
ENDBRANCH   9  17
ENDBRANCH   1   9
BRANCH   6  20
ATOM     20  C   UNL     1       5.965   0.073  -3.939  0.00  0.00    +0.180 C 
BRANCH  20  21
ATOM     21  C   UNL     1       6.914  -0.529  -4.943  0.00  0.00    +0.227 C 
ATOM     22  O   UNL     1       6.865  -1.716  -5.188  0.00  0.00    -0.274 OA
ATOM     23  N   UNL     1       7.818   0.251  -5.568  0.00  0.00    -0.311 N 
ATOM     24  H   UNL     1       7.858   1.201  -5.372  0.00  0.00    +0.149 HD
BRANCH  23  25
ATOM     25  C   UNL     1       8.741  -0.334  -6.543  0.00  0.00    +0.073 C 
ATOM     26  C   UNL     1       8.064  -0.394  -7.914  0.00  0.00    +0.022 C 
ATOM     27  C   UNL     1       7.683   1.020  -8.357  0.00  0.00    +0.002 C 
ATOM     28  C   UNL     1       8.943   1.883  -8.448  0.00  0.00    +0.003 C 
ATOM     29  C   UNL     1       9.620   1.943  -7.078  0.00  0.00    -0.012 C 
ATOM     30  C   UNL     1      10.001   0.529  -6.635  0.00  0.00    +0.025 C 
ATOM     31  C   UNL     1      10.880   2.806  -7.169  0.00  0.00    +0.007 C 
ENDBRANCH  23  25
ENDBRANCH  20  21
ENDBRANCH   6  20
TORSDOF 7
