REMARK  Name = ZINC09243145
REMARK  10 active torsions:
REMARK  status: ('A' for Active; 'I' for Inactive)
REMARK    1  A    between atoms: C_1  and  C_2
REMARK    2  A    between atoms: C_5  and  C_8
REMARK    3  A    between atoms: C_11  and  C_29
REMARK    4  A    between atoms: N_18  and  C_19
REMARK    5  A    between atoms: C_19  and  C_20
REMARK    6  A    between atoms: C_20  and  C_21
REMARK    7  A    between atoms: C_24  and  O_27
REMARK    8  A    between atoms: O_27  and  C_28
REMARK    9  A    between atoms: C_32  and  C_36
REMARK   10  A    between atoms: C_34  and  O_35
REMARK                            x       y       z     vdW  Elec       q    Type
REMARK                         _______ _______ _______ _____ _____    ______ ____
ROOT
ATOM      1  C   UNL     1       0.222  -3.875   0.255  0.00  0.00    +0.141 C 
ATOM      2  C   UNL     1       1.537  -4.604   0.267  0.00  0.00    +0.035 A 
ATOM      3  C   UNL     1       2.773  -4.818  -0.353  0.00  0.00    +0.102 A 
ATOM      4  N   UNL     1       3.425  -5.711   0.365  0.00  0.00    -0.173 NA
ATOM      5  N   UNL     1       2.724  -6.082   1.377  0.00  0.00    -0.272 N 
ATOM      6  H   UNL     1       3.005  -6.731   2.041  0.00  0.00    +0.189 HD
ATOM      7  C   UNL     1       1.526  -5.426   1.377  0.00  0.00    +0.126 A 
ATOM      8  C   UNL     1       0.248  -5.248   2.076  0.00  0.00    +0.265 C 
ATOM      9  O   UNL     1      -0.073  -5.831   3.094  0.00  0.00    -0.268 OA
ATOM     10  N   UNL     1      -0.518  -4.348   1.431  0.00  0.00    -0.285 N 
ENDROOT
BRANCH   3  11
ATOM     11  C   UNL     1       3.260  -4.162  -1.592  0.00  0.00    +0.045 A 
ATOM     12  C   UNL     1       2.415  -3.327  -2.320  0.00  0.00    +0.034 A 
ATOM     13  C   UNL     1       2.872  -2.719  -3.472  0.00  0.00    +0.045 A 
ATOM     14  C   UNL     1       4.169  -2.936  -3.907  0.00  0.00    -0.029 A 
ATOM     15  C   UNL     1       5.014  -3.763  -3.192  0.00  0.00    +0.050 A 
ATOM     16  C   UNL     1       4.569  -4.375  -2.031  0.00  0.00    +0.126 A 
ATOM     17  C   UNL     1       4.660  -2.268  -5.165  0.00  0.00    +0.045 C 
ATOM     18 CL   UNL     1       1.819  -1.679  -4.378  0.00  0.00    -0.083 Cl
BRANCH  16  19
ATOM     19  O   UNL     1       5.402  -5.183  -1.324  0.00  0.00    -0.506 OA
ATOM     20  H   UNL     1       5.372  -6.111  -1.594  0.00  0.00    +0.292 HD
ENDBRANCH  16  19
ENDBRANCH   3  11
BRANCH   1  25
ATOM     21  C   UNL     1       1.107   1.824   0.619  0.00  0.00    +0.044 C 
ATOM     22  C   UNL     1       0.876   0.338   0.524  0.00  0.00    -0.050 A 
ATOM     23  C   UNL     1       1.154  -0.475   1.607  0.00  0.00    +0.004 A 
ATOM     24  C   UNL     1       0.942  -1.839   1.520  0.00  0.00    +0.006 A 
ATOM     25  C   UNL     1       0.452  -2.388   0.350  0.00  0.00    -0.022 A 
ATOM     26  C   UNL     1       0.173  -1.575  -0.733  0.00  0.00    +0.006 A 
ATOM     27  C   UNL     1       0.381  -0.211  -0.644  0.00  0.00    +0.004 A 
ENDBRANCH   1  25
BRANCH  10  28
ATOM     28  C   UNL     1      -1.859  -3.915   1.834  0.00  0.00    +0.114 C 
BRANCH  28  29
ATOM     29  C   UNL     1      -2.905  -4.823   1.183  0.00  0.00    +0.054 C 
BRANCH  29  30
ATOM     30  C   UNL     1      -4.284  -4.377   1.597  0.00  0.00    -0.046 A 
ATOM     31  C   UNL     1      -4.865  -4.902   2.737  0.00  0.00    +0.007 A 
ATOM     32  C   UNL     1      -6.129  -4.495   3.118  0.00  0.00    +0.046 A 
ATOM     33  C   UNL     1      -6.815  -3.559   2.357  0.00  0.00    +0.120 A 
ATOM     34  C   UNL     1      -6.229  -3.034   1.214  0.00  0.00    +0.046 A 
ATOM     35  C   UNL     1      -4.962  -3.440   0.840  0.00  0.00    +0.007 A 
BRANCH  33  36
ATOM     36  O   UNL     1      -8.059  -3.158   2.729  0.00  0.00    -0.495 OA
ATOM     37  C   UNL     1      -8.705  -2.192   1.898  0.00  0.00    +0.277 C 
ENDBRANCH  33  36
ENDBRANCH  29  30
ENDBRANCH  28  29
ENDBRANCH  10  28
TORSDOF 7
