REMARK  Name = ZINC28876948
REMARK  10 active torsions:
REMARK  status: ('A' for Active; 'I' for Inactive)
REMARK    1  A    between atoms: C_1  and  N_2
REMARK    2  A    between atoms: N_2  and  C_3
REMARK    3  A    between atoms: N_2  and  C_16
REMARK    4  A    between atoms: C_3  and  C_4
REMARK    5  A    between atoms: C_4  and  C_5
REMARK    6  A    between atoms: N_7  and  C_8
REMARK    7  A    between atoms: C_9  and  C_13
REMARK    8  A    between atoms: C_16  and  C_17
REMARK    9  A    between atoms: C_17  and  O_18
REMARK   10  A    between atoms: O_18  and  C_19
REMARK                            x       y       z     vdW  Elec       q    Type
REMARK                         _______ _______ _______ _____ _____    ______ ____
ROOT
ATOM      1  C   UNL     1      -0.013   1.086   0.008  0.00  0.00    +0.077 C 
ENDROOT
BRANCH   1   2
ATOM      2  C   UNL     1      -0.742   1.585  -1.213  0.00  0.00    +0.216 C 
ATOM      3  O   UNL     1      -1.736   2.268  -1.088  0.00  0.00    -0.276 OA
ATOM      4  N   UNL     1      -0.288   1.272  -2.443  0.00  0.00    -0.279 N 
ATOM      5  H   UNL     1       0.614   0.653  -2.556  0.00  0.00    +0.155 HD
BRANCH   4   6
ATOM      6  C   UNL     1      -0.959   1.732  -3.566  0.00  0.00    +0.084 A 
ATOM      7  C   UNL     1      -0.646   1.522  -4.904  0.00  0.00    +0.065 A 
ATOM      8  C   UNL     1      -1.528   2.120  -5.878  0.00  0.00    +0.022 A 
ATOM      9  C   UNL     1      -2.567   2.835  -5.410  0.00  0.00    +0.048 A 
ATOM     10  S   UNL     1      -2.385   2.712  -3.642  0.00  0.00    -0.081 S 
BRANCH   7  11
ATOM     11  C   UNL     1       0.519   0.730  -5.307  0.00  0.00    +0.244 C 
ATOM     12  O   UNL     1       1.241   0.236  -4.460  0.00  0.00    -0.270 OA
ATOM     13  N   UNL     1       0.792   0.547  -6.614  0.00  0.00    -0.325 N 
ATOM     14  H   UNL     1       1.667  -0.047  -6.916  0.00  0.00    +0.145 HD
ATOM     15  H   UNL     1       0.140   0.994  -7.379  0.00  0.00    +0.145 HD
ENDBRANCH   7  11
ENDBRANCH   4   6
ENDBRANCH   1   2
BRANCH   1  16
ATOM     16  C   UNL     1      -0.729   1.579   1.267  0.00  0.00    -0.070 C 
BRANCH  16  18
ATOM     17  C   UNL     1      -0.102  -0.370   2.558  0.00  0.00    -0.096 C 
ATOM     18  N   UNL     1      -0.018   1.093   2.457  0.00  0.00    +0.380 N 
ATOM     19  H   UNL     1       1.042   1.364   2.352  0.00  0.00    -0.082 HD
BRANCH  18  20
ATOM     20  C   UNL     1      -0.530   1.735   3.675  0.00  0.00    -0.038 C 
BRANCH  20  21
ATOM     21  C   UNL     1       0.387   1.399   4.853  0.00  0.00    +0.210 C 
BRANCH  21  22
ATOM     22  O   UNL     1       1.675   1.977   4.633  0.00  0.00    -0.494 OA
BRANCH  22  23
ATOM     23  C   UNL     1       2.615   1.771   5.593  0.00  0.00    +0.120 A 
ATOM     24  C   UNL     1       2.302   1.033   6.725  0.00  0.00    +0.047 A 
ATOM     25  C   UNL     1       3.260   0.821   7.697  0.00  0.00    +0.023 A 
ATOM     26  C   UNL     1       4.529   1.353   7.548  0.00  0.00    +0.041 A 
ATOM     27  C   UNL     1       4.841   2.094   6.422  0.00  0.00    +0.023 A 
ATOM     28  C   UNL     1       3.887   2.304   5.445  0.00  0.00    +0.047 A 
ATOM     29 CL   UNL     1       5.729   1.090   8.774  0.00  0.00    -0.084 Cl
ENDBRANCH  22  23
ENDBRANCH  21  22
ENDBRANCH  20  21
ENDBRANCH  18  20
ENDBRANCH  16  18
ENDBRANCH   1  16
TORSDOF 9
