REMARK  Name = ZINC27469065
REMARK  4 active torsions:
REMARK  status: ('A' for Active; 'I' for Inactive)
REMARK    1  A    between atoms: C_4  and  C_7
REMARK    2  A    between atoms: C_8  and  C_9
REMARK    3  A    between atoms: C_12  and  C_15
REMARK    4  A    between atoms: C_16  and  C_28
REMARK                            x       y       z     vdW  Elec       q    Type
REMARK                         _______ _______ _______ _____ _____    ______ ____
ROOT
ATOM      1  C   UNL     1       5.200  -6.422   1.043  0.00  0.00    +0.070 A 
ATOM      2  C   UNL     1       5.415  -6.497   2.421  0.00  0.00    +0.005 A 
ATOM      3  C   UNL     1       5.678  -7.816   3.014  0.00  0.00    +0.008 A 
ATOM      4  C   UNL     1       5.899  -7.946   4.389  0.00  0.00    +0.030 A 
ATOM      5  C   UNL     1       6.144  -9.189   4.927  0.00  0.00    +0.042 A 
ATOM      6  C   UNL     1       6.173 -10.313   4.110  0.00  0.00    +0.022 A 
ATOM      7  C   UNL     1       5.957 -10.201   2.754  0.00  0.00    +0.028 A 
ATOM      8  C   UNL     1       5.707  -8.954   2.188  0.00  0.00    +0.050 A 
ATOM      9  N   UNL     1       5.490  -8.840   0.829  0.00  0.00    -0.322 N 
ATOM     10  H   UNL     1       5.514  -9.638   0.279  0.00  0.00    +0.169 HD
ATOM     11  C   UNL     1       5.240  -7.654   0.250  0.00  0.00    +0.259 A 
ATOM     12  O   UNL     1       5.050  -7.600  -0.952  0.00  0.00    -0.267 OA
ATOM     13 CL   UNL     1       6.418  -9.354   6.633  0.00  0.00    -0.084 Cl
ENDROOT
BRANCH   1  16
ATOM     14  C   UNL     1       5.140  -3.091  -0.862  0.00  0.00    +0.118 C 
ATOM     15  C   UNL     1       5.921  -4.351  -0.440  0.00  0.00    +0.085 C 
ATOM     16  C   UNL     1       4.933  -5.129   0.400  0.00  0.00    +0.074 C 
ATOM     17  N   UNL     1       3.819  -4.481   0.464  0.00  0.00    -0.190 NA
ATOM     18  N   UNL     1       3.819  -3.274  -0.238  0.00  0.00    -0.262 N 
ATOM     19  H   UNL     1       3.074  -2.656  -0.304  0.00  0.00    +0.169 HD
BRANCH  14  21
ATOM     20  C   UNL     1       6.115  -0.858  -1.157  0.00  0.00    +0.005 C 
ATOM     21  C   UNL     1       5.809  -1.850  -0.332  0.00  0.00    -0.003 C 
BRANCH  20  25
ATOM     22  C   UNL     1       8.001   2.642   0.338  0.00  0.00    +0.000 A 
ATOM     23  C   UNL     1       7.707   2.540  -1.010  0.00  0.00    +0.001 A 
ATOM     24  C   UNL     1       7.094   1.406  -1.502  0.00  0.00    +0.008 A 
ATOM     25  C   UNL     1       6.772   0.360  -0.636  0.00  0.00    -0.025 A 
ATOM     26  C   UNL     1       7.072   0.468   0.722  0.00  0.00    +0.008 A 
ATOM     27  C   UNL     1       7.684   1.608   1.201  0.00  0.00    +0.001 A 
ENDBRANCH  20  25
ENDBRANCH  14  21
ENDBRANCH   1  16
BRANCH   2  28
ATOM     28  C   UNL     1       5.378  -5.282   3.260  0.00  0.00    -0.016 A 
ATOM     29  C   UNL     1       6.360  -4.300   3.115  0.00  0.00    +0.008 A 
ATOM     30  C   UNL     1       6.320  -3.168   3.903  0.00  0.00    +0.001 A 
ATOM     31  C   UNL     1       5.310  -3.005   4.835  0.00  0.00    +0.000 A 
ATOM     32  C   UNL     1       4.335  -3.975   4.984  0.00  0.00    +0.001 A 
ATOM     33  C   UNL     1       4.359  -5.109   4.199  0.00  0.00    +0.008 A 
ENDBRANCH   2  28
TORSDOF 4
