REMARK  Name = ZINC36783984
REMARK  11 active torsions:
REMARK  status: ('A' for Active; 'I' for Inactive)
REMARK    1  A    between atoms: C_1  and  C_2
REMARK    2  A    between atoms: C_2  and  C_3
REMARK    3  A    between atoms: C_3  and  C_5
REMARK    4  A    between atoms: C_3  and  C_6
REMARK    5  A    between atoms: C_9  and  C_12
REMARK    6  A    between atoms: C_12  and  C_14
REMARK    7  A    between atoms: C_12  and  N_17
REMARK    8  A    between atoms: C_14  and  C_15
REMARK    9  A    between atoms: C_14  and  C_16
REMARK   10  A    between atoms: C_18  and  C_20
REMARK   11  A    between atoms: C_20  and  N_21
REMARK                            x       y       z     vdW  Elec       q    Type
REMARK                         _______ _______ _______ _____ _____    ______ ____
ROOT
ATOM      1  N   UNL     1       2.280  -6.682  -1.968  0.00  0.00    -0.307 N 
ATOM      2  C   UNL     1       2.266  -7.928  -2.481  0.00  0.00    +0.231 C 
ATOM      3  O   UNL     1       1.371  -8.693  -2.192  0.00  0.00    -0.274 OA
ATOM      4  H   UNL     1       2.996  -6.070  -2.200  0.00  0.00    +0.149 HD
ENDROOT
BRANCH   1   5
ATOM      5  C   UNL     1       1.213  -6.252  -1.060  0.00  0.00    +0.106 C 
BRANCH   5   9
ATOM      6  C   UNL     1       0.847  -1.998  -1.206  0.00  0.00    -0.045 A 
ATOM      7  C   UNL     1      -0.286  -2.787  -1.141  0.00  0.00    +0.004 A 
ATOM      8  C   UNL     1      -0.167  -4.164  -1.094  0.00  0.00    +0.006 A 
ATOM      9  C   UNL     1       1.084  -4.751  -1.113  0.00  0.00    -0.027 A 
ATOM     10  C   UNL     1       2.217  -3.962  -1.179  0.00  0.00    +0.006 A 
ATOM     11  C   UNL     1       2.098  -2.585  -1.230  0.00  0.00    +0.004 A 
BRANCH   6  12
ATOM     12  C   UNL     1       0.718  -0.497  -1.257  0.00  0.00    +0.016 C 
ATOM     13  C   UNL     1      -0.089  -0.097  -2.493  0.00  0.00    +0.012 C 
BRANCH  12  15
ATOM     14  C   UNL     1      -0.019   1.526   0.010  0.00  0.00    +0.004 C 
ATOM     15  C   UNL     1       0.002  -0.004   0.002  0.00  0.00    +0.004 C 
ENDBRANCH  12  15
ENDBRANCH   6  12
ENDBRANCH   5   9
BRANCH   5  16
ATOM     16  C   UNL     1       1.552  -6.685   0.367  0.00  0.00    +0.008 C 
ATOM     17  C   UNL     1       2.807  -5.948   0.839  0.00  0.00    +0.009 C 
ATOM     18  C   UNL     1       0.383  -6.347   1.294  0.00  0.00    +0.009 C 
ENDBRANCH   5  16
ENDBRANCH   1   5
BRANCH   2  19
ATOM     19  C   UNL     1       3.363  -8.370  -3.415  0.00  0.00    +0.213 C 
BRANCH  19  20
ATOM     20  N   UNL     1       3.122  -9.754  -3.830  0.00  0.00    -0.215 N 
ATOM     21  C   UNL     1       3.587 -10.838  -3.171  0.00  0.00    +0.251 C 
ATOM     22  O   UNL     1       4.258 -10.852  -2.161  0.00  0.00    -0.272 OA
ATOM     23  C   UNL     1       3.094 -12.023  -3.959  0.00  0.00    +0.138 C 
ATOM     24  C   UNL     1       2.208 -12.932  -3.097  0.00  0.00    +0.045 C 
ATOM     25  C   UNL     1       3.212 -14.004  -2.617  0.00  0.00    +0.038 C 
ATOM     26  C   UNL     1       4.303 -14.027  -3.668  0.00  0.00    -0.042 A 
ATOM     27  C   UNL     1       4.232 -12.881  -4.441  0.00  0.00    -0.012 A 
ATOM     28  C   UNL     1       5.140 -12.690  -5.470  0.00  0.00    +0.006 A 
ATOM     29  C   UNL     1       6.113 -13.637  -5.725  0.00  0.00    +0.000 A 
ATOM     30  C   UNL     1       6.182 -14.781  -4.953  0.00  0.00    +0.000 A 
ATOM     31  C   UNL     1       5.278 -14.975  -3.926  0.00  0.00    +0.004 A 
ATOM     32  N   UNL     1       2.342 -11.441  -5.070  0.00  0.00    -0.281 N 
ATOM     33  C   UNL     1       2.408 -10.103  -4.909  0.00  0.00    +0.310 C 
ATOM     34  O   UNL     1       1.882  -9.305  -5.659  0.00  0.00    -0.252 OA
ATOM     35  H   UNL     1       1.884 -11.920  -5.778  0.00  0.00    +0.152 HD
ENDBRANCH  19  20
ENDBRANCH   2  19
TORSDOF 7
