REMARK  Name = ZINC08491748
REMARK  9 active torsions:
REMARK  status: ('A' for Active; 'I' for Inactive)
REMARK    1  A    between atoms: C_1  and  C_2
REMARK    2  A    between atoms: C_5  and  C_32
REMARK    3  A    between atoms: C_6  and  C_8
REMARK    4  A    between atoms: C_8  and  C_10
REMARK    5  A    between atoms: C_8  and  N_57
REMARK    6  A    between atoms: C_11  and  N_57
REMARK    7  A    between atoms: C_20  and  N_22
REMARK    8  A    between atoms: N_22  and  S_23
REMARK    9  A    between atoms: S_23  and  C_26
REMARK                            x       y       z     vdW  Elec       q    Type
REMARK                         _______ _______ _______ _____ _____    ______ ____
ROOT
ATOM      1  C   UNL     1       4.156  -0.159  -3.927  0.00  0.00    -0.021 C 
ATOM      2  C   UNL     1       5.344  -0.761  -4.646  0.00  0.00    -0.057 A 
ATOM      3  C   UNL     1       5.410  -1.463  -5.837  0.00  0.00    +0.002 A 
ATOM      4  C   UNL     1       6.625  -1.924  -6.306  0.00  0.00    +0.000 A 
ATOM      5  C   UNL     1       7.779  -1.683  -5.584  0.00  0.00    +0.000 A 
ATOM      6  C   UNL     1       7.715  -0.983  -4.395  0.00  0.00    +0.004 A 
ATOM      7  C   UNL     1       6.498  -0.521  -3.924  0.00  0.00    -0.044 A 
ATOM      8  C   UNL     1       6.164   0.259  -2.670  0.00  0.00    +0.054 C 
ATOM      9  C   UNL     1       4.641   0.090  -2.483  0.00  0.00    +0.071 C 
ENDROOT
BRANCH   1  10
ATOM     10  N   UNL     1       3.026  -1.107  -3.922  0.00  0.00    +0.389 N 
ATOM     11  H   UNL     1       3.390  -2.068  -3.915  0.00  0.00    -0.084 HD
ATOM     12  H   UNL     1       2.455  -0.951  -3.083  0.00  0.00    -0.084 HD
BRANCH  10  13
ATOM     13  C   UNL     1       2.190  -0.913  -5.122  0.00  0.00    -0.043 C 
ATOM     14  C   UNL     1       1.174   0.201  -4.862  0.00  0.00    -0.009 C 
BRANCH  13  20
ATOM     15  C   UNL     1       0.276  -5.282  -3.604  0.00  0.00    +0.044 C 
ATOM     16  C   UNL     1       0.545  -4.286  -4.703  0.00  0.00    -0.050 A 
ATOM     17  C   UNL     1       0.124  -4.550  -5.993  0.00  0.00    +0.003 A 
ATOM     18  C   UNL     1       0.371  -3.636  -7.001  0.00  0.00    +0.004 A 
ATOM     19  C   UNL     1       1.040  -2.460  -6.719  0.00  0.00    -0.049 A 
ATOM     20  C   UNL     1       1.461  -2.196  -5.429  0.00  0.00    -0.058 A 
ATOM     21  C   UNL     1       1.218  -3.112  -4.422  0.00  0.00    +0.005 A 
ATOM     22  C   UNL     1       1.310  -1.465  -7.818  0.00  0.00    +0.044 C 
ENDBRANCH  13  20
ENDBRANCH  10  13
ENDBRANCH   1  10
BRANCH   9  23
ATOM     23  N   UNL     1       4.346  -1.062  -1.628  0.00  0.00    -0.188 NA
ATOM     24  H   UNL     1       4.392  -1.960  -1.992  0.00  0.00    +0.148 HD
BRANCH  23  25
ATOM     25  S   UNL     1       3.934  -0.832  -0.041  0.00  0.00    +0.059 S 
ATOM     26  O   UNL     1       4.901   0.054   0.506  0.00  0.00    -0.153 OA
ATOM     27  O   UNL     1       3.686  -2.120   0.506  0.00  0.00    -0.153 OA
BRANCH  25  28
ATOM     28  C   UNL     1       2.396   0.029  -0.021  0.00  0.00    +0.105 A 
ATOM     29  C   UNL     1       1.208  -0.679  -0.014  0.00  0.00    +0.028 A 
ATOM     30  C   UNL     1       0.002  -0.004   0.002  0.00  0.00    +0.002 A 
ATOM     31  C   UNL     1      -0.017   1.378   0.010  0.00  0.00    +0.000 A 
ATOM     32  C   UNL     1       1.171   2.086   0.002  0.00  0.00    +0.002 A 
ATOM     33  C   UNL     1       2.377   1.411  -0.014  0.00  0.00    +0.028 A 
ENDBRANCH  25  28
ENDBRANCH  23  25
ENDBRANCH   9  23
TORSDOF 6
