REMARK  Name = ZINC05101279
REMARK  7 active torsions:
REMARK  status: ('A' for Active; 'I' for Inactive)
REMARK    1  A    between atoms: C_1  and  C_2
REMARK    2  A    between atoms: C_2  and  C_23
REMARK    3  A    between atoms: N_3  and  N_4
REMARK    4  A    between atoms: C_7  and  O_22
REMARK    5  A    between atoms: C_8  and  C_11
REMARK    6  A    between atoms: C_11  and  C_12
REMARK    7  A    between atoms: N_14  and  C_15
REMARK                            x       y       z     vdW  Elec       q    Type
REMARK                         _______ _______ _______ _____ _____    ______ ____
ROOT
ATOM      1  N   UNL     1       4.798   0.306   3.210  0.00  0.00    -0.122 NA
ATOM      2  C   UNL     1       4.134   0.625   2.114  0.00  0.00    +0.213 C 
ATOM      3  N   UNL     1       4.499   1.480   1.132  0.00  0.00    -0.189 NA
ATOM      4  C   UNL     1       3.789   1.732   0.099  0.00  0.00    +0.204 C 
ATOM      5  C   UNL     1       2.456   1.000   0.010  0.00  0.00    +0.148 C 
ATOM      6  S   UNL     1       2.537   0.032   1.572  0.00  0.00    -0.071 S 
ENDROOT
BRANCH   1   9
ATOM      7  C   UNL     1       6.247  -0.303   5.467  0.00  0.00    +0.063 C 
ATOM      8  C   UNL     1       4.901  -0.922   5.193  0.00  0.00    +0.041 C 
ATOM      9  N   UNL     1       4.250  -0.609   4.119  0.00  0.00    -0.156 NA
BRANCH   8  10
ATOM     10  C   UNL     1       4.312  -1.907   6.171  0.00  0.00    +0.035 C 
ATOM     11  C   UNL     1       5.186  -3.162   6.219  0.00  0.00    +0.009 C 
ATOM     12  C   UNL     1       4.588  -4.161   7.211  0.00  0.00    +0.001 C 
ATOM     13  C   UNL     1       3.174  -4.540   6.764  0.00  0.00    +0.000 C 
ATOM     14  C   UNL     1       2.301  -3.285   6.716  0.00  0.00    +0.001 C 
ATOM     15  C   UNL     1       2.899  -2.286   5.724  0.00  0.00    +0.009 C 
ENDBRANCH   8  10
ENDBRANCH   1   9
BRANCH   4  16
ATOM     16  O   UNL     1       4.196   2.591  -0.853  0.00  0.00    -0.495 OA
ATOM     17  H   UNL     1       5.055   3.015  -0.724  0.00  0.00    +0.293 HD
ENDBRANCH   4  16
BRANCH   5  18
ATOM     18  C   UNL     1       1.280   1.979   0.020  0.00  0.00    +0.120 C 
BRANCH  18  19
ATOM     19  C   UNL     1      -0.015   1.208   0.016  0.00  0.00    +0.219 C 
ATOM     20  O   UNL     1       0.001  -0.005   0.006  0.00  0.00    -0.275 OA
ATOM     21  N   UNL     1      -1.191   1.867   0.018  0.00  0.00    -0.283 N 
ATOM     22  H   UNL     1      -1.205   2.834   0.091  0.00  0.00    +0.155 HD
BRANCH  21  23
ATOM     23  C   UNL     1      -2.392   1.155  -0.086  0.00  0.00    +0.069 A 
ATOM     24  C   UNL     1      -2.511  -0.099   0.499  0.00  0.00    +0.026 A 
ATOM     25  C   UNL     1      -3.699  -0.796   0.400  0.00  0.00    +0.002 A 
ATOM     26  C   UNL     1      -4.767  -0.253  -0.291  0.00  0.00    +0.003 A 
ATOM     27  C   UNL     1      -4.652   0.992  -0.880  0.00  0.00    +0.040 A 
ATOM     28  C   UNL     1      -3.467   1.699  -0.780  0.00  0.00    +0.144 A 
ATOM     29  F   UNL     1      -3.354   2.916  -1.355  0.00  0.00    -0.204 F 
ENDBRANCH  21  23
ENDBRANCH  18  19
ENDBRANCH   5  18
TORSDOF 6
