REMARK  Name = ZINC08695835
REMARK  13 active torsions:
REMARK  status: ('A' for Active; 'I' for Inactive)
REMARK    1  A    between atoms: C_1  and  C_2
REMARK    2  A    between atoms: C_2  and  C_3
REMARK    3  A    between atoms: C_2  and  C_4
REMARK    4  A    between atoms: C_4  and  C_6
REMARK    5  A    between atoms: C_4  and  N_18
REMARK    6  A    between atoms: N_8  and  C_9
REMARK    7  A    between atoms: C_12  and  N_15
REMARK    8  A    between atoms: N_15  and  C_16
REMARK    9  A    between atoms: N_15  and  C_17
REMARK   10  A    between atoms: N_18  and  C_19
REMARK   11  A    between atoms: C_19  and  C_20
REMARK   12  A    between atoms: C_26  and  C_28
REMARK   13  A    between atoms: C_28  and  N_29
REMARK                            x       y       z     vdW  Elec       q    Type
REMARK                         _______ _______ _______ _____ _____    ______ ____
ROOT
ATOM      1  N   UNL     1      -6.495   3.498   1.331  0.00  0.00    -0.284 N 
ATOM      2  C   UNL     1      -5.516   3.485   0.405  0.00  0.00    +0.234 C 
ATOM      3  O   UNL     1      -4.369   3.704   0.732  0.00  0.00    -0.274 OA
ENDROOT
BRANCH   1   4
ATOM      4  C   UNL     1      -6.192   3.881   2.712  0.00  0.00    +0.165 C 
BRANCH   4   5
ATOM      5  C   UNL     1      -6.633   2.784   3.646  0.00  0.00    +0.238 C 
ATOM      6  O   UNL     1      -7.459   1.974   3.283  0.00  0.00    -0.273 OA
ATOM      7  N   UNL     1      -6.110   2.704   4.886  0.00  0.00    -0.284 N 
ATOM      8  H   UNL     1      -5.504   3.393   5.202  0.00  0.00    +0.155 HD
BRANCH   7   9
ATOM      9  C   UNL     1      -6.441   1.626   5.718  0.00  0.00    +0.034 A 
ATOM     10  C   UNL     1      -6.741   0.389   5.164  0.00  0.00    +0.025 A 
ATOM     11  C   UNL     1      -7.063  -0.675   5.984  0.00  0.00    +0.025 A 
ATOM     12  C   UNL     1      -7.097  -0.504   7.362  0.00  0.00    +0.029 A 
ATOM     13  C   UNL     1      -6.802   0.736   7.915  0.00  0.00    +0.025 A 
ATOM     14  C   UNL     1      -6.476   1.798   7.095  0.00  0.00    +0.025 A 
BRANCH  12  15
ATOM     15  N   UNL     1      -7.427  -1.580   8.192  0.00  0.00    -0.336 N 
ATOM     16  C   UNL     1      -7.463  -1.399   9.646  0.00  0.00    +0.129 C 
ATOM     17  C   UNL     1      -7.737  -2.887   7.609  0.00  0.00    +0.129 C 
ENDBRANCH  12  15
ENDBRANCH   7   9
ENDBRANCH   4   5
BRANCH   4  19
ATOM     18  C   UNL     1      -6.640   5.560   4.507  0.00  0.00    +0.009 C 
ATOM     19  C   UNL     1      -6.935   5.174   3.056  0.00  0.00    +0.012 C 
ATOM     20  C   UNL     1      -6.467   6.295   2.125  0.00  0.00    +0.009 C 
ENDBRANCH   4  19
ENDBRANCH   1   4
BRANCH   1  21
ATOM     21  C   UNL     1      -7.862   3.128   0.956  0.00  0.00    +0.145 C 
BRANCH  21  22
ATOM     22  C   UNL     1      -8.652   4.374   0.644  0.00  0.00    -0.012 A 
ATOM     23  C   UNL     1      -9.481   4.937   1.602  0.00  0.00    +0.008 A 
ATOM     24  C   UNL     1     -10.184   6.086   1.272  0.00  0.00    +0.020 A 
ATOM     25  C   UNL     1     -10.044   6.621   0.006  0.00  0.00    +0.111 A 
ATOM     26  N   UNL     1      -9.250   6.055  -0.882  0.00  0.00    -0.263 NA
ATOM     27  C   UNL     1      -8.562   4.965  -0.601  0.00  0.00    +0.115 A 
ENDBRANCH  21  22
ENDBRANCH   1  21
BRANCH   2  28
ATOM     28  C   UNL     1      -5.846   3.197  -1.037  0.00  0.00    +0.210 C 
BRANCH  28  29
ATOM     29  N   UNL     1      -4.605   3.034  -1.799  0.00  0.00    -0.255 N 
ATOM     30  C   UNL     1      -3.949   1.818  -1.980  0.00  0.00    +0.048 A 
ATOM     31  C   UNL     1      -4.254   0.536  -1.541  0.00  0.00    +0.024 A 
ATOM     32  C   UNL     1      -3.424  -0.522  -1.857  0.00  0.00    +0.002 A 
ATOM     33  C   UNL     1      -2.286  -0.325  -2.622  0.00  0.00    +0.001 A 
ATOM     34  C   UNL     1      -1.968   0.939  -3.074  0.00  0.00    +0.014 A 
ATOM     35  C   UNL     1      -2.796   2.016  -2.756  0.00  0.00    +0.048 A 
ATOM     36  C   UNL     1      -2.742   3.455  -3.073  0.00  0.00    +0.250 C 
ATOM     37  O   UNL     1      -1.901   4.039  -3.724  0.00  0.00    -0.282 OA
ATOM     38  C   UNL     1      -3.955   4.039  -2.412  0.00  0.00    +0.292 C 
ATOM     39  O   UNL     1      -4.290   5.205  -2.427  0.00  0.00    -0.266 OA
ENDBRANCH  28  29
ENDBRANCH   2  28
TORSDOF 9
