REMARK  Name = ZINC34786652
REMARK  9 active torsions:
REMARK  status: ('A' for Active; 'I' for Inactive)
REMARK    1  A    between atoms: C_1  and  C_2
REMARK    2  A    between atoms: C_5  and  N_8
REMARK    3  A    between atoms: N_8  and  N_9
REMARK    4  A    between atoms: N_9  and  N_30
REMARK    5  A    between atoms: C_20  and  C_25
REMARK    6  A    between atoms: C_22  and  C_24
REMARK    7  A    between atoms: N_30  and  C_31
REMARK    8  A    between atoms: C_34  and  O_37
REMARK    9  A    between atoms: O_37  and  C_38
REMARK                            x       y       z     vdW  Elec       q    Type
REMARK                         _______ _______ _______ _____ _____    ______ ____
ROOT
ATOM      1  N   UNL     1       0.369  -4.787   1.214  0.00  0.00    -0.151 N 
ATOM      2  C   UNL     1      -0.753  -5.402   1.740  0.00  0.00    +0.170 A 
ATOM      3  C   UNL     1      -0.751  -5.877   3.082  0.00  0.00    +0.054 A 
ATOM      4  C   UNL     1       0.325  -5.819   4.072  0.00  0.00    -0.025 A 
ATOM      5  C   UNL     1       0.069  -6.346   5.287  0.00  0.00    -0.004 A 
ATOM      6  S   UNL     1      -1.597  -6.944   5.189  0.00  0.00    -0.073 S 
ATOM      7  C   UNL     1      -1.948  -6.484   3.512  0.00  0.00    +0.116 A 
ATOM      8  N   UNL     1      -2.990  -6.599   2.712  0.00  0.00    -0.203 NA
ATOM      9  C   UNL     1      -2.934  -6.138   1.472  0.00  0.00    +0.254 A 
ATOM     10  N   UNL     1      -1.841  -5.550   1.005  0.00  0.00    -0.192 NA
ATOM     11  N   UNL     1      -4.048  -6.270   0.643  0.00  0.00    -0.202 N 
ATOM     12  C   UNL     1      -5.236  -6.838   0.981  0.00  0.00    +0.045 A 
ATOM     13  C   UNL     1      -6.046  -6.766  -0.100  0.00  0.00    +0.048 A 
ATOM     14  C   UNL     1      -5.337  -6.138  -1.130  0.00  0.00    +0.061 A 
ATOM     15  N   UNL     1      -4.144  -5.836  -0.686  0.00  0.00    -0.169 NA
ATOM     16  C   UNL     1      -5.860  -5.853  -2.514  0.00  0.00    +0.067 C 
ATOM     17  C   UNL     1      -5.587  -7.438   2.318  0.00  0.00    +0.066 C 
ATOM     18  C   UNL     1       0.996  -6.412   6.462  0.00  0.00    +0.043 C 
ATOM     19  C   UNL     1       2.422  -6.122   5.971  0.00  0.00    +0.005 C 
ATOM     20  C   UNL     1       2.390  -4.875   5.083  0.00  0.00    +0.005 C 
ATOM     21  C   UNL     1       1.684  -5.194   3.765  0.00  0.00    +0.037 C 
ENDROOT
BRANCH   1  22
ATOM     22  N   UNL     1       1.628  -5.385   1.359  0.00  0.00    -0.246 N 
ATOM     23  H   UNL     1       2.277  -5.006   1.973  0.00  0.00    +0.172 HD
BRANCH  22  28
ATOM     24  C   UNL     1       2.929 -10.016  -1.643  0.00  0.00    +0.044 C 
ATOM     25  C   UNL     1       2.583  -8.785  -0.845  0.00  0.00    -0.050 A 
ATOM     26  C   UNL     1       3.461  -8.316   0.114  0.00  0.00    +0.005 A 
ATOM     27  C   UNL     1       3.148  -7.188   0.847  0.00  0.00    +0.025 A 
ATOM     28  C   UNL     1       1.948  -6.525   0.619  0.00  0.00    +0.046 A 
ATOM     29  C   UNL     1       1.069  -7.000  -0.345  0.00  0.00    +0.025 A 
ATOM     30  C   UNL     1       1.391  -8.125  -1.078  0.00  0.00    +0.005 A 
ENDBRANCH  22  28
ENDBRANCH   1  22
BRANCH   1  31
ATOM     31  N   UNL     1       0.246  -3.567   0.537  0.00  0.00    -0.246 N 
ATOM     32  H   UNL     1       0.273  -3.545  -0.432  0.00  0.00    +0.172 HD
BRANCH  31  33
ATOM     33  C   UNL     1       0.085  -2.379   1.259  0.00  0.00    +0.046 A 
ATOM     34  C   UNL     1      -0.072  -2.420   2.638  0.00  0.00    +0.028 A 
ATOM     35  C   UNL     1      -0.230  -1.247   3.350  0.00  0.00    +0.047 A 
ATOM     36  C   UNL     1      -0.234  -0.028   2.687  0.00  0.00    +0.120 A 
ATOM     37  C   UNL     1      -0.077   0.013   1.310  0.00  0.00    +0.047 A 
ATOM     38  C   UNL     1       0.088  -1.158   0.597  0.00  0.00    +0.028 A 
BRANCH  36  39
ATOM     39  O   UNL     1      -0.391   1.126   3.389  0.00  0.00    -0.495 OA
ATOM     40  C   UNL     1      -0.384   2.345   2.642  0.00  0.00    +0.277 C 
ENDBRANCH  36  39
ENDBRANCH  31  33
ENDBRANCH   1  31
TORSDOF 5
