REMARK  Name = ZINC21251141
REMARK  5 active torsions:
REMARK  status: ('A' for Active; 'I' for Inactive)
REMARK    1  A    between atoms: C_1  and  C_2
REMARK    2  A    between atoms: C_10  and  C_13
REMARK    3  A    between atoms: C_18  and  C_23
REMARK    4  A    between atoms: C_28  and  O_29
REMARK    5  A    between atoms: O_29  and  C_30
REMARK                            x       y       z     vdW  Elec       q    Type
REMARK                         _______ _______ _______ _____ _____    ______ ____
ROOT
ATOM      1  C   UNL     1      -0.018   1.443   0.010  0.00  0.00    +0.143 C 
ATOM      2  C   UNL     1       1.281   2.212   0.095  0.00  0.00    +0.037 C 
ATOM      3  C   UNL     1       2.508   1.713  -0.127  0.00  0.00    +0.017 C 
ATOM      4  C   UNL     1       3.728   2.617  -0.054  0.00  0.00    +0.060 C 
ATOM      5  C   UNL     1       3.512   3.693   1.010  0.00  0.00    +0.035 C 
ATOM      6  C   UNL     1       2.276   4.508   0.608  0.00  0.00    +0.088 C 
ATOM      7  C   UNL     1       1.116   3.571   0.450  0.00  0.00    +0.163 C 
ATOM      8  O   UNL     1      -0.008   3.996   0.635  0.00  0.00    -0.292 OA
ATOM      9  N   UNL     1       2.783   0.420  -0.440  0.00  0.00    -0.316 N 
ATOM     10  C   UNL     1       2.111  -0.322  -1.407  0.00  0.00    +0.052 A 
ATOM     11  C   UNL     1       2.747  -0.825  -2.528  0.00  0.00    +0.025 A 
ATOM     12  C   UNL     1       2.037  -1.621  -3.410  0.00  0.00    +0.002 A 
ATOM     13  C   UNL     1       0.705  -1.909  -3.171  0.00  0.00    +0.002 A 
ATOM     14  C   UNL     1       0.063  -1.387  -2.062  0.00  0.00    +0.025 A 
ATOM     15  C   UNL     1       0.766  -0.575  -1.185  0.00  0.00    +0.049 A 
ATOM     16  N   UNL     1       0.146   0.008  -0.083  0.00  0.00    -0.331 N 
ATOM     17  H   UNL     1       3.588  -0.113   0.087  0.00  0.00    +0.152 HD
ATOM     18  H   UNL     1      -0.222  -0.641   0.725  0.00  0.00    +0.147 HD
ENDROOT
BRANCH   1  28
ATOM     19  C   UNL     1      -6.312   2.424  -4.017  0.00  0.00    +0.044 C 
ATOM     20  C   UNL     1      -4.824   2.566  -3.823  0.00  0.00    -0.050 A 
ATOM     21  C   UNL     1      -4.054   3.172  -4.805  0.00  0.00    +0.007 A 
ATOM     22  C   UNL     1      -2.692   3.310  -4.646  0.00  0.00    +0.047 A 
ATOM     23  C   UNL     1      -2.078   2.839  -3.492  0.00  0.00    +0.138 A 
ATOM     24  C   UNL     1      -2.858   2.226  -2.499  0.00  0.00    +0.065 A 
ATOM     25  C   UNL     1      -4.235   2.092  -2.671  0.00  0.00    +0.018 A 
ATOM     26  C   UNL     1      -2.182   1.734  -1.282  0.00  0.00    +0.198 A 
ATOM     27  O   UNL     1      -2.804   1.194  -0.384  0.00  0.00    -0.287 OA
ATOM     28  C   UNL     1      -0.776   1.919  -1.202  0.00  0.00    +0.059 A 
ATOM     29  C   UNL     1      -0.127   2.525  -2.212  0.00  0.00    +0.205 A 
ATOM     30  O   UNL     1      -0.747   2.963  -3.313  0.00  0.00    -0.462 OA
ENDBRANCH   1  28
BRANCH   5  31
ATOM     31  C   UNL     1       4.717   4.595   1.079  0.00  0.00    -0.002 A 
ATOM     32  C   UNL     1       5.130   5.284  -0.045  0.00  0.00    +0.007 A 
ATOM     33  C   UNL     1       6.236   6.112   0.018  0.00  0.00    +0.001 A 
ATOM     34  C   UNL     1       6.931   6.252   1.205  0.00  0.00    +0.004 A 
ATOM     35  C   UNL     1       6.522   5.566   2.331  0.00  0.00    +0.046 A 
ATOM     36  C   UNL     1       5.410   4.738   2.272  0.00  0.00    +0.124 A 
BRANCH  36  37
ATOM     37  O   UNL     1       5.002   4.066   3.381  0.00  0.00    -0.495 OA
ATOM     38  C   UNL     1       5.763   4.261   4.575  0.00  0.00    +0.277 C 
ENDBRANCH  36  37
ENDBRANCH   5  31
TORSDOF 3
