REMARK  Name = ZINC12794710
REMARK  6 active torsions:
REMARK  status: ('A' for Active; 'I' for Inactive)
REMARK    1  A    between atoms: C_1  and  C_2
REMARK    2  A    between atoms: C_2  and  C_25
REMARK    3  A    between atoms: N_5  and  C_9
REMARK    4  A    between atoms: C_9  and  C_10
REMARK    5  A    between atoms: N_15  and  C_18
REMARK    6  A    between atoms: C_18  and  C_19
REMARK                            x       y       z     vdW  Elec       q    Type
REMARK                         _______ _______ _______ _____ _____    ______ ____
ROOT
ATOM      1  C   UNL     1       2.935   0.806  -1.455  0.00  0.00    +0.047 C 
ATOM      2  C   UNL     1       2.466   1.033  -0.017  0.00  0.00    +0.135 C 
ATOM      3  C   UNL     1       3.515   1.784   0.779  0.00  0.00    +0.251 C 
ATOM      4  O   UNL     1       3.943   2.897   0.558  0.00  0.00    -0.272 OA
ATOM      5  N   UNL     1       3.873   0.958   1.781  0.00  0.00    -0.215 N 
ATOM      6  C   UNL     1       3.204  -0.200   1.730  0.00  0.00    +0.310 C 
ATOM      7  O   UNL     1       3.355  -1.104   2.528  0.00  0.00    -0.252 OA
ATOM      8  N   UNL     1       2.343  -0.250   0.697  0.00  0.00    -0.281 N 
ATOM      9  H   UNL     1       1.639  -1.014   0.338  0.00  0.00    +0.152 HD
ENDROOT
BRANCH   2  10
ATOM     10  C   UNL     1       1.155   1.776   0.001  0.00  0.00    -0.015 A 
ATOM     11  C   UNL     1       1.155   3.170   0.008  0.00  0.00    +0.007 A 
ATOM     12  C   UNL     1      -0.011   3.871   0.023  0.00  0.00    +0.009 A 
ATOM     13  C   UNL     1      -1.236   3.183   0.031  0.00  0.00    -0.018 A 
ATOM     14  C   UNL     1      -2.460   3.873   0.047  0.00  0.00    +0.008 A 
ATOM     15  C   UNL     1      -3.627   3.172   0.055  0.00  0.00    +0.001 A 
ATOM     16  C   UNL     1      -3.628   1.779   0.048  0.00  0.00    +0.001 A 
ATOM     17  C   UNL     1      -2.462   1.077   0.032  0.00  0.00    +0.008 A 
ATOM     18  C   UNL     1      -1.237   1.766   0.018  0.00  0.00    -0.018 A 
ATOM     19  C   UNL     1      -0.013   1.076   0.008  0.00  0.00    +0.014 A 
ENDBRANCH   2  10
BRANCH   5  20
ATOM     20  C   UNL     1       4.874   1.285   2.800  0.00  0.00    +0.213 C 
BRANCH  20  21
ATOM     21  C   UNL     1       6.235   0.844   2.328  0.00  0.00    +0.234 C 
ATOM     22  O   UNL     1       6.358   0.308   1.246  0.00  0.00    -0.274 OA
ATOM     23  N   UNL     1       7.316   1.044   3.107  0.00  0.00    -0.298 N 
ATOM     24  C   UNL     1       7.191   1.697   4.418  0.00  0.00    +0.123 C 
ATOM     25  C   UNL     1       7.886   0.812   5.466  0.00  0.00    +0.104 C 
ATOM     26  N   UNL     1       9.265   0.544   5.035  0.00  0.00    -0.295 NA
ATOM     27  C   UNL     1       9.292  -0.216   3.779  0.00  0.00    +0.104 C 
ATOM     28  C   UNL     1       8.654   0.621   2.665  0.00  0.00    +0.123 C 
BRANCH  26  29
ATOM     29  C   UNL     1      10.019  -0.150   6.087  0.00  0.00    +0.127 C 
BRANCH  29  30
ATOM     30  C   UNL     1      10.178   0.762   7.277  0.00  0.00    +0.005 A 
ATOM     31  C   UNL     1       9.367   0.910   8.352  0.00  0.00    +0.014 A 
ATOM     32  C   UNL     1       9.716   1.817   9.335  0.00  0.00    +0.028 A 
ATOM     33  C   UNL     1      10.860   2.533   9.193  0.00  0.00    +0.078 A 
ATOM     34  S   UNL     1      11.487   1.921   7.637  0.00  0.00    -0.080 S 
ATOM     35 CL   UNL     1      11.542   3.727  10.253  0.00  0.00    -0.076 Cl
ENDBRANCH  29  30
ENDBRANCH  26  29
ENDBRANCH  20  21
ENDBRANCH   5  20
TORSDOF 5
