REMARK  Name = ZINC48371284
REMARK  8 active torsions:
REMARK  status: ('A' for Active; 'I' for Inactive)
REMARK    1  A    between atoms: C_1  and  C_2
REMARK    2  A    between atoms: C_2  and  C_3
REMARK    3  A    between atoms: C_2  and  C_4
REMARK    4  A    between atoms: C_2  and  C_5
REMARK    5  A    between atoms: C_11  and  N_13
REMARK    6  A    between atoms: N_16  and  C_17
REMARK    7  A    between atoms: C_17  and  C_18
REMARK    8  A    between atoms: C_18  and  C_19
REMARK                            x       y       z     vdW  Elec       q    Type
REMARK                         _______ _______ _______ _____ _____    ______ ____
ROOT
ATOM      1  N   UNL     1       2.163   1.387  -1.333  0.00  0.00    -0.296 N 
ATOM      2  C   UNL     1       3.323   1.978  -0.984  0.00  0.00    +0.300 C 
ATOM      3  O   UNL     1       4.295   1.299  -0.718  0.00  0.00    -0.253 OA
ATOM      4  N   UNL     1       3.405   3.322  -0.929  0.00  0.00    -0.299 N 
ATOM      5  H   UNL     1       1.387   1.930  -1.546  0.00  0.00    +0.151 HD
ATOM      6  H   UNL     1       2.629   3.865  -1.142  0.00  0.00    +0.150 HD
ENDROOT
BRANCH   1  12
ATOM      7  C   UNL     1       0.644  -0.511  -1.066  0.00  0.00    +0.015 C 
ATOM      8  C   UNL     1      -0.321   0.101  -2.083  0.00  0.00    +0.006 C 
ATOM      9  C   UNL     1       0.049  -0.376  -3.489  0.00  0.00    +0.000 C 
ATOM     10  C   UNL     1       1.478   0.061  -3.816  0.00  0.00    +0.002 C 
ATOM     11  C   UNL     1       2.444  -0.550  -2.799  0.00  0.00    +0.022 C 
ATOM     12  C   UNL     1       2.074  -0.074  -1.393  0.00  0.00    +0.078 C 
BRANCH   7  14
ATOM     13  C   UNL     1       0.206   1.494   0.358  0.00  0.00    +0.011 C 
ATOM     14  C   UNL     1       0.274  -0.034   0.340  0.00  0.00    -0.033 C 
ATOM     15  C   UNL     1       1.334  -0.510   1.335  0.00  0.00    +0.011 C 
ATOM     16  C   UNL     1      -1.088  -0.610   0.731  0.00  0.00    +0.011 C 
ENDBRANCH   7  14
ENDBRANCH   1  12
BRANCH   4  17
ATOM     17  C   UNL     1       4.665   3.965  -0.550  0.00  0.00    +0.113 C 
BRANCH  17  18
ATOM     18  C   UNL     1       4.489   5.484  -0.566  0.00  0.00    +0.095 C 
BRANCH  18  19
ATOM     19  C   UNL     1       5.786   6.145  -0.175  0.00  0.00    +0.135 A 
ATOM     20  N   UNL     1       6.164   6.457   1.036  0.00  0.00    -0.134 NA
ATOM     21  N   UNL     1       7.331   7.000   1.000  0.00  0.00    -0.134 NA
ATOM     22  C   UNL     1       7.748   7.054  -0.232  0.00  0.00    +0.133 A 
ATOM     23  N   UNL     1       6.779   6.521  -1.011  0.00  0.00    -0.315 N 
ATOM     24  C   UNL     1       6.803   6.397  -2.469  0.00  0.00    +0.125 C 
ATOM     25  C   UNL     1       8.253   6.282  -2.946  0.00  0.00    +0.022 C 
ATOM     26  C   UNL     1       8.821   7.676  -3.208  0.00  0.00    +0.002 C 
ATOM     27  C   UNL     1       8.819   8.504  -1.927  0.00  0.00    +0.008 C 
ATOM     28  C   UNL     1       9.066   7.596  -0.725  0.00  0.00    +0.076 C 
ENDBRANCH  18  19
ENDBRANCH  17  18
ENDBRANCH   4  17
TORSDOF 5
