REMARK  Name = ZINC39443560
REMARK  7 active torsions:
REMARK  status: ('A' for Active; 'I' for Inactive)
REMARK    1  A    between atoms: C_1  and  C_2
REMARK    2  A    between atoms: C_2  and  C_3
REMARK    3  A    between atoms: C_2  and  C_4
REMARK    4  A    between atoms: C_4  and  C_6
REMARK    5  A    between atoms: C_4  and  O_12
REMARK    6  A    between atoms: O_12  and  C_13
REMARK    7  A    between atoms: C_13  and  C_15
REMARK                            x       y       z     vdW  Elec       q    Type
REMARK                         _______ _______ _______ _____ _____    ______ ____
ROOT
ATOM      1  C   UNL     1      -1.425  -2.561   1.317  0.00  0.00    +0.340 C 
ATOM      2  O   UNL     1      -1.430  -1.813   2.275  0.00  0.00    -0.245 OA
ENDROOT
BRANCH   1   3
ATOM      3  C   UNL     1      -1.444  -4.020   1.522  0.00  0.00    +0.060 A 
ATOM      4  C   UNL     1      -1.432  -4.905   0.362  0.00  0.00    +0.017 A 
ATOM      5  C   UNL     1      -1.444  -6.246   0.507  0.00  0.00    +0.027 A 
ATOM      6  C   UNL     1      -1.470  -6.834   1.850  0.00  0.00    +0.043 A 
ATOM      7  N   UNL     1      -1.506  -8.087   2.243  0.00  0.00    -0.378 N 
ATOM      8  C   UNL     1      -1.437  -8.120   3.700  0.00  0.00    +0.106 C 
ATOM      9  C   UNL     1      -2.621  -8.866   4.321  0.00  0.00    +0.029 C 
ATOM     10  C   UNL     1      -2.622  -8.606   5.831  0.00  0.00    +0.003 C 
ATOM     11  C   UNL     1      -2.884  -7.132   6.137  0.00  0.00    +0.004 C 
ATOM     12  C   UNL     1      -1.738  -6.269   5.582  0.00  0.00    +0.033 C 
ATOM     13  C   UNL     1      -1.527  -6.670   4.141  0.00  0.00    -0.038 C 
ATOM     14  C   UNL     1      -1.490  -5.924   3.022  0.00  0.00    -0.000 A 
ATOM     15  C   UNL     1      -1.467  -4.522   2.803  0.00  0.00    +0.025 A 
ATOM     16  H   UNL     1      -1.567  -8.861   1.661  0.00  0.00    +0.160 HD
ENDBRANCH   1   3
BRANCH   1  17
ATOM     17  O   UNL     1      -1.403  -2.056   0.068  0.00  0.00    -0.448 OA
BRANCH  17  18
ATOM     18  C   UNL     1      -1.385  -0.632  -0.056  0.00  0.00    +0.265 C 
BRANCH  18  19
ATOM     19  C   UNL     1      -2.074  -0.231  -1.335  0.00  0.00    +0.261 C 
ATOM     20  O   UNL     1      -2.431  -1.080  -2.123  0.00  0.00    -0.271 OA
ATOM     21  N   UNL     1      -2.294   1.072  -1.601  0.00  0.00    -0.237 N 
ATOM     22  C   UNL     1      -2.812   1.438  -2.790  0.00  0.00    +0.303 C 
ATOM     23  O   UNL     1      -3.081   0.594  -3.622  0.00  0.00    -0.253 OA
ATOM     24  N   UNL     1      -3.032   2.741  -3.057  0.00  0.00    -0.313 N 
ATOM     25  H   UNL     1      -2.079   1.746  -0.938  0.00  0.00    +0.159 HD
ATOM     26  H   UNL     1      -2.817   3.415  -2.393  0.00  0.00    +0.146 HD
ATOM     27  H   UNL     1      -3.405   3.004  -3.913  0.00  0.00    +0.146 HD
ENDBRANCH  18  19
BRANCH  18  29
ATOM     28  C   UNL     1       0.719  -0.416   1.274  0.00  0.00    +0.011 C 
ATOM     29  C   UNL     1       0.063  -0.140  -0.081  0.00  0.00    +0.033 C 
ATOM     30  C   UNL     1       0.833  -0.876  -1.179  0.00  0.00    +0.011 C 
ENDBRANCH  18  29
ENDBRANCH  17  18
ENDBRANCH   1  17
TORSDOF 5
