REMARK  Name = ZINC28890209
REMARK  11 active torsions:
REMARK  status: ('A' for Active; 'I' for Inactive)
REMARK    1  A    between atoms: C_1  and  C_2
REMARK    2  A    between atoms: C_2  and  O_3
REMARK    3  A    between atoms: O_3  and  C_4
REMARK    4  A    between atoms: C_4  and  C_6
REMARK    5  A    between atoms: C_7  and  C_20
REMARK    6  A    between atoms: C_12  and  C_14
REMARK    7  A    between atoms: C_20  and  S_21
REMARK    8  A    between atoms: S_21  and  C_22
REMARK    9  A    between atoms: N_28  and  C_29
REMARK   10  A    between atoms: C_29  and  C_30
REMARK   11  A    between atoms: C_30  and  C_31
REMARK                            x       y       z     vdW  Elec       q    Type
REMARK                         _______ _______ _______ _____ _____    ______ ____
ROOT
ATOM      1  C   UNL     1       2.292   4.206   1.162  0.00  0.00    +0.079 C 
ATOM      2  C   UNL     1       1.934   3.595   0.012  0.00  0.00    +0.034 C 
ATOM      3  N   UNL     1       1.820   4.296  -1.154  0.00  0.00    -0.272 N 
ATOM      4  C   UNL     1       2.053   5.611  -1.255  0.00  0.00    +0.304 C 
ATOM      5  O   UNL     1       1.925   6.149  -2.337  0.00  0.00    -0.252 OA
ATOM      6  N   UNL     1       2.423   6.357  -0.196  0.00  0.00    -0.288 N 
ATOM      7  C   UNL     1       2.574   5.694   1.111  0.00  0.00    +0.144 C 
ATOM      8  H   UNL     1       1.523   3.781  -2.079  0.00  0.00    +0.156 HD
ATOM      9  H   UNL     1       2.611   7.437  -0.289  0.00  0.00    +0.151 HD
ENDROOT
BRANCH   7  10
ATOM     10  C   UNL     1       1.646   6.372   2.086  0.00  0.00    -0.023 A 
ATOM     11  C   UNL     1       0.382   6.760   1.682  0.00  0.00    +0.006 A 
ATOM     12  C   UNL     1      -0.470   7.378   2.577  0.00  0.00    +0.000 A 
ATOM     13  C   UNL     1      -0.056   7.616   3.874  0.00  0.00    +0.000 A 
ATOM     14  C   UNL     1       1.210   7.232   4.277  0.00  0.00    +0.000 A 
ATOM     15  C   UNL     1       2.061   6.611   3.383  0.00  0.00    +0.006 A 
ENDBRANCH   7  10
BRANCH   1  16
ATOM     16  C   UNL     1       2.404   3.482   2.371  0.00  0.00    +0.339 C 
ATOM     17  O   UNL     1       2.313   2.268   2.365  0.00  0.00    -0.245 OA
BRANCH  16  18
ATOM     18  O   UNL     1       2.613   4.136   3.533  0.00  0.00    -0.462 OA
BRANCH  18  20
ATOM     19  C   UNL     1       2.951   4.252   5.923  0.00  0.00    +0.048 C 
ATOM     20  C   UNL     1       2.717   3.341   4.716  0.00  0.00    +0.229 C 
ENDBRANCH  18  20
ENDBRANCH  16  18
ENDBRANCH   1  16
BRANCH   2  21
ATOM     21  C   UNL     1       1.649   2.115   0.018  0.00  0.00    +0.128 C 
BRANCH  21  22
ATOM     22  S   UNL     1       3.100   1.219  -0.589  0.00  0.00    -0.080 S 
BRANCH  22  23
ATOM     23  C   UNL     1       2.506  -0.436  -0.479  0.00  0.00    +0.192 A 
ATOM     24  N   UNL     1       1.326  -0.793  -0.061  0.00  0.00    -0.145 NA
ATOM     25  N   UNL     1       1.246  -2.191  -0.127  0.00  0.00    -0.226 N 
ATOM     26  H   UNL     1       0.325  -2.705   0.183  0.00  0.00    +0.194 HD
ATOM     27  C   UNL     1       2.427  -2.640  -0.600  0.00  0.00    +0.345 A 
ATOM     28  O   UNL     1       2.729  -3.805  -0.793  0.00  0.00    -0.245 OA
ATOM     29  N   UNL     1       3.210  -1.567  -0.827  0.00  0.00    -0.270 N 
BRANCH  29  30
ATOM     30  C   UNL     1       4.578  -1.598  -1.350  0.00  0.00    +0.133 C 
BRANCH  30  31
ATOM     31  C   UNL     1       5.566  -1.704  -0.187  0.00  0.00    +0.057 C 
BRANCH  31  32
ATOM     32  C   UNL     1       6.974  -1.736  -0.725  0.00  0.00    -0.046 A 
ATOM     33  C   UNL     1       7.569  -2.945  -1.031  0.00  0.00    +0.004 A 
ATOM     34  C   UNL     1       8.858  -2.975  -1.529  0.00  0.00    +0.000 A 
ATOM     35  C   UNL     1       9.556  -1.795  -1.711  0.00  0.00    +0.000 A 
ATOM     36  C   UNL     1       8.962  -0.586  -1.400  0.00  0.00    +0.000 A 
ATOM     37  C   UNL     1       7.671  -0.556  -0.907  0.00  0.00    +0.004 A 
ENDBRANCH  31  32
ENDBRANCH  30  31
ENDBRANCH  29  30
ENDBRANCH  22  23
ENDBRANCH  21  22
ENDBRANCH   2  21
TORSDOF 10
