REMARK  Name = ZINC09347882
REMARK  11 active torsions:
REMARK  status: ('A' for Active; 'I' for Inactive)
REMARK    1  A    between atoms: C_1  and  C_2
REMARK    2  A    between atoms: C_2  and  C_3
REMARK    3  A    between atoms: C_2  and  C_4
REMARK    4  A    between atoms: C_4  and  C_5
REMARK    5  A    between atoms: N_13  and  C_16
REMARK    6  A    between atoms: C_16  and  C_17
REMARK    7  A    between atoms: C_17  and  C_18
REMARK    8  A    between atoms: C_21  and  O_26
REMARK    9  A    between atoms: C_22  and  O_24
REMARK   10  A    between atoms: O_24  and  C_25
REMARK   11  A    between atoms: O_26  and  C_27
REMARK                            x       y       z     vdW  Elec       q    Type
REMARK                         _______ _______ _______ _____ _____    ______ ____
ROOT
ATOM      1  C   UNL     1      -1.114  -1.807   0.206  0.00  0.00    -0.057 C 
ATOM      2  C   UNL     1      -2.455  -2.564   0.105  0.00  0.00    +0.073 C 
ATOM      3  C   UNL     1      -2.879  -2.823   1.578  0.00  0.00    +0.088 C 
ATOM      4  C   UNL     1      -2.832  -4.330   1.693  0.00  0.00    +0.225 C 
ATOM      5  O   UNL     1      -3.102  -4.965   2.690  0.00  0.00    -0.275 OA
ATOM      6  N   UNL     1      -2.447  -4.854   0.524  0.00  0.00    -0.241 N 
ATOM      7  C   UNL     1      -2.208  -3.948  -0.451  0.00  0.00    +0.224 C 
ATOM      8  O   UNL     1      -1.853  -4.194  -1.584  0.00  0.00    -0.275 OA
ATOM      9  C   UNL     1      -1.762  -2.192   2.417  0.00  0.00    +0.050 C 
ATOM     10  N   UNL     1      -0.566  -2.171   1.539  0.00  0.00    +0.394 N 
ATOM     11  C   UNL     1      -1.495  -2.978   3.669  0.00  0.00    -0.025 A 
ATOM     12  C   UNL     1      -1.113  -4.279   3.908  0.00  0.00    +0.043 A 
ATOM     13  C   UNL     1      -0.941  -4.724   5.208  0.00  0.00    +0.124 A 
ATOM     14  C   UNL     1      -1.155  -3.856   6.266  0.00  0.00    +0.040 A 
ATOM     15  C   UNL     1      -1.539  -2.553   6.030  0.00  0.00    +0.026 A 
ATOM     16  C   UNL     1      -1.714  -2.098   4.725  0.00  0.00    +0.036 A 
ATOM     17  N   UNL     1      -2.092  -0.844   4.238  0.00  0.00    -0.286 N 
ATOM     18  C   UNL     1      -2.144  -0.816   2.893  0.00  0.00    +0.211 C 
ATOM     19  O   UNL     1      -2.439   0.134   2.199  0.00  0.00    -0.277 OA
ATOM     20  F   UNL     1      -0.566  -6.000   5.444  0.00  0.00    -0.205 F 
ATOM     21  H   UNL     1      -0.125  -3.078   1.505  0.00  0.00    -0.083 HD
ATOM     22  H   UNL     1      -2.295  -0.082   4.804  0.00  0.00    +0.155 HD
ATOM     23  H   UNL     1       0.088  -1.470   1.855  0.00  0.00    -0.083 HD
ENDROOT
BRANCH   1  24
ATOM     24  C   UNL     1      -1.347  -0.298   0.119  0.00  0.00    -0.012 C 
BRANCH  24  26
ATOM     25  C   UNL     1      -1.580   1.638  -1.443  0.00  0.00    +0.007 C 
ATOM     26  C   UNL     1      -1.208   0.158  -1.335  0.00  0.00    -0.019 C 
ATOM     27  C   UNL     1       0.237  -0.041  -1.796  0.00  0.00    +0.007 C 
ENDBRANCH  24  26
ENDBRANCH   1  24
BRANCH   6  28
ATOM     28  C   UNL     1      -2.303  -6.296   0.312  0.00  0.00    +0.121 C 
BRANCH  28  29
ATOM     29  C   UNL     1      -3.631  -6.875  -0.181  0.00  0.00    +0.054 C 
BRANCH  29  30
ATOM     30  C   UNL     1      -3.482  -8.359  -0.400  0.00  0.00    -0.042 A 
ATOM     31  C   UNL     1      -3.074  -8.837  -1.631  0.00  0.00    +0.007 A 
ATOM     32  C   UNL     1      -2.936 -10.197  -1.837  0.00  0.00    +0.049 A 
ATOM     33  C   UNL     1      -3.206 -11.084  -0.807  0.00  0.00    +0.161 A 
ATOM     34  C   UNL     1      -3.615 -10.603   0.433  0.00  0.00    +0.162 A 
ATOM     35  C   UNL     1      -3.747  -9.238   0.633  0.00  0.00    +0.053 A 
BRANCH  34  36
ATOM     36  O   UNL     1      -3.881 -11.469   1.447  0.00  0.00    -0.491 OA
ATOM     37  C   UNL     1      -4.296 -10.904   2.691  0.00  0.00    +0.277 C 
ENDBRANCH  34  36
BRANCH  33  38
ATOM     38  O   UNL     1      -3.071 -12.423  -1.008  0.00  0.00    -0.491 OA
ATOM     39  C   UNL     1      -2.647 -12.845  -2.305  0.00  0.00    +0.277 C 
ENDBRANCH  33  38
ENDBRANCH  29  30
ENDBRANCH  28  29
ENDBRANCH   6  28
TORSDOF 7
