REMARK  Name = ZINC64636473
REMARK  5 active torsions:
REMARK  status: ('A' for Active; 'I' for Inactive)
REMARK    1  A    between atoms: C_1  and  C_2
REMARK    2  A    between atoms: C_2  and  C_3
REMARK    3  A    between atoms: C_2  and  C_4
REMARK    4  A    between atoms: C_19  and  C_21
REMARK    5  A    between atoms: N_23  and  C_26
REMARK                            x       y       z     vdW  Elec       q    Type
REMARK                         _______ _______ _______ _____ _____    ______ ____
ROOT
ATOM      1  C   UNL     1      -1.396  -0.341  -0.025  0.00  0.00    +0.105 C 
ATOM      2  C   UNL     1      -1.384  -1.866   0.135  0.00  0.00    +0.127 C 
ATOM      3  C   UNL     1      -0.935  -2.150   1.563  0.00  0.00    -0.035 C 
ATOM      4  C   UNL     1       0.124  -2.945   1.471  0.00  0.00    -0.001 A 
ATOM      5  C   UNL     1       0.944  -3.606   2.499  0.00  0.00    +0.010 A 
ATOM      6  C   UNL     1       1.982  -4.357   2.047  0.00  0.00    +0.001 A 
ATOM      7  C   UNL     1       2.284  -4.514   0.690  0.00  0.00    +0.002 A 
ATOM      8  C   UNL     1       1.581  -3.947  -0.323  0.00  0.00    +0.026 A 
ATOM      9  C   UNL     1       0.461  -3.138   0.028  0.00  0.00    +0.043 A 
ATOM     10  N   UNL     1      -0.399  -2.497  -0.744  0.00  0.00    -0.376 N 
ATOM     11  C   UNL     1      -1.601  -1.520   2.762  0.00  0.00    +0.052 C 
ATOM     12  C   UNL     1      -1.659  -0.006   2.492  0.00  0.00    +0.113 C 
ATOM     13  N   UNL     1      -2.125   0.228   1.120  0.00  0.00    -0.291 N 
ATOM     14  C   UNL     1      -3.230   0.969   0.906  0.00  0.00    +0.263 C 
ATOM     15  O   UNL     1      -3.572   1.237  -0.232  0.00  0.00    -0.269 OA
ATOM     16  H   UNL     1      -0.386  -2.445  -1.712  0.00  0.00    +0.160 HD
ENDROOT
BRANCH  14  17
ATOM     17  C   UNL     1      -4.018   1.450   2.039  0.00  0.00    +0.120 C 
ATOM     18  C   UNL     1      -3.843   2.617   2.694  0.00  0.00    +0.119 C 
ATOM     19  N   UNL     1      -4.782   2.699   3.693  0.00  0.00    -0.253 N 
ATOM     20  N   UNL     1      -5.553   1.573   3.664  0.00  0.00    -0.160 NA
ATOM     21  N   UNL     1      -5.106   0.781   2.643  0.00  0.00    -0.259 N 
ATOM     22  H   UNL     1      -6.527   1.804   3.538  0.00  0.00    +0.168 HD
ATOM     23  H   UNL     1      -5.467  -0.081   2.384  0.00  0.00    +0.168 HD
BRANCH  19  24
ATOM     24  C   UNL     1      -4.931   3.811   4.635  0.00  0.00    +0.092 C 
ATOM     25  C   UNL     1      -4.747   3.297   6.064  0.00  0.00    +0.024 C 
ATOM     26  C   UNL     1      -4.902   4.458   7.048  0.00  0.00    +0.002 C 
ATOM     27  C   UNL     1      -6.298   5.067   6.901  0.00  0.00    +0.000 C 
ATOM     28  C   UNL     1      -6.482   5.582   5.472  0.00  0.00    +0.002 C 
ATOM     29  C   UNL     1      -6.326   4.420   4.488  0.00  0.00    +0.024 C 
ENDBRANCH  19  24
ENDBRANCH  14  17
BRANCH   1  31
ATOM     30  C   UNL     1       0.741  -0.277  -1.318  0.00  0.00    +0.009 C 
ATOM     31  C   UNL     1       0.039   0.189  -0.040  0.00  0.00    +0.006 C 
ATOM     32  C   UNL     1       0.018   1.718   0.002  0.00  0.00    +0.009 C 
ENDBRANCH   1  31
TORSDOF 3
