REMARK  Name = ZINC20682353
REMARK  7 active torsions:
REMARK  status: ('A' for Active; 'I' for Inactive)
REMARK    1  A    between atoms: C_1  and  C_2
REMARK    2  A    between atoms: C_2  and  C_3
REMARK    3  A    between atoms: C_2  and  C_4
REMARK    4  A    between atoms: N_6  and  C_7
REMARK    5  A    between atoms: C_20  and  C_23
REMARK    6  A    between atoms: C_26  and  O_30
REMARK    7  A    between atoms: C_28  and  O_29
REMARK                            x       y       z     vdW  Elec       q    Type
REMARK                         _______ _______ _______ _____ _____    ______ ____
ROOT
ATOM      1  C   UNL     1      -0.540   4.310  -0.028  0.00  0.00    +0.034 A 
ATOM      2  C   UNL     1      -1.046   3.017  -0.046  0.00  0.00    +0.025 A 
ATOM      3  C   UNL     1      -0.180   1.945   0.024  0.00  0.00    +0.025 A 
ATOM      4  C   UNL     1       1.191   2.159   0.102  0.00  0.00    +0.031 A 
ATOM      5  C   UNL     1       1.704   3.447   0.113  0.00  0.00    -0.018 A 
ATOM      6  C   UNL     1       0.828   4.521   0.047  0.00  0.00    +0.029 A 
ATOM      7  C   UNL     1       3.172   3.724   0.191  0.00  0.00    +0.049 C 
ATOM      8  C   UNL     1       3.567   4.215   1.563  0.00  0.00    -0.023 C 
ATOM      9  C   UNL     1       4.747   3.746   1.890  0.00  0.00    -0.030 C 
ATOM     10  C   UNL     1       5.303   2.881   0.775  0.00  0.00    +0.033 C 
ATOM     11  C   UNL     1       4.035   2.466  -0.026  0.00  0.00    +0.029 C 
ATOM     12  C   UNL     1       3.409   1.270   0.697  0.00  0.00    +0.108 C 
ATOM     13  N   UNL     1       2.054   1.057   0.177  0.00  0.00    -0.336 N 
ATOM     14  H   UNL     1       1.739   0.053  -0.143  0.00  0.00    +0.147 HD
ENDROOT
BRANCH  12  15
ATOM     15  C   UNL     1       3.343   1.553   2.176  0.00  0.00    +0.015 A 
ATOM     16  C   UNL     1       2.298   2.296   2.691  0.00  0.00    +0.012 A 
ATOM     17  C   UNL     1       2.235   2.557   4.046  0.00  0.00    +0.046 A 
ATOM     18  C   UNL     1       3.222   2.072   4.894  0.00  0.00    +0.120 A 
ATOM     19  C   UNL     1       4.271   1.326   4.380  0.00  0.00    +0.091 A 
ATOM     20  C   UNL     1       4.329   1.061   3.020  0.00  0.00    +0.125 A 
BRANCH  20  21
ATOM     21  O   UNL     1       5.353   0.326   2.514  0.00  0.00    -0.506 OA
ATOM     22  H   UNL     1       6.134  -0.064   3.183  0.00  0.00    +0.292 HD
ENDBRANCH  20  21
BRANCH  18  23
ATOM     23  O   UNL     1       3.159   2.329   6.227  0.00  0.00    -0.507 OA
ATOM     24  H   UNL     1       3.941   1.944   6.899  0.00  0.00    +0.292 HD
ENDBRANCH  18  23
ENDBRANCH  12  15
BRANCH   1  27
ATOM     25  C   UNL     1      -2.676   5.286   0.365  0.00  0.00    +0.220 C 
ATOM     26  O   UNL     1      -3.030   4.262   0.910  0.00  0.00    -0.275 OA
ATOM     27  N   UNL     1      -1.414   5.404  -0.092  0.00  0.00    -0.285 N 
ATOM     28  H   UNL     1      -1.069   6.359  -0.516  0.00  0.00    +0.155 HD
BRANCH  25  30
ATOM     29  C   UNL     1      -4.999   6.036   0.801  0.00  0.00    +0.017 C 
ATOM     30  C   UNL     1      -3.647   6.426   0.200  0.00  0.00    +0.069 C 
ATOM     31  C   UNL     1      -3.107   7.664   0.919  0.00  0.00    +0.017 C 
ENDBRANCH  25  30
ENDBRANCH   1  27
TORSDOF 5
