REMARK  Name = ZINC16259340
REMARK  9 active torsions:
REMARK  status: ('A' for Active; 'I' for Inactive)
REMARK    1  A    between atoms: C_4  and  C_7
REMARK    2  A    between atoms: C_7  and  C_9
REMARK    3  A    between atoms: C_7  and  N_55
REMARK    4  A    between atoms: C_9  and  N_10
REMARK    5  A    between atoms: C_11  and  C_13
REMARK    6  A    between atoms: C_13  and  C_14
REMARK    7  A    between atoms: C_14  and  N_15
REMARK    8  A    between atoms: N_15  and  S_16
REMARK    9  A    between atoms: S_16  and  C_19
REMARK                            x       y       z     vdW  Elec       q    Type
REMARK                         _______ _______ _______ _____ _____    ______ ____
ROOT
ATOM      1  N   UNL     1      -2.317   5.339  -4.496  0.00  0.00    -0.317 N 
ATOM      2  C   UNL     1      -1.828   4.922  -3.311  0.00  0.00    +0.214 C 
ATOM      3  O   UNL     1      -1.485   5.733  -2.477  0.00  0.00    -0.276 OA
ATOM      4  H   UNL     1      -2.591   4.691  -5.163  0.00  0.00    +0.149 HD
ENDROOT
BRANCH   1   5
ATOM      5  C   UNL     1      -2.434   6.773  -4.776  0.00  0.00    +0.093 C 
BRANCH   5   6
ATOM      6  C   UNL     1      -2.902   6.974  -6.218  0.00  0.00    -0.020 C 
BRANCH   6  10
ATOM      7  C   UNL     1      -6.861   5.432  -6.659  0.00  0.00    +0.000 A 
ATOM      8  C   UNL     1      -5.777   4.684  -7.079  0.00  0.00    +0.000 A 
ATOM      9  C   UNL     1      -4.496   5.183  -6.936  0.00  0.00    +0.002 A 
ATOM     10  C   UNL     1      -4.299   6.430  -6.374  0.00  0.00    -0.059 A 
ATOM     11  C   UNL     1      -5.382   7.176  -5.950  0.00  0.00    +0.002 A 
ATOM     12  C   UNL     1      -6.664   6.679  -6.096  0.00  0.00    +0.000 A 
ENDBRANCH   6  10
BRANCH   6  17
ATOM     13  C   UNL     1      -1.538   8.985  -6.370  0.00  0.00    -0.078 C 
ATOM     14  C   UNL     1      -1.594  10.278  -7.221  0.00  0.00    -0.020 C 
ATOM     15  C   UNL     1      -2.449   9.854  -8.438  0.00  0.00    -0.020 C 
ATOM     16  C   UNL     1      -3.256   8.634  -7.956  0.00  0.00    -0.078 C 
ATOM     17  N   UNL     1      -2.888   8.429  -6.555  0.00  0.00    +0.385 N 
ATOM     18  H   UNL     1      -3.552   8.922  -5.946  0.00  0.00    -0.081 HD
ENDBRANCH   6  17
ENDBRANCH   5   6
ENDBRANCH   1   5
BRANCH   2  19
ATOM     19  C   UNL     1      -1.707   3.448  -3.023  0.00  0.00    +0.112 C 
BRANCH  19  20
ATOM     20  C   UNL     1      -1.129   3.248  -1.621  0.00  0.00    +0.115 C 
BRANCH  20  21
ATOM     21  N   UNL     1      -1.011   1.815  -1.341  0.00  0.00    -0.189 NA
ATOM     22  H   UNL     1      -1.476   1.172  -1.899  0.00  0.00    +0.148 HD
BRANCH  21  23
ATOM     23  S   UNL     1      -0.085   1.292  -0.071  0.00  0.00    +0.058 S 
ATOM     24  O   UNL     1      -0.194  -0.124  -0.045  0.00  0.00    -0.153 OA
ATOM     25  O   UNL     1       1.165   1.959  -0.178  0.00  0.00    -0.153 OA
BRANCH  23  26
ATOM     26  C   UNL     1      -0.845   1.882   1.405  0.00  0.00    +0.105 A 
ATOM     27  C   UNL     1      -0.486   3.112   1.923  0.00  0.00    +0.029 A 
ATOM     28  C   UNL     1      -1.086   3.577   3.079  0.00  0.00    +0.017 A 
ATOM     29  C   UNL     1      -2.037   2.807   3.722  0.00  0.00    +0.018 A 
ATOM     30  C   UNL     1      -2.392   1.573   3.207  0.00  0.00    +0.017 A 
ATOM     31  C   UNL     1      -1.796   1.111   2.048  0.00  0.00    +0.029 A 
ATOM     32 BR   UNL     1      -2.853   3.440   5.307  0.00  0.00    -0.050 Br
ENDBRANCH  23  26
ENDBRANCH  21  23
ENDBRANCH  20  21
ENDBRANCH  19  20
ENDBRANCH   2  19
TORSDOF 9
