REMARK  Name = ZINC39759030
REMARK  9 active torsions:
REMARK  status: ('A' for Active; 'I' for Inactive)
REMARK    1  A    between atoms: C_1  and  C_2
REMARK    2  A    between atoms: C_4  and  C_26
REMARK    3  A    between atoms: C_8  and  C_12
REMARK    4  A    between atoms: C_12  and  C_14
REMARK    5  A    between atoms: C_12  and  N_15
REMARK    6  A    between atoms: N_15  and  C_16
REMARK    7  A    between atoms: C_19  and  C_22
REMARK    8  A    between atoms: C_22  and  C_23
REMARK    9  A    between atoms: C_22  and  C_24
REMARK                            x       y       z     vdW  Elec       q    Type
REMARK                         _______ _______ _______ _____ _____    ______ ____
ROOT
ATOM      1  C   UNL     1      -2.262  -3.654   4.678  0.00  0.00    +0.133 C 
ATOM      2  C   UNL     1      -1.196  -4.750   4.737  0.00  0.00    +0.036 C 
ENDROOT
BRANCH   1   9
ATOM      3  C   UNL     1      -0.019   1.526   0.010  0.00  0.00    +0.024 C 
ATOM      4  C   UNL     1       0.002  -0.004   0.002  0.00  0.00    +0.076 C 
ATOM      5  C   UNL     1      -1.399  -0.565   0.089  0.00  0.00    -0.045 C 
ATOM      6  C   UNL     1      -1.704  -1.321   1.155  0.00  0.00    +0.071 C 
ATOM      7  C   UNL     1      -0.645  -1.546   2.162  0.00  0.00    +0.112 C 
ATOM      8  N   UNL     1      -0.881  -2.276   3.226  0.00  0.00    -0.226 NA
ATOM      9  C   UNL     1      -2.066  -2.829   3.432  0.00  0.00    +0.143 C 
ATOM     10  N   UNL     1      -3.079  -2.698   2.609  0.00  0.00    -0.159 NA
ATOM     11  C   UNL     1      -3.005  -1.988   1.478  0.00  0.00    +0.271 C 
ATOM     12  O   UNL     1      -3.966  -1.886   0.735  0.00  0.00    -0.268 OA
ATOM     13  S   UNL     1       0.764  -0.661   1.541  0.00  0.00    -0.098 S 
ATOM     14  C   UNL     1      -2.419  -0.284  -0.984  0.00  0.00    +0.041 C 
ENDBRANCH   1   9
BRANCH   1  15
ATOM     15  N   UNL     1      -3.592  -4.268   4.654  0.00  0.00    -0.334 N 
ATOM     16  H   UNL     1      -4.038  -4.425   3.808  0.00  0.00    +0.147 HD
BRANCH  15  17
ATOM     17  C   UNL     1      -4.217  -4.626   5.851  0.00  0.00    +0.028 A 
ATOM     18  C   UNL     1      -3.582  -4.396   7.064  0.00  0.00    +0.023 A 
ATOM     19  C   UNL     1      -4.204  -4.751   8.245  0.00  0.00    +0.006 A 
ATOM     20  C   UNL     1      -5.457  -5.335   8.220  0.00  0.00    -0.045 A 
ATOM     21  C   UNL     1      -6.092  -5.566   7.014  0.00  0.00    +0.006 A 
ATOM     22  C   UNL     1      -5.479  -5.208   5.829  0.00  0.00    +0.023 A 
BRANCH  20  23
ATOM     23  C   UNL     1      -6.132  -5.722   9.511  0.00  0.00    +0.013 C 
ATOM     24  C   UNL     1      -7.457  -4.968   9.640  0.00  0.00    +0.012 C 
ATOM     25  C   UNL     1      -6.400  -7.229   9.515  0.00  0.00    +0.012 C 
ENDBRANCH  20  23
ENDBRANCH  15  17
ENDBRANCH   1  15
TORSDOF 4
