REMARK  Name = ZINC39456027
REMARK  4 active torsions:
REMARK  status: ('A' for Active; 'I' for Inactive)
REMARK    1  A    between atoms: C_1  and  C_2
REMARK    2  A    between atoms: C_2  and  O_3
REMARK    3  A    between atoms: O_3  and  C_4
REMARK    4  A    between atoms: C_20  and  O_21
REMARK                            x       y       z     vdW  Elec       q    Type
REMARK                         _______ _______ _______ _____ _____    ______ ____
ROOT
ATOM      1  C   UNL     1       0.746  -1.888  -1.280  0.00  0.00    +0.211 C 
ATOM      2  C   UNL     1       1.769  -2.273  -2.354  0.00  0.00    +0.132 C 
ATOM      3  C   UNL     1       1.681  -3.753  -2.619  0.00  0.00    +0.187 C 
ATOM      4  O   UNL     1       2.670  -4.360  -2.978  0.00  0.00    -0.290 OA
ATOM      5  C   UNL     1       0.457  -4.443  -2.455  0.00  0.00    +0.127 A 
ATOM      6  C   UNL     1      -0.654  -3.768  -1.990  0.00  0.00    +0.084 A 
ATOM      7  C   UNL     1      -1.931  -4.483  -1.824  0.00  0.00    +0.100 A 
ATOM      8  C   UNL     1      -1.966  -5.866  -2.145  0.00  0.00    +0.069 A 
ATOM      9  C   UNL     1      -3.143  -6.588  -2.004  0.00  0.00    +0.029 A 
ATOM     10  C   UNL     1      -4.276  -5.906  -1.540  0.00  0.00    +0.043 A 
ATOM     11  C   UNL     1      -4.168  -4.478  -1.229  0.00  0.00    +0.075 A 
ATOM     12  N   UNL     1      -3.003  -3.848  -1.388  0.00  0.00    -0.244 NA
ATOM     13  C   UNL     1      -5.309  -3.801  -0.765  0.00  0.00    +0.028 A 
ATOM     14  C   UNL     1      -6.482  -4.476  -0.613  0.00  0.00    +0.006 A 
ATOM     15  C   UNL     1      -6.593  -5.830  -0.903  0.00  0.00    +0.046 A 
ATOM     16  C   UNL     1      -5.515  -6.555  -1.364  0.00  0.00    +0.126 A 
ATOM     17  C   UNL     1      -0.736  -6.513  -2.626  0.00  0.00    +0.276 A 
ATOM     18  O   UNL     1      -0.743  -7.698  -2.907  0.00  0.00    -0.266 OA
ATOM     19  N   UNL     1       0.396  -5.799  -2.758  0.00  0.00    -0.213 N 
ATOM     20 CL   UNL     1       1.808  -6.585  -3.317  0.00  0.00    +0.022 Cl
ATOM     21  N   UNL     1      -0.565  -2.425  -1.677  0.00  0.00    -0.315 N 
ATOM     22  H   UNL     1      -1.346  -1.852  -1.719  0.00  0.00    +0.149 HD
ENDROOT
BRANCH  16  23
ATOM     23  O   UNL     1      -5.645  -7.876  -1.643  0.00  0.00    -0.506 OA
ATOM     24  H   UNL     1      -5.461  -8.457  -0.892  0.00  0.00    +0.292 HD
ENDBRANCH  16  23
BRANCH   1  25
ATOM     25  O   UNL     1       0.671  -0.465  -1.174  0.00  0.00    -0.359 OA
BRANCH  25  27
ATOM     26  C   UNL     1      -0.019   1.526   0.010  0.00  0.00    +0.034 C 
ATOM     27  C   UNL     1       0.002  -0.004   0.002  0.00  0.00    +0.159 C 
ENDBRANCH  25  27
ENDBRANCH   1  25
TORSDOF 3
