REMARK  Name = ZINC30855150
REMARK  11 active torsions:
REMARK  status: ('A' for Active; 'I' for Inactive)
REMARK    1  A    between atoms: C_1  and  C_2
REMARK    2  A    between atoms: C_2  and  C_3
REMARK    3  A    between atoms: C_2  and  C_4
REMARK    4  A    between atoms: C_4  and  C_5
REMARK    5  A    between atoms: C_5  and  C_7
REMARK    6  A    between atoms: C_5  and  N_15
REMARK    7  A    between atoms: C_10  and  O_13
REMARK    8  A    between atoms: O_13  and  C_14
REMARK    9  A    between atoms: C_16  and  C_18
REMARK   10  A    between atoms: N_21  and  S_29
REMARK   11  A    between atoms: S_29  and  C_32
REMARK                            x       y       z     vdW  Elec       q    Type
REMARK                         _______ _______ _______ _____ _____    ______ ____
ROOT
ATOM      1  C   UNL     1       0.483  -2.775   0.150  0.00  0.00    +0.277 C 
ATOM      2  C   UNL     1      -0.717  -2.131  -0.559  0.00  0.00    +0.186 C 
ATOM      3  N   UNL     1      -0.652  -0.680  -0.316  0.00  0.00    -0.195 N 
ATOM      4  C   UNL     1       0.604  -0.060  -0.400  0.00  0.00    +0.093 A 
ATOM      5  C   UNL     1       0.694   1.321  -0.463  0.00  0.00    +0.028 A 
ATOM      6  C   UNL     1       1.934   1.928  -0.542  0.00  0.00    +0.002 A 
ATOM      7  C   UNL     1       3.082   1.158  -0.558  0.00  0.00    +0.004 A 
ATOM      8  C   UNL     1       2.998  -0.221  -0.496  0.00  0.00    +0.047 A 
ATOM      9  C   UNL     1       1.759  -0.838  -0.418  0.00  0.00    +0.144 A 
ATOM     10  O   UNL     1       1.685  -2.194  -0.361  0.00  0.00    -0.476 OA
ENDROOT
BRANCH   1  12
ATOM     11  N   UNL     1      -0.511  -5.030   0.362  0.00  0.00    -0.305 N 
ATOM     12  C   UNL     1       0.488  -4.259  -0.112  0.00  0.00    +0.256 C 
ATOM     13  O   UNL     1       1.391  -4.760  -0.748  0.00  0.00    -0.272 OA
ATOM     14  H   UNL     1      -1.284  -4.592   1.010  0.00  0.00    +0.149 HD
BRANCH  11  15
ATOM     15  C   UNL     1      -0.566  -6.452   0.015  0.00  0.00    +0.104 C 
BRANCH  15  16
ATOM     16  C   UNL     1      -1.395  -7.187   1.036  0.00  0.00    -0.027 A 
ATOM     17  C   UNL     1      -2.545  -6.607   1.538  0.00  0.00    +0.009 A 
ATOM     18  C   UNL     1      -3.310  -7.281   2.471  0.00  0.00    +0.046 A 
ATOM     19  C   UNL     1      -2.917  -8.536   2.912  0.00  0.00    +0.120 A 
ATOM     20  C   UNL     1      -1.759  -9.114   2.411  0.00  0.00    +0.046 A 
ATOM     21  C   UNL     1      -1.001  -8.438   1.475  0.00  0.00    +0.009 A 
BRANCH  19  22
ATOM     22  O   UNL     1      -3.664  -9.199   3.833  0.00  0.00    -0.495 OA
ATOM     23  C   UNL     1      -4.843  -8.544   4.304  0.00  0.00    +0.277 C 
ENDBRANCH  19  22
ENDBRANCH  15  16
BRANCH  15  24
ATOM     24  C   UNL     1      -1.199  -6.615  -1.369  0.00  0.00    +0.030 C 
BRANCH  24  26
ATOM     25  C   UNL     1      -1.884  -8.272  -3.109  0.00  0.00    +0.007 C 
ATOM     26  C   UNL     1      -1.126  -8.083  -1.794  0.00  0.00    -0.015 C 
ATOM     27  C   UNL     1       0.338  -8.485  -1.986  0.00  0.00    +0.007 C 
ENDBRANCH  24  26
ENDBRANCH  15  24
ENDBRANCH  11  15
ENDBRANCH   1  12
BRANCH   3  28
ATOM     28  S   UNL     1      -2.015   0.190   0.044  0.00  0.00    +0.075 S 
ATOM     29  O   UNL     1      -2.950  -0.729   0.593  0.00  0.00    -0.150 OA
ATOM     30  O   UNL     1      -1.583   1.348   0.745  0.00  0.00    -0.150 OA
BRANCH  28  31
ATOM     31  C   UNL     1      -2.694   0.749  -1.483  0.00  0.00    +0.109 A 
ATOM     32  C   UNL     1      -2.308   1.969  -2.005  0.00  0.00    +0.030 A 
ATOM     33  C   UNL     1      -2.836   2.406  -3.205  0.00  0.00    +0.022 A 
ATOM     34  C   UNL     1      -3.760   1.627  -3.878  0.00  0.00    +0.041 A 
ATOM     35  C   UNL     1      -4.151   0.408  -3.352  0.00  0.00    +0.022 A 
ATOM     36  C   UNL     1      -3.617  -0.030  -2.155  0.00  0.00    +0.030 A 
ATOM     37 CL   UNL     1      -4.429   2.177  -5.383  0.00  0.00    -0.084 Cl
ENDBRANCH  28  31
ENDBRANCH   3  28
TORSDOF 8
