REMARK  Name = ZINC06134847
REMARK  11 active torsions:
REMARK  status: ('A' for Active; 'I' for Inactive)
REMARK    1  A    between atoms: C_1  and  C_2
REMARK    2  A    between atoms: C_2  and  C_3
REMARK    3  A    between atoms: C_2  and  C_4
REMARK    4  A    between atoms: C_4  and  O_5
REMARK    5  A    between atoms: O_5  and  C_6
REMARK    6  A    between atoms: N_8  and  C_9
REMARK    7  A    between atoms: C_9  and  C_11
REMARK    8  A    between atoms: C_9  and  C_22
REMARK    9  A    between atoms: C_11  and  C_12
REMARK   10  A    between atoms: N_24  and  N_25
REMARK   11  A    between atoms: C_26  and  C_27
REMARK                            x       y       z     vdW  Elec       q    Type
REMARK                         _______ _______ _______ _____ _____    ______ ____
ROOT
ATOM      1  C   UNL     1       0.002  -0.004   0.002  0.00  0.00    +0.168 C 
ENDROOT
BRANCH   1   4
ATOM      2  C   UNL     1       0.046  -0.180   2.432  0.00  0.00    +0.401 C 
ATOM      3  O   UNL     1      -0.957   0.505   2.470  0.00  0.00    -0.226 OA
ATOM      4  N   UNL     1       0.604  -0.491   1.246  0.00  0.00    -0.269 N 
ATOM      5  H   UNL     1       1.405  -1.038   1.215  0.00  0.00    +0.153 HD
BRANCH   2   6
ATOM      6  O   UNL     1       0.599  -0.627   3.575  0.00  0.00    -0.450 OA
BRANCH   6   7
ATOM      7  C   UNL     1      -0.056  -0.253   4.815  0.00  0.00    +0.236 C 
BRANCH   7   9
ATOM      8  C   UNL     1       2.105  -0.221   6.070  0.00  0.00    +0.010 C 
ATOM      9  C   UNL     1       0.711  -0.849   5.997  0.00  0.00    +0.021 C 
ATOM     10  C   UNL     1      -0.046  -0.560   7.295  0.00  0.00    +0.010 C 
ENDBRANCH   7   9
ENDBRANCH   6   7
ENDBRANCH   2   6
ENDBRANCH   1   4
BRANCH   1  11
ATOM     11  C   UNL     1      -1.407  -0.525  -0.111  0.00  0.00    +0.253 C 
ATOM     12  O   UNL     1      -1.992  -0.912   0.878  0.00  0.00    -0.272 OA
ATOM     13  N   UNL     1      -2.018  -0.560  -1.312  0.00  0.00    -0.205 N 
ATOM     14  H   UNL     1      -1.551  -0.250  -2.103  0.00  0.00    +0.177 HD
BRANCH  13  15
ATOM     15  N   UNL     1      -3.329  -1.044  -1.417  0.00  0.00    -0.188 NA
ATOM     16  C   UNL     1      -3.917  -1.078  -2.573  0.00  0.00    +0.139 C 
BRANCH  16  17
ATOM     17  C   UNL     1      -5.297  -1.588  -2.684  0.00  0.00    +0.013 A 
ATOM     18  C   UNL     1      -5.935  -1.621  -3.926  0.00  0.00    +0.011 A 
ATOM     19  C   UNL     1      -7.223  -2.104  -4.023  0.00  0.00    +0.001 A 
ATOM     20  C   UNL     1      -7.888  -2.546  -2.892  0.00  0.00    +0.001 A 
ATOM     21  C   UNL     1      -7.265  -2.511  -1.658  0.00  0.00    +0.020 A 
ATOM     22  C   UNL     1      -5.973  -2.035  -1.546  0.00  0.00    +0.050 A 
ATOM     23 CL   UNL     1      -5.193  -1.992   0.004  0.00  0.00    -0.083 Cl
ENDBRANCH  16  17
ENDBRANCH  13  15
ENDBRANCH   1  11
BRANCH   1  24
ATOM     24  C   UNL     1      -0.019   1.526   0.010  0.00  0.00    +0.069 C 
BRANCH  24  25
ATOM     25  C   UNL     1       1.395   2.047  -0.000  0.00  0.00    -0.020 A 
ATOM     26  C   UNL     1       2.120   2.412   1.069  0.00  0.00    +0.087 A 
ATOM     27  N   UNL     1       3.360   2.832   0.671  0.00  0.00    -0.360 N 
ATOM     28  H   UNL     1       4.061   3.142   1.266  0.00  0.00    +0.165 HD
ATOM     29  C   UNL     1       3.463   2.754  -0.699  0.00  0.00    +0.047 A 
ATOM     30  C   UNL     1       2.237   2.259  -1.180  0.00  0.00    +0.003 A 
ATOM     31  C   UNL     1       2.050   2.073  -2.551  0.00  0.00    +0.010 A 
ATOM     32  C   UNL     1       3.062   2.373  -3.420  0.00  0.00    +0.001 A 
ATOM     33  C   UNL     1       4.273   2.862  -2.951  0.00  0.00    +0.002 A 
ATOM     34  C   UNL     1       4.478   3.053  -1.602  0.00  0.00    +0.026 A 
ENDBRANCH  24  25
ENDBRANCH   1  24
TORSDOF 9
