REMARK  Name = ZINC12420106
REMARK  5 active torsions:
REMARK  status: ('A' for Active; 'I' for Inactive)
REMARK    1  A    between atoms: C_1  and  C_2
REMARK    2  A    between atoms: C_2  and  C_3
REMARK    3  A    between atoms: C_3  and  C_4
REMARK    4  A    between atoms: C_4  and  N_5
REMARK    5  A    between atoms: N_24  and  C_25
REMARK                            x       y       z     vdW  Elec       q    Type
REMARK                         _______ _______ _______ _____ _____    ______ ____
ROOT
ATOM      1  N   UNL     1      -0.248   4.587   0.374  0.00  0.00    -0.268 N 
ATOM      2  C   UNL     1       0.528   3.475   0.649  0.00  0.00    +0.044 A 
ATOM      3  C   UNL     1       1.875   3.401   1.005  0.00  0.00    +0.024 A 
ATOM      4  C   UNL     1       2.405   2.139   1.224  0.00  0.00    +0.002 A 
ATOM      5  C   UNL     1       1.642   0.995   1.098  0.00  0.00    +0.001 A 
ATOM      6  C   UNL     1       0.299   1.055   0.743  0.00  0.00    +0.010 A 
ATOM      7  C   UNL     1      -0.234   2.307   0.524  0.00  0.00    +0.025 A 
ATOM      8  C   UNL     1      -1.611   2.744   0.130  0.00  0.00    +0.212 C 
ATOM      9  C   UNL     1      -1.517   4.254   0.061  0.00  0.00    +0.267 C 
ATOM     10  O   UNL     1      -2.413   5.020  -0.226  0.00  0.00    -0.271 OA
ATOM     11  N   UNL     1      -2.590   2.359   1.149  0.00  0.00    -0.311 N 
ATOM     12  C   UNL     1      -3.090   1.061   1.145  0.00  0.00    +0.041 A 
ATOM     13  C   UNL     1      -3.538   0.451   2.304  0.00  0.00    +0.024 A 
ATOM     14  C   UNL     1      -4.038  -0.836   2.251  0.00  0.00    +0.002 A 
ATOM     15  C   UNL     1      -4.093  -1.520   1.047  0.00  0.00    +0.001 A 
ATOM     16  C   UNL     1      -3.647  -0.929  -0.116  0.00  0.00    +0.015 A 
ATOM     17  C   UNL     1      -3.137   0.367  -0.077  0.00  0.00    +0.058 A 
ATOM     18  C   UNL     1      -2.629   1.031  -1.290  0.00  0.00    +0.255 C 
ATOM     19  O   UNL     1      -2.797   0.525  -2.383  0.00  0.00    -0.269 OA
ATOM     20  N   UNL     1      -1.975   2.206  -1.178  0.00  0.00    -0.234 N 
ATOM     21  H   UNL     1      -2.886   2.999   1.815  0.00  0.00    +0.149 HD
ENDROOT
BRANCH  20  22
ATOM     22  C   UNL     1      -1.641   2.921  -2.333  0.00  0.00    +0.040 A 
ATOM     23  C   UNL     1      -2.583   3.743  -2.939  0.00  0.00    +0.025 A 
ATOM     24  C   UNL     1      -2.249   4.451  -4.076  0.00  0.00    +0.022 A 
ATOM     25  C   UNL     1      -0.981   4.334  -4.619  0.00  0.00    +0.041 A 
ATOM     26  C   UNL     1      -0.043   3.512  -4.020  0.00  0.00    +0.022 A 
ATOM     27  C   UNL     1      -0.370   2.805  -2.879  0.00  0.00    +0.025 A 
ATOM     28 CL   UNL     1      -0.567   5.221  -6.053  0.00  0.00    -0.084 Cl
ENDBRANCH  20  22
BRANCH   1  29
ATOM     29  C   UNL     1       0.250   5.964   0.418  0.00  0.00    +0.114 C 
BRANCH  29  30
ATOM     30  C   UNL     1       0.791   6.356  -0.958  0.00  0.00    +0.019 C 
BRANCH  30  32
ATOM     31  C   UNL     1       1.852   8.186  -2.288  0.00  0.00    +0.004 C 
ATOM     32  C   UNL     1       1.311   7.794  -0.912  0.00  0.00    -0.002 C 
ENDBRANCH  30  32
ENDBRANCH  29  30
ENDBRANCH   1  29
TORSDOF 4
