REMARK  Name = ZINC28054685
REMARK  3 active torsions:
REMARK  status: ('A' for Active; 'I' for Inactive)
REMARK    1  A    between atoms: C_1  and  C_2
REMARK    2  A    between atoms: C_5  and  C_8
REMARK    3  A    between atoms: C_19  and  C_21
REMARK                            x       y       z     vdW  Elec       q    Type
REMARK                         _______ _______ _______ _____ _____    ______ ____
ROOT
ATOM      1  C   UNL     1      -2.730   5.130  -2.228  0.00  0.00    +0.174 C 
ATOM      2  C   UNL     1      -3.091   3.950  -1.357  0.00  0.00    +0.025 C 
ATOM      3  C   UNL     1      -3.885   2.967  -1.782  0.00  0.00    +0.050 C 
ATOM      4  C   UNL     1      -4.202   1.862  -0.846  0.00  0.00    +0.039 A 
ATOM      5  C   UNL     1      -4.726   0.656  -1.296  0.00  0.00    +0.033 A 
ATOM      6  C   UNL     1      -5.006  -0.347  -0.387  0.00  0.00    +0.042 A 
ATOM      7  C   UNL     1      -4.766  -0.152   0.963  0.00  0.00    +0.023 A 
ATOM      8  C   UNL     1      -4.244   1.045   1.419  0.00  0.00    +0.048 A 
ATOM      9  C   UNL     1      -3.960   2.056   0.520  0.00  0.00    +0.131 A 
ATOM     10  O   UNL     1      -3.446   3.245   0.927  0.00  0.00    -0.479 OA
ATOM     11  C   UNL     1      -2.530   3.893   0.046  0.00  0.00    +0.234 C 
ATOM     12 CL   UNL     1      -5.663  -1.856  -0.939  0.00  0.00    -0.084 Cl
ATOM     13  N   UNL     1      -4.420   2.943  -3.075  0.00  0.00    -0.282 N 
ATOM     14  C   UNL     1      -3.891   3.830  -3.998  0.00  0.00    +0.240 A 
ATOM     15  N   UNL     1      -3.091   4.858  -3.612  0.00  0.00    -0.201 N 
ATOM     16  N   UNL     1      -2.745   5.522  -4.788  0.00  0.00    -0.042 NA
ATOM     17  N   UNL     1      -3.332   4.890  -5.754  0.00  0.00    -0.021 NA
ATOM     18  N   UNL     1      -4.008   3.894  -5.293  0.00  0.00    -0.092 NA
ATOM     19  H   UNL     1      -5.228   2.239  -3.324  0.00  0.00    +0.155 HD
ENDROOT
BRANCH   1  24
ATOM     20  C   UNL     1      -5.572   9.813  -0.389  0.00  0.00    +0.044 C 
ATOM     21  C   UNL     1      -4.830   8.592  -0.869  0.00  0.00    -0.050 A 
ATOM     22  C   UNL     1      -3.448   8.580  -0.874  0.00  0.00    +0.004 A 
ATOM     23  C   UNL     1      -2.768   7.459  -1.314  0.00  0.00    +0.006 A 
ATOM     24  C   UNL     1      -3.471   6.351  -1.748  0.00  0.00    -0.019 A 
ATOM     25  C   UNL     1      -4.853   6.365  -1.748  0.00  0.00    +0.006 A 
ATOM     26  C   UNL     1      -5.533   7.483  -1.304  0.00  0.00    +0.004 A 
ENDBRANCH   1  24
BRANCH  11  27
ATOM     27  C   UNL     1      -1.231   3.129   0.030  0.00  0.00    -0.000 A 
ATOM     28  C   UNL     1      -1.223   1.742   0.017  0.00  0.00    +0.027 A 
ATOM     29  C   UNL     1      -0.013   1.076   0.008  0.00  0.00    +0.111 A 
ATOM     30  N   UNL     1       1.125   1.743   0.001  0.00  0.00    -0.263 NA
ATOM     31  C   UNL     1       1.155   3.061   0.007  0.00  0.00    +0.111 A 
ATOM     32  C   UNL     1      -0.015   3.796   0.022  0.00  0.00    +0.027 A 
ENDBRANCH  11  27
TORSDOF 2
