REMARK  Name = ZINC65974397
REMARK  4 active torsions:
REMARK  status: ('A' for Active; 'I' for Inactive)
REMARK    1  A    between atoms: C_3  and  S_12
REMARK    2  A    between atoms: C_6  and  S_7
REMARK    3  A    between atoms: S_7  and  N_10
REMARK    4  A    between atoms: S_12  and  N_15
REMARK                            x       y       z     vdW  Elec       q    Type
REMARK                         _______ _______ _______ _____ _____    ______ ____
ROOT
ATOM      1  S   UNL     1       3.890   2.317  -0.023  0.00  0.00    +0.064 S 
ATOM      2  O   UNL     1       2.772   3.078   0.414  0.00  0.00    -0.153 OA
ATOM      3  O   UNL     1       3.751   1.142  -0.810  0.00  0.00    -0.153 OA
ENDROOT
BRANCH   1   4
ATOM      4  N   UNL     1       4.727   1.880   1.337  0.00  0.00    -0.173 NA
ATOM      5  C   UNL     1       4.480   2.603   2.552  0.00  0.00    +0.113 C 
ATOM      6  C   UNL     1       4.585   1.745   3.777  0.00  0.00    +0.005 C 
ATOM      7  C   UNL     1       3.860   0.417   3.632  0.00  0.00    +0.008 C 
ATOM      8  C   UNL     1       4.698  -0.687   3.019  0.00  0.00    -0.009 C 
ATOM      9  C   UNL     1       6.056  -0.799   3.719  0.00  0.00    +0.007 C 
ATOM     10  C   UNL     1       6.759   0.551   3.559  0.00  0.00    -0.009 C 
ATOM     11  C   UNL     1       5.969   1.600   4.343  0.00  0.00    +0.008 C 
ATOM     12  C   UNL     1       6.897   0.940   2.106  0.00  0.00    +0.024 C 
ATOM     13  C   UNL     1       5.670   0.780   1.245  0.00  0.00    +0.080 C 
ATOM     14  C   UNL     1       4.929  -0.522   1.524  0.00  0.00    +0.024 C 
ENDBRANCH   1   4
BRANCH   1  17
ATOM     15  C   UNL     1       6.210   3.904  -2.895  0.00  0.00    +0.030 A 
ATOM     16  C   UNL     1       5.402   3.042  -2.177  0.00  0.00    +0.033 A 
ATOM     17  C   UNL     1       4.920   3.416  -0.938  0.00  0.00    +0.141 A 
ATOM     18  C   UNL     1       5.247   4.656  -0.414  0.00  0.00    +0.151 A 
ATOM     19  C   UNL     1       6.056   5.518  -1.134  0.00  0.00    +0.068 A 
ATOM     20  C   UNL     1       6.537   5.141  -2.374  0.00  0.00    +0.108 A 
ATOM     21  F   UNL     1       4.777   5.023   0.798  0.00  0.00    -0.203 F 
BRANCH  20  22
ATOM     22  S   UNL     1       7.567   6.239  -3.290  0.00  0.00    +0.056 S 
ATOM     23  O   UNL     1       8.170   7.113  -2.345  0.00  0.00    -0.153 OA
ATOM     24  O   UNL     1       8.330   5.433  -4.178  0.00  0.00    -0.153 OA
BRANCH  22  25
ATOM     25  N   UNL     1       6.574   7.171  -4.231  0.00  0.00    -0.204 NA
ATOM     26  H   UNL     1       5.613   7.043  -4.197  0.00  0.00    +0.144 HD
ATOM     27  H   UNL     1       6.953   7.846  -4.816  0.00  0.00    +0.144 HD
ENDBRANCH  22  25
ENDBRANCH  20  22
ENDBRANCH   1  17
TORSDOF 4
