REMARK  Name = ZINC58085033
REMARK  7 active torsions:
REMARK  status: ('A' for Active; 'I' for Inactive)
REMARK    1  A    between atoms: C_4  and  C_14
REMARK    2  A    between atoms: C_5  and  C_7
REMARK    3  A    between atoms: C_7  and  N_8
REMARK    4  A    between atoms: N_15  and  O_16
REMARK    5  A    between atoms: O_16  and  C_17
REMARK    6  A    between atoms: C_17  and  C_18
REMARK    7  A    between atoms: C_21  and  C_23
REMARK                            x       y       z     vdW  Elec       q    Type
REMARK                         _______ _______ _______ _____ _____    ______ ____
ROOT
ATOM      1  C   UNL     1       3.325  -0.801   0.628  0.00  0.00    +0.163 C 
ATOM      2  N   UNL     1       3.999  -0.529   1.706  0.00  0.00    -0.069 NA
ATOM      3  N   UNL     1       3.766  -1.792  -0.233  0.00  0.00    -0.340 N 
ATOM      4  H   UNL     1       3.264  -1.995  -1.037  0.00  0.00    +0.144 HD
ATOM      5  H   UNL     1       4.578  -2.283  -0.032  0.00  0.00    +0.144 HD
ENDROOT
BRANCH   1   9
ATOM      6  C   UNL     1      -0.233   1.349  -0.255  0.00  0.00    +0.000 A 
ATOM      7  C   UNL     1       0.955   2.032  -0.061  0.00  0.00    +0.001 A 
ATOM      8  C   UNL     1       2.113   1.339   0.226  0.00  0.00    +0.011 A 
ATOM      9  C   UNL     1       2.085  -0.052   0.320  0.00  0.00    +0.019 A 
ATOM     10  C   UNL     1       0.885  -0.735   0.123  0.00  0.00    -0.053 A 
ATOM     11  C   UNL     1      -0.267  -0.031  -0.163  0.00  0.00    +0.002 A 
BRANCH  10  12
ATOM     12  C   UNL     1       0.847  -2.238   0.223  0.00  0.00    -0.042 C 
BRANCH  12  13
ATOM     13  N   UNL     1       0.888  -2.636   1.636  0.00  0.00    +0.382 N 
ATOM     14  C   UNL     1      -0.338  -2.185   2.306  0.00  0.00    -0.078 C 
ATOM     15  C   UNL     1      -0.264  -2.526   3.796  0.00  0.00    -0.019 C 
ATOM     16  C   UNL     1      -0.119  -4.042   3.961  0.00  0.00    -0.004 C 
ATOM     17  C   UNL     1       1.122  -4.512   3.196  0.00  0.00    -0.019 C 
ATOM     18  C   UNL     1       0.997  -4.097   1.728  0.00  0.00    -0.078 C 
ATOM     19  H   UNL     1       1.688  -2.212   2.081  0.00  0.00    -0.081 HD
ENDBRANCH  12  13
ENDBRANCH  10  12
ENDBRANCH   1   9
BRANCH   2  20
ATOM     20  O   UNL     1       3.599   0.544   2.539  0.00  0.00    -0.386 OA
BRANCH  20  21
ATOM     21  C   UNL     1       4.492   0.801   3.625  0.00  0.00    +0.321 C 
BRANCH  21  22
ATOM     22  C   UNL     1       3.911   1.874   4.509  0.00  0.00    +0.120 A 
ATOM     23  C   UNL     1       2.696   2.437   4.378  0.00  0.00    +0.224 A 
ATOM     24  O   UNL     1       2.567   3.345   5.366  0.00  0.00    -0.443 OA
ATOM     25  C   UNL     1       3.701   3.328   6.088  0.00  0.00    +0.228 A 
ATOM     26  N   UNL     1       4.511   2.433   5.571  0.00  0.00    -0.210 NA
BRANCH  25  27
ATOM     27  C   UNL     1       3.986   4.170   7.269  0.00  0.00    +0.040 A 
ATOM     28  C   UNL     1       5.211   4.059   7.929  0.00  0.00    +0.013 A 
ATOM     29  C   UNL     1       5.472   4.848   9.030  0.00  0.00    +0.004 A 
ATOM     30  C   UNL     1       4.523   5.748   9.482  0.00  0.00    +0.038 A 
ATOM     31  C   UNL     1       3.305   5.864   8.832  0.00  0.00    +0.124 A 
ATOM     32  C   UNL     1       3.034   5.083   7.724  0.00  0.00    +0.051 A 
ATOM     33  F   UNL     1       2.383   6.744   9.278  0.00  0.00    -0.205 F 
ENDBRANCH  25  27
ENDBRANCH  21  22
ENDBRANCH  20  21
ENDBRANCH   2  20
TORSDOF 7
