REMARK  Name = ZINC63761205
REMARK  4 active torsions:
REMARK  status: ('A' for Active; 'I' for Inactive)
REMARK    1  A    between atoms: C_7  and  C_10
REMARK    2  A    between atoms: C_10  and  C_11
REMARK    3  A    between atoms: N_13  and  N_14
REMARK    4  A    between atoms: C_15  and  C_16
REMARK                            x       y       z     vdW  Elec       q    Type
REMARK                         _______ _______ _______ _____ _____    ______ ____
ROOT
ATOM      1  C   UNL     1       0.460  -3.646  -1.440  0.00  0.00    +0.236 C 
ATOM      2  O   UNL     1       1.006  -3.075  -2.360  0.00  0.00    -0.274 OA
ATOM      3  N   UNL     1      -0.353  -4.693  -1.684  0.00  0.00    -0.207 N 
ATOM      4  H   UNL     1      -0.790  -5.150  -0.948  0.00  0.00    +0.177 HD
ENDROOT
BRANCH   3   5
ATOM      5  N   UNL     1      -0.567  -5.122  -3.001  0.00  0.00    -0.187 NA
ATOM      6  C   UNL     1      -1.351  -6.130  -3.236  0.00  0.00    +0.144 C 
BRANCH   6   7
ATOM      7  C   UNL     1      -1.576  -6.580  -4.619  0.00  0.00    +0.025 C 
ATOM      8  C   UNL     1      -2.351  -7.591  -5.021  0.00  0.00    +0.005 C 
ATOM      9  C   UNL     1      -2.469  -7.902  -6.475  0.00  0.00    +0.092 C 
ATOM     10  C   UNL     1      -1.286  -7.260  -7.276  0.00  0.00    +0.092 C 
ATOM     11  S   UNL     1      -0.876  -5.884  -6.103  0.00  0.00    -0.115 S 
ATOM     12  C   UNL     1      -1.777  -6.680  -8.560  0.00  0.00    -0.004 C 
ATOM     13  C   UNL     1      -3.061  -6.444  -8.732  0.00  0.00    +0.038 C 
ATOM     14  S   UNL     1      -3.879  -6.963  -7.194  0.00  0.00    -0.124 S 
ENDBRANCH   6   7
ENDBRANCH   3   5
BRANCH   1  15
ATOM     15  C   UNL     1       0.691  -3.186  -0.024  0.00  0.00    +0.130 C 
BRANCH  15  22
ATOM     16  C   UNL     1      -0.016   1.348   0.009  0.00  0.00    +0.001 A 
ATOM     17  C   UNL     1       1.166   2.101   0.002  0.00  0.00    +0.002 A 
ATOM     18  C   UNL     1       2.391   1.535  -0.013  0.00  0.00    +0.026 A 
ATOM     19  C   UNL     1       2.529   0.120  -0.022  0.00  0.00    +0.043 A 
ATOM     20  N   UNL     1       3.587  -0.654  -0.037  0.00  0.00    -0.380 N 
ATOM     21  C   UNL     1       3.143  -2.053  -0.041  0.00  0.00    +0.145 C 
ATOM     22  C   UNL     1       1.631  -2.008  -0.025  0.00  0.00    -0.033 C 
ATOM     23  C   UNL     1       1.295  -0.698  -0.014  0.00  0.00    -0.001 A 
ATOM     24  C   UNL     1       0.002  -0.004   0.002  0.00  0.00    +0.010 A 
ATOM     25  H   UNL     1       4.509  -0.353  -0.045  0.00  0.00    +0.160 HD
ENDBRANCH  15  22
ENDBRANCH   1  15
TORSDOF 4
