REMARK  Name = ZINC12238240
REMARK  5 active torsions:
REMARK  status: ('A' for Active; 'I' for Inactive)
REMARK    1  A    between atoms: C_3  and  C_6
REMARK    2  A    between atoms: C_7  and  C_12
REMARK    3  A    between atoms: C_12  and  C_13
REMARK    4  A    between atoms: C_20  and  C_22
REMARK    5  A    between atoms: C_22  and  N_55
REMARK                            x       y       z     vdW  Elec       q    Type
REMARK                         _______ _______ _______ _____ _____    ______ ____
ROOT
ATOM      1  C   UNL     1      -0.094   2.551   1.609  0.00  0.00    +0.221 C 
ATOM      2  O   UNL     1      -0.820   2.841   2.537  0.00  0.00    -0.275 OA
ATOM      3  N   UNL     1      -0.490   1.632   0.706  0.00  0.00    -0.300 N 
ATOM      4  C   UNL     1       0.415   1.202  -0.369  0.00  0.00    +0.108 C 
ATOM      5  C   UNL     1      -0.296   1.376  -1.714  0.00  0.00    +0.019 C 
ATOM      6  C   UNL     1      -1.631   0.628  -1.683  0.00  0.00    +0.003 C 
ATOM      7  C   UNL     1      -2.521   1.216  -0.586  0.00  0.00    +0.021 C 
ATOM      8  C   UNL     1      -1.836   1.040   0.772  0.00  0.00    +0.059 C 
ENDROOT
BRANCH   1   9
ATOM      9  C   UNL     1       1.250   3.218   1.467  0.00  0.00    +0.140 C 
BRANCH   9  11
ATOM     10  C   UNL     1       2.066   3.786   3.871  0.00  0.00    +0.090 A 
ATOM     11  C   UNL     1       1.504   4.097   2.664  0.00  0.00    +0.028 A 
ATOM     12  S   UNL     1       1.159   5.837   2.895  0.00  0.00    -0.056 S 
ATOM     13  C   UNL     1       1.784   5.971   4.564  0.00  0.00    +0.156 A 
ATOM     14  N   UNL     1       2.192   4.737   4.795  0.00  0.00    -0.224 NA
ATOM     15  N   UNL     1       1.831   7.079   5.394  0.00  0.00    -0.337 N 
ATOM     16  H   UNL     1       2.208   7.002   6.285  0.00  0.00    +0.144 HD
ATOM     17  H   UNL     1       1.489   7.932   5.085  0.00  0.00    +0.144 HD
BRANCH  10  20
ATOM     18  C   UNL     1       3.853   0.639   4.988  0.00  0.00    +0.008 A 
ATOM     19  C   UNL     1       3.619   1.993   4.864  0.00  0.00    +0.018 A 
ATOM     20  C   UNL     1       2.529   2.409   4.147  0.00  0.00    +0.038 A 
ATOM     21  S   UNL     1       1.808   0.857   3.640  0.00  0.00    -0.095 S 
ATOM     22  C   UNL     1       2.999  -0.235   4.399  0.00  0.00    +0.046 A 
ENDBRANCH  10  20
ENDBRANCH   9  11
ENDBRANCH   1   9
BRANCH   8  23
ATOM     23  C   UNL     1      -2.655   1.745   1.856  0.00  0.00    -0.056 C 
BRANCH  23  29
ATOM     24  C   UNL     1      -2.371  -0.103   3.393  0.00  0.00    -0.079 C 
ATOM     25  C   UNL     1      -1.725  -0.520   4.716  0.00  0.00    -0.019 C 
ATOM     26  C   UNL     1      -2.358   0.277   5.861  0.00  0.00    -0.004 C 
ATOM     27  C   UNL     1      -2.178   1.774   5.591  0.00  0.00    -0.019 C 
ATOM     28  C   UNL     1      -2.810   2.124   4.242  0.00  0.00    -0.079 C 
ATOM     29  N   UNL     1      -2.140   1.342   3.181  0.00  0.00    +0.381 N 
ATOM     30  H   UNL     1      -1.131   1.527   3.217  0.00  0.00    -0.082 HD
ENDBRANCH  23  29
ENDBRANCH   8  23
TORSDOF 5
