REMARK  Name = ZINC36039472
REMARK  11 active torsions:
REMARK  status: ('A' for Active; 'I' for Inactive)
REMARK    1  A    between atoms: C_1  and  C_2
REMARK    2  A    between atoms: C_5  and  N_9
REMARK    3  A    between atoms: C_7  and  C_8
REMARK    4  A    between atoms: C_11  and  C_23
REMARK    5  A    between atoms: N_14  and  C_15
REMARK    6  A    between atoms: C_15  and  C_17
REMARK    7  A    between atoms: C_17  and  N_18
REMARK    8  A    between atoms: N_18  and  C_19
REMARK    9  A    between atoms: C_19  and  C_20
REMARK   10  A    between atoms: C_20  and  C_21
REMARK   11  A    between atoms: C_20  and  C_22
REMARK                            x       y       z     vdW  Elec       q    Type
REMARK                         _______ _______ _______ _____ _____    ______ ____
ROOT
ATOM      1  N   UNL     1       0.058  -4.171  -0.021  0.00  0.00    -0.287 N 
ATOM      2  C   UNL     1       0.068  -4.987   1.092  0.00  0.00    +0.120 A 
ATOM      3  C   UNL     1       0.086  -6.264   0.673  0.00  0.00    +0.066 A 
ATOM      4  N   UNL     1       0.086  -6.258  -0.717  0.00  0.00    -0.326 N 
ATOM      5  C   UNL     1       0.063  -4.963  -1.127  0.00  0.00    +0.205 A 
ATOM      6  N   UNL     1       0.051  -4.542  -2.392  0.00  0.00    -0.148 NA
ATOM      7  H   UNL     1       0.097  -7.039  -1.292  0.00  0.00    +0.169 HD
ENDROOT
BRANCH   1  12
ATOM      8  C   UNL     1      -0.018   1.503   0.010  0.00  0.00    +0.044 C 
ATOM      9  C   UNL     1       0.002  -0.004   0.002  0.00  0.00    -0.047 A 
ATOM     10  C   UNL     1       0.006  -0.688  -1.200  0.00  0.00    +0.005 A 
ATOM     11  C   UNL     1       0.024  -2.068  -1.211  0.00  0.00    +0.026 A 
ATOM     12  C   UNL     1       0.040  -2.771  -0.013  0.00  0.00    +0.049 A 
ATOM     13  C   UNL     1       0.036  -2.082   1.192  0.00  0.00    +0.029 A 
ATOM     14  C   UNL     1       0.023  -0.700   1.196  0.00  0.00    -0.046 A 
ATOM     15  C   UNL     1       0.026   0.049   2.504  0.00  0.00    +0.044 C 
ENDBRANCH   1  12
BRANCH   3  16
ATOM     16  C   UNL     1       0.102  -7.465   1.538  0.00  0.00    -0.000 A 
ATOM     17  C   UNL     1       0.094  -7.327   2.926  0.00  0.00    +0.010 A 
ATOM     18  C   UNL     1       0.110  -8.451   3.728  0.00  0.00    +0.001 A 
ATOM     19  C   UNL     1       0.133  -9.711   3.157  0.00  0.00    +0.000 A 
ATOM     20  C   UNL     1       0.141  -9.853   1.781  0.00  0.00    +0.001 A 
ATOM     21  C   UNL     1       0.119  -8.738   0.969  0.00  0.00    +0.010 A 
ENDBRANCH   3  16
BRANCH   6  22
ATOM     22  C   UNL     1       0.058  -5.424  -3.385  0.00  0.00    +0.222 C 
ATOM     23  O   UNL     1       0.075  -6.615  -3.140  0.00  0.00    -0.276 OA
BRANCH  22  24
ATOM     24  C   UNL     1       0.045  -4.948  -4.814  0.00  0.00    +0.017 C 
BRANCH  24  25
ATOM     25  N   UNL     1       0.056  -6.107  -5.716  0.00  0.00    +0.385 N 
ATOM     26  H   UNL     1       0.888  -6.654  -5.552  0.00  0.00    -0.085 HD
ATOM     27  H   UNL     1      -0.760  -6.676  -5.543  0.00  0.00    -0.085 HD
BRANCH  25  28
ATOM     28  C   UNL     1       0.043  -5.643  -7.110  0.00  0.00    -0.079 C 
BRANCH  28  29
ATOM     29  C   UNL     1       0.054  -6.851  -8.050  0.00  0.00    -0.034 C 
ATOM     30  C   UNL     1      -1.242  -7.645  -7.875  0.00  0.00    +0.005 C 
ATOM     31  C   UNL     1       0.167  -6.370  -9.498  0.00  0.00    +0.005 C 
ENDBRANCH  28  29
ENDBRANCH  25  28
ENDBRANCH  24  25
ENDBRANCH  22  24
ENDBRANCH   6  22
TORSDOF 7
