REMARK  Name = ZINC09912868
REMARK  11 active torsions:
REMARK  status: ('A' for Active; 'I' for Inactive)
REMARK    1  A    between atoms: C_1  and  C_2
REMARK    2  A    between atoms: C_2  and  O_3
REMARK    3  A    between atoms: O_3  and  C_4
REMARK    4  A    between atoms: C_12  and  N_17
REMARK    5  A    between atoms: C_13  and  C_14
REMARK    6  A    between atoms: C_18  and  C_20
REMARK    7  A    between atoms: C_20  and  C_21
REMARK    8  A    between atoms: C_21  and  C_22
REMARK    9  A    between atoms: C_22  and  S_23
REMARK   10  A    between atoms: S_23  and  C_26
REMARK   11  A    between atoms: C_29  and  C_32
REMARK                            x       y       z     vdW  Elec       q    Type
REMARK                         _______ _______ _______ _____ _____    ______ ____
ROOT
ATOM      1  C   UNL     1       0.793  -0.234 -12.826  0.00  0.00    +0.403 C 
ATOM      2  O   UNL     1       0.262  -0.138 -13.914  0.00  0.00    -0.226 OA
ATOM      3  N   UNL     1       0.687   0.770 -11.933  0.00  0.00    -0.262 N 
ATOM      4  C   UNL     1      -0.067   1.994 -12.248  0.00  0.00    +0.116 C 
ATOM      5  C   UNL     1      -1.273   2.107 -11.314  0.00  0.00    +0.056 C 
ATOM      6  C   UNL     1      -0.821   1.861  -9.880  0.00  0.00    -0.020 A 
ATOM      7  C   UNL     1       0.337   1.222  -9.608  0.00  0.00    +0.013 A 
ATOM      8  S   UNL     1       0.427   1.172  -7.842  0.00  0.00    -0.076 S 
ATOM      9  C   UNL     1      -1.053   1.989  -7.464  0.00  0.00    +0.084 A 
ATOM     10  C   UNL     1      -1.584   2.276  -8.713  0.00  0.00    +0.068 A 
ATOM     11  C   UNL     1       1.321   0.683 -10.603  0.00  0.00    +0.153 C 
ENDROOT
BRANCH  10  12
ATOM     12  C   UNL     1      -2.865   2.975  -8.852  0.00  0.00    +0.244 C 
ATOM     13  O   UNL     1      -2.891   4.191  -8.913  0.00  0.00    -0.270 OA
ATOM     14  N   UNL     1      -4.013   2.272  -8.913  0.00  0.00    -0.325 N 
ATOM     15  H   UNL     1      -3.992   1.304  -8.865  0.00  0.00    +0.145 HD
ATOM     16  H   UNL     1      -4.861   2.735  -9.005  0.00  0.00    +0.145 HD
ENDBRANCH  10  12
BRANCH   9  17
ATOM     17  N   UNL     1      -1.582   2.281  -6.215  0.00  0.00    -0.279 N 
ATOM     18  C   UNL     1      -0.919   1.915  -5.101  0.00  0.00    +0.218 C 
ATOM     19  O   UNL     1       0.140   1.330  -5.189  0.00  0.00    -0.275 OA
ATOM     20  H   UNL     1      -2.429   2.748  -6.145  0.00  0.00    +0.155 HD
BRANCH  18  21
ATOM     21  C   UNL     1      -1.493   2.232  -3.744  0.00  0.00    +0.098 C 
BRANCH  21  22
ATOM     22  C   UNL     1      -0.551   1.712  -2.657  0.00  0.00    +0.032 C 
BRANCH  22  23
ATOM     23  C   UNL     1      -1.135   2.034  -1.279  0.00  0.00    +0.172 C 
BRANCH  23  24
ATOM     24  S   UNL     1      -0.017   1.417   0.010  0.00  0.00    -0.003 S 
ATOM     25  O   UNL     1       0.002  -0.004   0.002  0.00  0.00    -0.169 OA
ATOM     26  O   UNL     1       1.195   2.158   0.002  0.00  0.00    -0.169 OA
BRANCH  24  27
ATOM     27  C   UNL     1      -0.798   1.847   1.530  0.00  0.00    +0.088 A 
ATOM     28  C   UNL     1      -0.521   3.062   2.129  0.00  0.00    +0.027 A 
ATOM     29  C   UNL     1      -1.137   3.402   3.319  0.00  0.00    +0.005 A 
ATOM     30  C   UNL     1      -2.022   2.523   3.915  0.00  0.00    -0.050 A 
ATOM     31  C   UNL     1      -2.295   1.306   3.318  0.00  0.00    +0.005 A 
ATOM     32  C   UNL     1      -1.683   0.968   2.126  0.00  0.00    +0.027 A 
ATOM     33  C   UNL     1      -2.690   2.891   5.215  0.00  0.00    +0.044 C 
ENDBRANCH  24  27
ENDBRANCH  23  24
ENDBRANCH  22  23
ENDBRANCH  21  22
ENDBRANCH  18  21
ENDBRANCH   9  17
BRANCH   1  34
ATOM     34  O   UNL     1       1.489  -1.343 -12.511  0.00  0.00    -0.451 OA
BRANCH  34  36
ATOM     35  C   UNL     1       2.386  -3.556 -12.986  0.00  0.00    +0.048 C 
ATOM     36  C   UNL     1       1.562  -2.384 -13.521  0.00  0.00    +0.230 C 
ENDBRANCH  34  36
ENDBRANCH   1  34
TORSDOF 9
