REMARK  Name = ZINC33664849
REMARK  14 active torsions:
REMARK  status: ('A' for Active; 'I' for Inactive)
REMARK    1  A    between atoms: C_1  and  C_2
REMARK    2  A    between atoms: C_5  and  C_38
REMARK    3  A    between atoms: C_6  and  C_8
REMARK    4  A    between atoms: C_8  and  C_9
REMARK    5  A    between atoms: C_10  and  C_23
REMARK    6  A    between atoms: C_20  and  C_22
REMARK    7  A    between atoms: C_26  and  O_31
REMARK    8  A    between atoms: C_27  and  O_29
REMARK    9  A    between atoms: O_29  and  C_30
REMARK   10  A    between atoms: O_31  and  C_32
REMARK   11  A    between atoms: C_32  and  C_33
REMARK   12  A    between atoms: C_33  and  C_34
REMARK   13  A    between atoms: C_34  and  C_35
REMARK   14  A    between atoms: C_34  and  C_36
REMARK                            x       y       z     vdW  Elec       q    Type
REMARK                         _______ _______ _______ _____ _____    ______ ____
ROOT
ATOM      1  C   UNL     1      -0.080   0.007  -0.172  0.00  0.00    +0.077 C 
ATOM      2  C   UNL     1      -1.306  -0.874  -0.087  0.00  0.00    +0.152 C 
ATOM      3  N   UNL     1      -0.853  -2.246  -0.333  0.00  0.00    -0.230 N 
ATOM      4  C   UNL     1       0.474  -2.238  -0.544  0.00  0.00    +0.293 C 
ATOM      5  O   UNL     1       1.147  -3.222  -0.776  0.00  0.00    -0.266 OA
ATOM      6  C   UNL     1       0.997  -0.849  -0.457  0.00  0.00    +0.250 C 
ATOM      7  O   UNL     1       2.157  -0.512  -0.606  0.00  0.00    -0.282 OA
ATOM      8  C   UNL     1      -1.665  -3.373  -0.346  0.00  0.00    +0.191 A 
ATOM      9  N   UNL     1      -2.971  -3.485  -0.147  0.00  0.00    -0.125 NA
ATOM     10  N   UNL     1      -3.559  -4.600  -0.200  0.00  0.00    -0.145 NA
ATOM     11  C   UNL     1      -2.913  -5.723  -0.446  0.00  0.00    +0.101 A 
ATOM     12  S   UNL     1      -1.248  -5.090  -0.630  0.00  0.00    -0.035 S 
ATOM     13  C   UNL     1      -3.428  -7.136  -0.542  0.00  0.00    +0.075 C 
ENDROOT
BRANCH   2  14
ATOM     14  C   UNL     1      -1.921  -0.771   1.285  0.00  0.00    -0.018 A 
ATOM     15  C   UNL     1      -1.383  -1.488   2.337  0.00  0.00    +0.009 A 
ATOM     16  C   UNL     1      -1.945  -1.397   3.597  0.00  0.00    +0.050 A 
ATOM     17  C   UNL     1      -3.048  -0.587   3.808  0.00  0.00    +0.162 A 
ATOM     18  C   UNL     1      -3.589   0.135   2.748  0.00  0.00    +0.162 A 
ATOM     19  C   UNL     1      -3.019   0.044   1.489  0.00  0.00    +0.055 A 
BRANCH  18  20
ATOM     20  O   UNL     1      -4.673   0.933   2.949  0.00  0.00    -0.491 OA
ATOM     21  C   UNL     1      -5.174   1.644   1.816  0.00  0.00    +0.277 C 
ENDBRANCH  18  20
BRANCH  17  22
ATOM     22  O   UNL     1      -3.602  -0.496   5.047  0.00  0.00    -0.488 OA
BRANCH  22  23
ATOM     23  C   UNL     1      -2.993  -1.265   6.086  0.00  0.00    +0.229 C 
BRANCH  23  24
ATOM     24  C   UNL     1      -3.747  -1.036   7.398  0.00  0.00    +0.044 C 
BRANCH  24  25
ATOM     25  C   UNL     1      -3.096  -1.859   8.511  0.00  0.00    -0.014 C 
ATOM     26  C   UNL     1      -3.771  -1.536   9.846  0.00  0.00    +0.007 C 
ATOM     27  C   UNL     1      -3.259  -3.349   8.205  0.00  0.00    +0.007 C 
ENDBRANCH  24  25
ENDBRANCH  23  24
ENDBRANCH  22  23
ENDBRANCH  17  22
ENDBRANCH   2  14
BRANCH   1  28
ATOM     28  C   UNL     1      -0.030   1.375  -0.007  0.00  0.00    +0.195 C 
ATOM     29  O   UNL     1      -1.174   2.082   0.123  0.00  0.00    -0.287 OA
BRANCH  28  35
ATOM     30  C   UNL     1       3.206   4.560  -2.070  0.00  0.00    +0.044 C 
ATOM     31  C   UNL     1       2.833   3.601  -0.970  0.00  0.00    -0.050 A 
ATOM     32  C   UNL     1       3.715   3.369   0.072  0.00  0.00    +0.003 A 
ATOM     33  C   UNL     1       3.382   2.490   1.087  0.00  0.00    +0.004 A 
ATOM     34  C   UNL     1       2.164   1.842   1.072  0.00  0.00    -0.040 A 
ATOM     35  C   UNL     1       1.270   2.067   0.020  0.00  0.00    +0.025 A 
ATOM     36  C   UNL     1       1.615   2.957  -1.002  0.00  0.00    +0.015 A 
ATOM     37  C   UNL     1       1.800   0.890   2.182  0.00  0.00    +0.044 C 
ENDBRANCH  28  35
ENDBRANCH   1  28
TORSDOF 8
