REMARK  Name = ZINC05305173
REMARK  6 active torsions:
REMARK  status: ('A' for Active; 'I' for Inactive)
REMARK    1  A    between atoms: C_1  and  C_2
REMARK    2  A    between atoms: C_2  and  C_21
REMARK    3  A    between atoms: C_7  and  C_20
REMARK    4  A    between atoms: N_11  and  N_12
REMARK    5  A    between atoms: N_12  and  C_13
REMARK    6  A    between atoms: N_12  and  C_14
REMARK                            x       y       z     vdW  Elec       q    Type
REMARK                         _______ _______ _______ _____ _____    ______ ____
ROOT
ATOM      1  C   UNL     1      -5.681   0.260  -3.023  0.00  0.00    +0.012 C 
ATOM      2  C   UNL     1      -6.478   0.126  -1.723  0.00  0.00    -0.014 C 
ATOM      3  C   UNL     1      -6.060   1.196  -0.647  0.00  0.00    +0.049 C 
ATOM      4  C   UNL     1      -6.854   0.664   0.617  0.00  0.00    +0.011 C 
ATOM      5  C   UNL     1      -6.816  -0.875   0.457  0.00  0.00    +0.016 C 
ATOM      6  C   UNL     1      -6.010  -1.100  -0.860  0.00  0.00    +0.038 C 
ATOM      7  C   UNL     1      -4.583  -0.656  -0.510  0.00  0.00    +0.185 C 
ATOM      8  O   UNL     1      -3.615  -1.375  -0.369  0.00  0.00    -0.290 OA
ATOM      9  C   UNL     1      -4.613   0.757  -0.383  0.00  0.00    +0.106 C 
ATOM     10  N   UNL     1      -3.603   1.536  -0.091  0.00  0.00    -0.181 NA
ATOM     11  C   UNL     1      -6.146  -2.480  -1.506  0.00  0.00    +0.020 C 
ATOM     12  C   UNL     1      -7.987   0.117  -1.975  0.00  0.00    +0.012 C 
ENDROOT
BRANCH  10  13
ATOM     13  N   UNL     1      -2.459   1.022   0.209  0.00  0.00    -0.227 N 
ATOM     14  C   UNL     1      -2.307   0.240   1.439  0.00  0.00    +0.158 C 
BRANCH  13  15
ATOM     15  C   UNL     1      -1.366   1.211  -0.638  0.00  0.00    +0.051 A 
ATOM     16  C   UNL     1      -0.132   0.658  -0.316  0.00  0.00    +0.025 A 
ATOM     17  C   UNL     1       0.946   0.842  -1.159  0.00  0.00    +0.002 A 
ATOM     18  C   UNL     1       0.800   1.579  -2.320  0.00  0.00    +0.000 A 
ATOM     19  C   UNL     1      -0.425   2.135  -2.641  0.00  0.00    +0.002 A 
ATOM     20  C   UNL     1      -1.507   1.955  -1.803  0.00  0.00    +0.025 A 
ENDBRANCH  13  15
ENDBRANCH  10  13
TORSDOF 2
