REMARK  Name = ZINC64410555
REMARK  4 active torsions:
REMARK  status: ('A' for Active; 'I' for Inactive)
REMARK    1  A    between atoms: C_7  and  C_10
REMARK    2  A    between atoms: C_10  and  C_11
REMARK    3  A    between atoms: C_16  and  C_19
REMARK    4  A    between atoms: C_23  and  C_26
REMARK                            x       y       z     vdW  Elec       q    Type
REMARK                         _______ _______ _______ _____ _____    ______ ____
ROOT
ATOM      1  C   UNL     1       0.460  -3.646  -1.440  0.00  0.00    +0.220 C 
ATOM      2  O   UNL     1       1.006  -3.075  -2.360  0.00  0.00    -0.275 OA
ATOM      3  N   UNL     1      -0.353  -4.693  -1.684  0.00  0.00    -0.301 N 
ATOM      4  C   UNL     1      -1.026  -5.391  -0.581  0.00  0.00    +0.108 C 
ATOM      5  C   UNL     1      -2.530  -5.433  -0.868  0.00  0.00    +0.026 C 
ATOM      6  C   UNL     1      -2.765  -6.059  -2.245  0.00  0.00    +0.037 C 
ATOM      7  C   UNL     1      -2.092  -5.202  -3.319  0.00  0.00    +0.026 C 
ATOM      8  C   UNL     1      -0.588  -5.154  -3.059  0.00  0.00    +0.108 C 
ENDROOT
BRANCH   6   9
ATOM      9  C   UNL     1      -4.268  -6.134  -2.521  0.00  0.00    +0.205 C 
ATOM     10  N   UNL     1      -4.507  -6.730  -3.855  0.00  0.00    -0.226 NA
ATOM     11  N   UNL     1      -5.649  -5.961  -4.380  0.00  0.00    -0.223 NA
ATOM     12  C   UNL     1      -5.380  -4.596  -3.856  0.00  0.00    +0.233 C 
ATOM     13  O   UNL     1      -4.829  -4.813  -2.540  0.00  0.00    -0.337 OA
ATOM     14  H   UNL     1      -3.698  -6.625  -4.448  0.00  0.00    +0.143 HD
ATOM     15  H   UNL     1      -5.656  -5.966  -5.389  0.00  0.00    +0.144 HD
BRANCH  12  16
ATOM     16  C   UNL     1      -6.660  -3.806  -3.766  0.00  0.00    -0.003 A 
ATOM     17  C   UNL     1      -6.852  -2.920  -2.723  0.00  0.00    +0.010 A 
ATOM     18  C   UNL     1      -8.026  -2.194  -2.640  0.00  0.00    +0.039 A 
ATOM     19  C   UNL     1      -9.008  -2.355  -3.602  0.00  0.00    +0.123 A 
ATOM     20  C   UNL     1      -8.815  -3.243  -4.646  0.00  0.00    +0.039 A 
ATOM     21  C   UNL     1      -7.638  -3.964  -4.730  0.00  0.00    +0.010 A 
ATOM     22  F   UNL     1     -10.156  -1.647  -3.521  0.00  0.00    -0.205 F 
ENDBRANCH  12  16
ENDBRANCH   6   9
BRANCH   1  23
ATOM     23  C   UNL     1       0.691  -3.186  -0.024  0.00  0.00    +0.129 C 
BRANCH  23  30
ATOM     24  C   UNL     1      -0.016   1.348   0.009  0.00  0.00    +0.001 A 
ATOM     25  C   UNL     1       1.166   2.101   0.002  0.00  0.00    +0.002 A 
ATOM     26  C   UNL     1       2.391   1.535  -0.013  0.00  0.00    +0.026 A 
ATOM     27  C   UNL     1       2.529   0.120  -0.022  0.00  0.00    +0.043 A 
ATOM     28  N   UNL     1       3.587  -0.654  -0.037  0.00  0.00    -0.380 N 
ATOM     29  C   UNL     1       3.143  -2.053  -0.041  0.00  0.00    +0.145 C 
ATOM     30  C   UNL     1       1.631  -2.008  -0.025  0.00  0.00    -0.033 C 
ATOM     31  C   UNL     1       1.295  -0.698  -0.014  0.00  0.00    -0.001 A 
ATOM     32  C   UNL     1       0.002  -0.004   0.002  0.00  0.00    +0.010 A 
ATOM     33  H   UNL     1       4.509  -0.353  -0.045  0.00  0.00    +0.160 HD
ENDBRANCH  23  30
ENDBRANCH   1  23
TORSDOF 4
