REMARK  Name = ZINC14552172
REMARK  8 active torsions:
REMARK  status: ('A' for Active; 'I' for Inactive)
REMARK    1  A    between atoms: C_1  and  S_2
REMARK    2  A    between atoms: S_2  and  C_3
REMARK    3  A    between atoms: C_6  and  C_9
REMARK    4  A    between atoms: C_20  and  O_25
REMARK    5  A    between atoms: O_25  and  C_26
REMARK    6  A    between atoms: C_26  and  C_27
REMARK    7  A    between atoms: C_27  and  C_28
REMARK    8  A    between atoms: C_28  and  C_29
REMARK                            x       y       z     vdW  Elec       q    Type
REMARK                         _______ _______ _______ _____ _____    ______ ____
ROOT
ATOM      1  C   UNL     1       3.710  -0.706  -0.036  0.00  0.00    +0.105 C 
ATOM      2  C   UNL     1       4.262  -0.765  -1.449  0.00  0.00    +0.029 C 
ATOM      3  C   UNL     1       3.338  -1.324  -2.539  0.00  0.00    +0.033 C 
ATOM      4  C   UNL     1       3.836  -0.578  -3.778  0.00  0.00    -0.030 C 
ATOM      5  C   UNL     1       4.395   0.572  -3.421  0.00  0.00    -0.023 C 
ATOM      6  C   UNL     1       4.293   0.712  -1.945  0.00  0.00    +0.049 C 
ATOM      7  C   UNL     1       5.315   1.433  -1.157  0.00  0.00    -0.016 A 
ATOM      8  C   UNL     1       6.086   2.442  -1.693  0.00  0.00    +0.051 A 
ATOM      9  C   UNL     1       7.008   3.112  -0.904  0.00  0.00    +0.121 A 
ATOM     10  C   UNL     1       7.157   2.765   0.431  0.00  0.00    +0.047 A 
ATOM     11  C   UNL     1       6.394   1.750   0.971  0.00  0.00    +0.027 A 
ATOM     12  C   UNL     1       5.471   1.070   0.185  0.00  0.00    +0.032 A 
ATOM     13  N   UNL     1       4.720   0.031   0.755  0.00  0.00    -0.336 N 
ATOM     14  H   UNL     1       4.864  -0.207   1.684  0.00  0.00    +0.147 HD
ENDROOT
BRANCH   1  18
ATOM     15  C   UNL     1      -0.017   1.385   0.010  0.00  0.00    +0.008 A 
ATOM     16  C   UNL     1       1.173   2.079   0.193  0.00  0.00    +0.015 A 
ATOM     17  C   UNL     1       2.376   1.400   0.178  0.00  0.00    +0.006 A 
ATOM     18  C   UNL     1       2.396   0.031  -0.020  0.00  0.00    -0.027 A 
ATOM     19  C   UNL     1       1.214  -0.662  -0.203  0.00  0.00    +0.006 A 
ATOM     20  C   UNL     1       0.008   0.010  -0.189  0.00  0.00    +0.015 A 
BRANCH  15  22
ATOM     21  C   UNL     1      -1.083   3.977   0.308  0.00  0.00    +0.090 C 
ATOM     22  S   UNL     1      -1.553   2.248   0.022  0.00  0.00    -0.129 S 
ENDBRANCH  15  22
ENDBRANCH   1  18
BRANCH   9  23
ATOM     23  O   UNL     1       7.765   4.108  -1.437  0.00  0.00    -0.492 OA
BRANCH  23  24
ATOM     24  C   UNL     1       8.695   4.755  -0.565  0.00  0.00    +0.229 C 
BRANCH  24  25
ATOM     25  C   UNL     1       9.450   5.838  -1.337  0.00  0.00    +0.046 C 
BRANCH  25  26
ATOM     26  C   UNL     1      10.445   6.531  -0.403  0.00  0.00    +0.038 C 
BRANCH  26  27
ATOM     27  C   UNL     1      11.188   7.598  -1.164  0.00  0.00    -0.047 A 
ATOM     28  C   UNL     1      12.371   7.290  -1.809  0.00  0.00    +0.003 A 
ATOM     29  C   UNL     1      13.051   8.268  -2.510  0.00  0.00    +0.000 A 
ATOM     30  C   UNL     1      12.553   9.557  -2.558  0.00  0.00    +0.000 A 
ATOM     31  C   UNL     1      11.373   9.866  -1.909  0.00  0.00    +0.000 A 
ATOM     32  C   UNL     1      10.691   8.887  -1.211  0.00  0.00    +0.003 A 
ENDBRANCH  26  27
ENDBRANCH  25  26
ENDBRANCH  24  25
ENDBRANCH  23  24
ENDBRANCH   9  23
TORSDOF 7
