REMARK  Name = ZINC35539136
REMARK  5 active torsions:
REMARK  status: ('A' for Active; 'I' for Inactive)
REMARK    1  A    between atoms: C_1  and  C_2
REMARK    2  A    between atoms: C_2  and  N_3
REMARK    3  A    between atoms: N_3  and  C_4
REMARK    4  A    between atoms: C_4  and  C_6
REMARK    5  A    between atoms: C_4  and  C_13
REMARK                            x       y       z     vdW  Elec       q    Type
REMARK                         _______ _______ _______ _____ _____    ______ ____
ROOT
ATOM      1  C   UNL     1       0.827  -1.954   1.259  0.00  0.00    +0.004 C 
ENDROOT
BRANCH   1   2
ATOM      2  C   UNL     1       1.750  -2.445   0.143  0.00  0.00    +0.201 C 
ATOM      3  C   UNL     1       1.331  -1.812  -1.191  0.00  0.00    +0.272 C 
ATOM      4  O   UNL     1       2.223  -2.281  -2.209  0.00  0.00    -0.485 OA
ATOM      5  C   UNL     1       3.552  -2.257  -1.916  0.00  0.00    +0.162 A 
ATOM      6  C   UNL     1       4.477  -2.344  -2.946  0.00  0.00    +0.049 A 
ATOM      7  C   UNL     1       5.830  -2.325  -2.665  0.00  0.00    +0.004 A 
ATOM      8  C   UNL     1       6.265  -2.219  -1.357  0.00  0.00    +0.004 A 
ATOM      9  C   UNL     1       5.348  -2.130  -0.326  0.00  0.00    +0.049 A 
ATOM     10  C   UNL     1       3.989  -2.148  -0.602  0.00  0.00    +0.162 A 
ATOM     11  O   UNL     1       3.098  -2.052   0.423  0.00  0.00    -0.483 OA
ENDBRANCH   1   2
BRANCH   1  12
ATOM     12  C   UNL     1       1.253  -2.565   2.569  0.00  0.00    -0.058 A 
ATOM     13  C   UNL     1       2.318  -2.028   3.268  0.00  0.00    +0.003 A 
ATOM     14  C   UNL     1       2.709  -2.588   4.470  0.00  0.00    +0.015 A 
ATOM     15  C   UNL     1       2.034  -3.686   4.973  0.00  0.00    +0.018 A 
ATOM     16  C   UNL     1       0.968  -4.223   4.273  0.00  0.00    +0.015 A 
ATOM     17  C   UNL     1       0.575  -3.659   3.074  0.00  0.00    +0.003 A 
ATOM     18 BR   UNL     1       2.569  -4.454   6.617  0.00  0.00    -0.050 Br
ENDBRANCH   1  12
BRANCH   1  19
ATOM     19  N   UNL     1       0.907  -0.490   1.353  0.00  0.00    +0.386 N 
ATOM     20  H   UNL     1       0.709  -0.084   0.451  0.00  0.00    -0.085 HD
ATOM     21  H   UNL     1       1.835  -0.222   1.645  0.00  0.00    -0.085 HD
BRANCH  19  23
ATOM     22  C   UNL     1      -0.078   1.523   2.340  0.00  0.00    -0.017 C 
ATOM     23  C   UNL     1      -0.073  -0.007   2.335  0.00  0.00    -0.085 C 
ENDBRANCH  19  23
ENDBRANCH   1  19
TORSDOF 4
