REMARK  Name = ZINC03672172
REMARK  9 active torsions:
REMARK  status: ('A' for Active; 'I' for Inactive)
REMARK    1  A    between atoms: C_1  and  C_2
REMARK    2  A    between atoms: C_3  and  C_16
REMARK    3  A    between atoms: C_5  and  N_7
REMARK    4  A    between atoms: C_8  and  C_9
REMARK    5  A    between atoms: C_14  and  O_15
REMARK    6  A    between atoms: C_18  and  O_24
REMARK    7  A    between atoms: C_21  and  O_22
REMARK    8  A    between atoms: O_22  and  C_23
REMARK    9  A    between atoms: O_24  and  C_25
REMARK                            x       y       z     vdW  Elec       q    Type
REMARK                         _______ _______ _______ _____ _____    ______ ____
ROOT
ATOM      1  C   UNL     1      -0.025   1.502  -0.059  0.00  0.00    +0.054 C 
ATOM      2  C   UNL     1      -0.001  -0.004  -0.029  0.00  0.00    +0.016 A 
ATOM      3  C   UNL     1      -1.037  -0.893   0.094  0.00  0.00    +0.087 A 
ATOM      4  N   UNL     1      -0.784  -2.189   0.095  0.00  0.00    -0.221 NA
ATOM      5  C   UNL     1       0.456  -2.646  -0.020  0.00  0.00    +0.193 A 
ATOM      6  S   UNL     1       1.386  -1.126  -0.153  0.00  0.00    -0.053 S 
ENDROOT
BRANCH   3   7
ATOM      7  C   UNL     1      -2.431  -0.404   0.224  0.00  0.00    +0.046 A 
ATOM      8  C   UNL     1      -2.920   0.558  -0.657  0.00  0.00    +0.059 A 
ATOM      9  C   UNL     1      -4.222   1.011  -0.531  0.00  0.00    +0.121 A 
ATOM     10  C   UNL     1      -5.040   0.509   0.472  0.00  0.00    +0.049 A 
ATOM     11  C   UNL     1      -4.560  -0.445   1.349  0.00  0.00    +0.050 A 
ATOM     12  C   UNL     1      -3.261  -0.910   1.228  0.00  0.00    +0.129 A 
BRANCH  12  13
ATOM     13  O   UNL     1      -2.793  -1.854   2.088  0.00  0.00    -0.494 OA
ATOM     14  C   UNL     1      -3.697  -2.325   3.089  0.00  0.00    +0.277 C 
ENDBRANCH  12  13
BRANCH   9  15
ATOM     15  O   UNL     1      -4.700   1.950  -1.390  0.00  0.00    -0.495 OA
ATOM     16  C   UNL     1      -6.052   2.373  -1.202  0.00  0.00    +0.277 C 
ENDBRANCH   9  15
ENDBRANCH   3   7
BRANCH   5  17
ATOM     17  N   UNL     1       0.901  -3.931  -0.037  0.00  0.00    -0.229 NA
ATOM     18  C   UNL     1       2.178  -4.178  -0.160  0.00  0.00    +0.125 C 
BRANCH  18  19
ATOM     19  C   UNL     1       2.659  -5.566  -0.179  0.00  0.00    +0.035 A 
ATOM     20  C   UNL     1       4.026  -5.837  -0.305  0.00  0.00    +0.013 A 
ATOM     21  C   UNL     1       4.469  -7.141  -0.321  0.00  0.00    +0.001 A 
ATOM     22  C   UNL     1       3.567  -8.188  -0.212  0.00  0.00    +0.004 A 
ATOM     23  C   UNL     1       2.215  -7.936  -0.087  0.00  0.00    +0.046 A 
ATOM     24  C   UNL     1       1.750  -6.630  -0.064  0.00  0.00    +0.125 A 
BRANCH  24  25
ATOM     25  O   UNL     1       0.422  -6.382   0.064  0.00  0.00    -0.506 OA
ATOM     26  H   UNL     1      -0.052  -6.329  -0.777  0.00  0.00    +0.292 HD
ENDBRANCH  24  25
ENDBRANCH  18  19
ENDBRANCH   5  17
TORSDOF 6
