REMARK  Name = ZINC35851637
REMARK  3 active torsions:
REMARK  status: ('A' for Active; 'I' for Inactive)
REMARK    1  A    between atoms: C_1  and  C_2
REMARK    2  A    between atoms: C_2  and  C_3
REMARK    3  A    between atoms: N_22  and  C_25
REMARK                            x       y       z     vdW  Elec       q    Type
REMARK                         _______ _______ _______ _____ _____    ______ ____
ROOT
ATOM      1  C   UNL     1       0.726  -0.592   1.178  0.00  0.00    -0.047 A 
ATOM      2  C   UNL     1       2.078  -0.871   1.094  0.00  0.00    +0.005 A 
ATOM      3  C   UNL     1       2.754  -1.372   2.187  0.00  0.00    +0.024 A 
ATOM      4  C   UNL     1       2.080  -1.602   3.384  0.00  0.00    +0.036 A 
ATOM      5  C   UNL     1       0.720  -1.317   3.456  0.00  0.00    -0.027 A 
ATOM      6  C   UNL     1       0.050  -0.811   2.365  0.00  0.00    +0.008 A 
ATOM      7  C   UNL     1       0.299  -1.669   4.855  0.00  0.00    +0.053 C 
ATOM      8  C   UNL     1      -0.794  -2.744   4.859  0.00  0.00    +0.089 C 
ATOM      9  C   UNL     1      -2.118  -1.959   5.066  0.00  0.00    +0.074 C 
ATOM     10  C   UNL     1      -1.702  -0.479   5.151  0.00  0.00    -0.054 C 
ATOM     11  N   UNL     1      -0.260  -0.505   5.563  0.00  0.00    +0.395 N 
ATOM     12  C   UNL     1      -0.276  -0.782   7.019  0.00  0.00    -0.076 C 
ATOM     13  C   UNL     1      -1.492  -0.006   7.564  0.00  0.00    -0.020 C 
ATOM     14  C   UNL     1      -2.446   0.191   6.321  0.00  0.00    -0.016 C 
ATOM     15  C   UNL     1      -2.601  -2.438   6.416  0.00  0.00    +0.228 C 
ATOM     16  O   UNL     1      -3.615  -2.069   6.969  0.00  0.00    -0.275 OA
ATOM     17  N   UNL     1      -1.734  -3.331   6.907  0.00  0.00    -0.209 N 
ATOM     18  C   UNL     1      -0.674  -3.589   6.107  0.00  0.00    +0.229 C 
ATOM     19  O   UNL     1       0.227  -4.365   6.344  0.00  0.00    -0.275 OA
ATOM     20  C   UNL     1       1.553  -2.166   5.525  0.00  0.00    +0.212 C 
ATOM     21  O   UNL     1       1.657  -2.554   6.670  0.00  0.00    -0.277 OA
ATOM     22  N   UNL     1       2.536  -2.095   4.608  0.00  0.00    -0.286 N 
ATOM     23  H   UNL     1       3.454  -2.357   4.778  0.00  0.00    +0.155 HD
ATOM     24  H   UNL     1       0.220   0.352   5.332  0.00  0.00    -0.079 HD
ENDROOT
BRANCH  17  25
ATOM     25  C   UNL     1      -1.911  -3.957   8.149  0.00  0.00    +0.064 A 
ATOM     26  C   UNL     1      -1.360  -3.397   9.294  0.00  0.00    +0.045 A 
ATOM     27  C   UNL     1      -1.537  -4.016  10.518  0.00  0.00    +0.043 A 
ATOM     28  C   UNL     1      -2.262  -5.192  10.602  0.00  0.00    +0.021 A 
ATOM     29  C   UNL     1      -2.812  -5.751   9.464  0.00  0.00    +0.023 A 
ATOM     30  C   UNL     1      -2.644  -5.134   8.238  0.00  0.00    +0.063 A 
ATOM     31 CL   UNL     1      -3.340  -5.833   6.810  0.00  0.00    -0.082 Cl
ATOM     32 CL   UNL     1      -0.848  -3.317  11.950  0.00  0.00    -0.083 Cl
ENDBRANCH  17  25
BRANCH   1  34
ATOM     33  C   UNL     1       0.054   1.485   0.000  0.00  0.00    +0.009 C 
ATOM     34  C   UNL     1      -0.007  -0.044  -0.019  0.00  0.00    +0.032 C 
ENDBRANCH   1  34
TORSDOF 2
