REMARK  Name = ZINC12628638
REMARK  5 active torsions:
REMARK  status: ('A' for Active; 'I' for Inactive)
REMARK    1  A    between atoms: C_1  and  C_2
REMARK    2  A    between atoms: C_2  and  C_3
REMARK    3  A    between atoms: C_6  and  C_9
REMARK    4  A    between atoms: C_10  and  C_11
REMARK    5  A    between atoms: C_17  and  C_19
REMARK                            x       y       z     vdW  Elec       q    Type
REMARK                         _______ _______ _______ _____ _____    ______ ____
ROOT
ATOM      1  C   UNL     1       1.936   3.469  -2.485  0.00  0.00    +0.240 C 
ATOM      2  O   UNL     1       0.781   3.125  -2.653  0.00  0.00    -0.271 OA
ATOM      3  N   UNL     1       2.442   3.545  -1.238  0.00  0.00    -0.288 N 
ATOM      4  C   UNL     1       3.818   3.947  -0.892  0.00  0.00    +0.109 C 
ATOM      5  C   UNL     1       3.725   4.466   0.564  0.00  0.00    +0.021 C 
ATOM      6  C   UNL     1       2.680   3.494   1.179  0.00  0.00    +0.032 C 
ATOM      7  C   UNL     1       1.714   3.241   0.002  0.00  0.00    +0.142 C 
ENDROOT
BRANCH   7   8
ATOM      8  C   UNL     1       1.276   1.799  -0.001  0.00  0.00    +0.129 A 
ATOM      9  N   UNL     1      -0.017   1.376   0.010  0.00  0.00    -0.340 N 
ATOM     10  H   UNL     1      -0.830   1.958   0.021  0.00  0.00    +0.167 HD
ATOM     11  C   UNL     1       0.002  -0.004   0.002  0.00  0.00    +0.066 A 
ATOM     12  C   UNL     1      -0.981  -0.984   0.005  0.00  0.00    +0.028 A 
ATOM     13  C   UNL     1      -0.619  -2.314  -0.006  0.00  0.00    +0.002 A 
ATOM     14  C   UNL     1       0.720  -2.679  -0.021  0.00  0.00    +0.002 A 
ATOM     15  C   UNL     1       1.701  -1.728  -0.025  0.00  0.00    +0.030 A 
ATOM     16  C   UNL     1       1.358  -0.373  -0.013  0.00  0.00    +0.089 A 
ATOM     17  N   UNL     1       2.081   0.776  -0.014  0.00  0.00    -0.231 NA
ENDBRANCH   7   8
BRANCH   1  19
ATOM     18  C   UNL     1       2.269   3.726  -4.885  0.00  0.00    +0.013 C 
ATOM     19  C   UNL     1       2.776   3.802  -3.637  0.00  0.00    +0.068 C 
BRANCH  18  23
ATOM     20  C   UNL     1       4.702   4.691  -8.223  0.00  0.00    -0.048 A 
ATOM     21  C   UNL     1       3.389   4.299  -8.418  0.00  0.00    +0.004 A 
ATOM     22  C   UNL     1       2.592   3.984  -7.338  0.00  0.00    +0.008 A 
ATOM     23  C   UNL     1       3.114   4.061  -6.043  0.00  0.00    -0.025 A 
ATOM     24  C   UNL     1       4.439   4.463  -5.854  0.00  0.00    +0.008 A 
ATOM     25  C   UNL     1       5.225   4.771  -6.945  0.00  0.00    +0.004 A 
BRANCH  20  27
ATOM     26  C   UNL     1       5.433   6.527  -9.722  0.00  0.00    +0.009 C 
ATOM     27  C   UNL     1       5.566   5.035  -9.409  0.00  0.00    +0.032 C 
ENDBRANCH  20  27
ENDBRANCH  18  23
ENDBRANCH   1  19
TORSDOF 4
