REMARK  Name = ZINC15861061
REMARK  7 active torsions:
REMARK  status: ('A' for Active; 'I' for Inactive)
REMARK    1  A    between atoms: C_1  and  C_2
REMARK    2  A    between atoms: C_2  and  N_57
REMARK    3  A    between atoms: C_6  and  C_8
REMARK    4  A    between atoms: C_8  and  N_9
REMARK    5  A    between atoms: N_9  and  S_10
REMARK    6  A    between atoms: S_10  and  C_13
REMARK    7  A    between atoms: N_27  and  C_28
REMARK                            x       y       z     vdW  Elec       q    Type
REMARK                         _______ _______ _______ _____ _____    ______ ____
ROOT
ATOM      1  C   UNL     1       3.865   2.305  -0.133  0.00  0.00    +0.106 A 
ATOM      2  C   UNL     1       3.070   3.429   0.018  0.00  0.00    +0.030 A 
ATOM      3  C   UNL     1       1.694   3.320   0.028  0.00  0.00    +0.026 A 
ATOM      4  C   UNL     1       1.091   2.075  -0.116  0.00  0.00    +0.044 A 
ATOM      5  C   UNL     1       1.899   0.942  -0.268  0.00  0.00    +0.010 A 
ATOM      6  C   UNL     1       3.283   1.061  -0.276  0.00  0.00    +0.039 A 
ATOM      7  C   UNL     1       0.978  -0.215  -0.396  0.00  0.00    +0.045 C 
ATOM      8  C   UNL     1       1.305  -1.509  -0.560  0.00  0.00    -0.057 C 
ATOM      9  C   UNL     1       2.707  -2.074  -0.659  0.00  0.00    +0.031 C 
ATOM     10  C   UNL     1       2.561  -3.599  -0.848  0.00  0.00    +0.005 C 
ATOM     11  C   UNL     1       1.140  -3.760  -1.445  0.00  0.00    +0.005 C 
ATOM     12  C   UNL     1       0.338  -2.672  -0.688  0.00  0.00    +0.031 C 
ATOM     13  C   UNL     1      -0.379   0.367  -0.303  0.00  0.00    +0.251 C 
ATOM     14  O   UNL     1      -1.428  -0.246  -0.362  0.00  0.00    -0.270 OA
ATOM     15  N   UNL     1      -0.247   1.695  -0.142  0.00  0.00    -0.270 N 
ATOM     16  C   UNL     1      -1.371   2.627  -0.016  0.00  0.00    +0.138 C 
ENDROOT
BRANCH   1  17
ATOM     17  S   UNL     1       5.620   2.462  -0.142  0.00  0.00    +0.058 S 
ATOM     18  O   UNL     1       5.923   3.663   0.556  0.00  0.00    -0.153 OA
ATOM     19  O   UNL     1       6.143   1.201   0.250  0.00  0.00    -0.153 OA
BRANCH  17  20
ATOM     20  N   UNL     1       6.082   2.699  -1.714  0.00  0.00    -0.191 NA
ATOM     21  H   UNL     1       6.624   2.033  -2.166  0.00  0.00    +0.148 HD
BRANCH  20  22
ATOM     22  C   UNL     1       5.673   3.913  -2.424  0.00  0.00    +0.090 C 
BRANCH  22  26
ATOM     23  C   UNL     1       8.641   5.238  -4.096  0.00  0.00    -0.078 C 
ATOM     24  C   UNL     1       7.572   5.770  -5.074  0.00  0.00    -0.020 C 
ATOM     25  C   UNL     1       6.241   5.463  -4.338  0.00  0.00    -0.016 C 
ATOM     26  C   UNL     1       6.570   4.117  -3.646  0.00  0.00    -0.053 C 
ATOM     27  N   UNL     1       7.978   4.256  -3.223  0.00  0.00    +0.382 N 
ATOM     28  H   UNL     1       8.009   4.589  -2.252  0.00  0.00    -0.081 HD
BRANCH  27  30
ATOM     29  C   UNL     1      10.152   3.131  -2.975  0.00  0.00    -0.017 C 
ATOM     30  C   UNL     1       8.670   2.944  -3.308  0.00  0.00    -0.082 C 
ENDBRANCH  27  30
ENDBRANCH  22  26
ENDBRANCH  20  22
ENDBRANCH  17  20
ENDBRANCH   1  17
TORSDOF 5
