REMARK  Name = ZINC03328108
REMARK  5 active torsions:
REMARK  status: ('A' for Active; 'I' for Inactive)
REMARK    1  A    between atoms: C_4  and  C_7
REMARK    2  A    between atoms: C_7  and  C_8
REMARK    3  A    between atoms: C_7  and  N_14
REMARK    4  A    between atoms: C_15  and  C_17
REMARK    5  A    between atoms: C_18  and  C_19
REMARK                            x       y       z     vdW  Elec       q    Type
REMARK                         _______ _______ _______ _____ _____    ______ ____
ROOT
ATOM      1  N   UNL     1      -2.509   5.056   1.840  0.00  0.00    -0.301 N 
ATOM      2  C   UNL     1      -2.406   4.058   0.940  0.00  0.00    +0.238 C 
ATOM      3  O   UNL     1      -3.301   3.869   0.135  0.00  0.00    -0.271 OA
ATOM      4  H   UNL     1      -1.797   5.207   2.481  0.00  0.00    +0.150 HD
ENDROOT
BRANCH   2   5
ATOM      5  C   UNL     1      -1.263   3.234   0.930  0.00  0.00    +0.069 C 
ATOM      6  C   UNL     1      -1.159   2.226   0.020  0.00  0.00    +0.034 C 
BRANCH   6   7
ATOM      7  C   UNL     1      -0.017   1.403   0.010  0.00  0.00    +0.085 A 
ATOM      8  C   UNL     1       1.303   1.822  -0.001  0.00  0.00    +0.156 A 
ATOM      9  N   UNL     1       2.076   0.742  -0.014  0.00  0.00    -0.209 NA
ATOM     10  C   UNL     1       1.328  -0.334  -0.012  0.00  0.00    +0.179 A 
ATOM     11  N   UNL     1       0.002  -0.004   0.002  0.00  0.00    -0.292 N 
ATOM     12  C   UNL     1      -0.901  -1.040   0.005  0.00  0.00    +0.101 A 
ATOM     13  C   UNL     1      -0.486  -2.308  -0.004  0.00  0.00    +0.067 A 
ATOM     14  S   UNL     1       1.289  -2.112  -0.021  0.00  0.00    -0.058 S 
ATOM     15 CL   UNL     1       1.851   3.469   0.004  0.00  0.00    -0.060 Cl
ENDBRANCH   6   7
ENDBRANCH   2   5
BRANCH   1  16
ATOM     16  C   UNL     1      -3.697   5.913   1.851  0.00  0.00    +0.134 C 
BRANCH  16  20
ATOM     17  C   UNL     1      -4.223   7.570   5.753  0.00  0.00    +0.000 A 
ATOM     18  C   UNL     1      -5.321   7.141   5.030  0.00  0.00    +0.000 A 
ATOM     19  C   UNL     1      -5.151   6.605   3.767  0.00  0.00    +0.006 A 
ATOM     20  C   UNL     1      -3.883   6.498   3.227  0.00  0.00    -0.023 A 
ATOM     21  C   UNL     1      -2.785   6.921   3.952  0.00  0.00    +0.006 A 
ATOM     22  C   UNL     1      -2.955   7.463   5.212  0.00  0.00    +0.000 A 
ENDBRANCH  16  20
BRANCH  16  23
ATOM     23  C   UNL     1      -3.522   7.027   0.851  0.00  0.00    -0.023 A 
ATOM     24  C   UNL     1      -2.296   7.651   0.719  0.00  0.00    +0.006 A 
ATOM     25  C   UNL     1      -2.134   8.670  -0.201  0.00  0.00    +0.000 A 
ATOM     26  C   UNL     1      -3.201   9.072  -0.982  0.00  0.00    +0.000 A 
ATOM     27  C   UNL     1      -4.429   8.451  -0.847  0.00  0.00    +0.000 A 
ATOM     28  C   UNL     1      -4.590   7.429   0.070  0.00  0.00    +0.006 A 
ENDBRANCH  16  23
ENDBRANCH   1  16
TORSDOF 5
