REMARK  Name = ZINC03184077
REMARK  4 active torsions:
REMARK  status: ('A' for Active; 'I' for Inactive)
REMARK    1  A    between atoms: C_4  and  N_7
REMARK    2  A    between atoms: C_8  and  C_25
REMARK    3  A    between atoms: C_12  and  C_13
REMARK    4  A    between atoms: C_12  and  C_15
REMARK                            x       y       z     vdW  Elec       q    Type
REMARK                         _______ _______ _______ _____ _____    ______ ____
ROOT
ATOM      1  N   UNL     1      -3.567  -1.012   0.163  0.00  0.00    -0.261 N 
ATOM      2  C   UNL     1      -4.694  -0.327   0.526  0.00  0.00    +0.060 C 
ATOM      3  C   UNL     1      -4.717   1.022   0.421  0.00  0.00    +0.072 C 
ATOM      4  S   UNL     1      -3.085   1.375  -0.210  0.00  0.00    -0.078 S 
ATOM      5  C   UNL     1      -2.481  -0.304  -0.290  0.00  0.00    +0.098 C 
ATOM      6  C   UNL     1      -1.232  -0.774  -0.710  0.00  0.00    +0.124 C 
ENDROOT
BRANCH   6   7
ATOM      7  C   UNL     1      -0.180   0.178  -1.100  0.00  0.00    +0.177 A 
ATOM      8  N   UNL     1      -0.271   1.495  -1.105  0.00  0.00    -0.128 NA
ATOM      9  N   UNL     1       0.842   2.008  -1.499  0.00  0.00    -0.134 NA
ATOM     10  C   UNL     1       1.700   1.066  -1.761  0.00  0.00    +0.134 A 
ATOM     11  N   UNL     1       1.081  -0.129  -1.529  0.00  0.00    -0.310 N 
ATOM     12  C   UNL     1       1.658  -1.460  -1.715  0.00  0.00    +0.125 C 
ATOM     13  C   UNL     1       3.176  -1.384  -1.528  0.00  0.00    +0.022 C 
ATOM     14  C   UNL     1       3.846  -1.073  -2.865  0.00  0.00    +0.002 C 
ATOM     15  C   UNL     1       3.382   0.279  -3.397  0.00  0.00    +0.008 C 
ATOM     16  C   UNL     1       3.124   1.233  -2.227  0.00  0.00    +0.076 C 
ENDBRANCH   6   7
BRANCH   1  20
ATOM     17  C   UNL     1      -3.427  -5.167   0.439  0.00  0.00    +0.000 A 
ATOM     18  C   UNL     1      -3.082  -4.391   1.531  0.00  0.00    +0.002 A 
ATOM     19  C   UNL     1      -3.127  -3.013   1.442  0.00  0.00    +0.024 A 
ATOM     20  C   UNL     1      -3.520  -2.407   0.256  0.00  0.00    +0.039 A 
ATOM     21  C   UNL     1      -3.872  -3.189  -0.836  0.00  0.00    +0.024 A 
ATOM     22  C   UNL     1      -3.819  -4.566  -0.743  0.00  0.00    +0.002 A 
ENDBRANCH   1  20
BRANCH   2  23
ATOM     23  C   UNL     1      -5.876  -1.054   1.022  0.00  0.00    +0.034 A 
ATOM     24  C   UNL     1      -7.043  -0.554   1.538  0.00  0.00    +0.017 A 
ATOM     25  C   UNL     1      -8.021  -1.438   1.939  0.00  0.00    +0.008 A 
ATOM     26  C   UNL     1      -7.796  -2.772   1.821  0.00  0.00    +0.046 A 
ATOM     27  S   UNL     1      -6.157  -2.814   1.115  0.00  0.00    -0.095 S 
ENDBRANCH   2  23
BRANCH   6  28
ATOM     28  C   UNL     1      -0.978  -2.183  -0.760  0.00  0.00    +0.105 C 
ATOM     29  N   UNL     1      -0.776  -3.300  -0.800  0.00  0.00    -0.191 NA
ENDBRANCH   6  28
TORSDOF 4
