REMARK  Name = ZINC09531741
REMARK  9 active torsions:
REMARK  status: ('A' for Active; 'I' for Inactive)
REMARK    1  A    between atoms: C_1  and  C_2
REMARK    2  A    between atoms: C_6  and  C_30
REMARK    3  A    between atoms: C_10  and  C_29
REMARK    4  A    between atoms: C_15  and  C_16
REMARK    5  A    between atoms: C_16  and  C_17
REMARK    6  A    between atoms: N_19  and  C_20
REMARK    7  A    between atoms: C_20  and  C_21
REMARK    8  A    between atoms: C_21  and  C_22
REMARK    9  A    between atoms: C_25  and  O_28
REMARK                            x       y       z     vdW  Elec       q    Type
REMARK                         _______ _______ _______ _____ _____    ______ ____
ROOT
ATOM      1  C   UNL     1      -1.251  -6.849  -3.999  0.00  0.00    +0.045 C 
ATOM      2  C   UNL     1       0.063  -7.067  -4.705  0.00  0.00    -0.029 A 
ATOM      3  C   UNL     1       0.103  -7.543  -6.091  0.00  0.00    +0.022 A 
ATOM      4  C   UNL     1      -1.075  -7.804  -6.791  0.00  0.00    +0.024 A 
ATOM      5  C   UNL     1      -1.002  -8.258  -8.098  0.00  0.00    +0.029 A 
ATOM      6  C   UNL     1      -2.008  -8.626  -9.114  0.00  0.00    +0.028 A 
ATOM      7  C   UNL     1      -1.309  -8.997 -10.210  0.00  0.00    +0.204 A 
ATOM      8  O   UNL     1       0.010  -8.894  -9.972  0.00  0.00    -0.462 OA
ATOM      9  C   UNL     1       0.247  -8.455  -8.718  0.00  0.00    +0.142 A 
ATOM     10  C   UNL     1       1.415  -8.193  -8.017  0.00  0.00    +0.035 A 
ATOM     11  C   UNL     1       1.354  -7.739  -6.710  0.00  0.00    +0.146 A 
ATOM     12  O   UNL     1       2.490  -7.483  -6.022  0.00  0.00    -0.422 OA
ATOM     13  C   UNL     1       2.457  -7.043  -4.755  0.00  0.00    +0.341 A 
ATOM     14  O   UNL     1       3.507  -6.826  -4.176  0.00  0.00    -0.245 OA
ATOM     15  C   UNL     1       1.240  -6.825  -4.075  0.00  0.00    +0.049 A 
ATOM     16  C   UNL     1       2.753  -8.403  -8.678  0.00  0.00    +0.051 C 
ENDROOT
BRANCH   6  17
ATOM     17  C   UNL     1      -3.482  -8.596  -8.963  0.00  0.00    -0.014 A 
ATOM     18  C   UNL     1      -4.085  -9.204  -7.863  0.00  0.00    +0.011 A 
ATOM     19  C   UNL     1      -5.458  -9.170  -7.725  0.00  0.00    +0.039 A 
ATOM     20  C   UNL     1      -6.237  -8.540  -8.681  0.00  0.00    +0.123 A 
ATOM     21  C   UNL     1      -5.643  -7.938  -9.779  0.00  0.00    +0.039 A 
ATOM     22  C   UNL     1      -4.271  -7.964  -9.923  0.00  0.00    +0.011 A 
ATOM     23  F   UNL     1      -7.581  -8.513  -8.544  0.00  0.00    -0.205 F 
ENDBRANCH   6  17
BRANCH  15  24
ATOM     24  C   UNL     1       1.248  -6.330  -2.652  0.00  0.00    +0.138 C 
BRANCH  24  25
ATOM     25  C   UNL     1       1.231  -4.823  -2.644  0.00  0.00    +0.218 C 
ATOM     26  O   UNL     1       1.214  -4.211  -3.691  0.00  0.00    -0.275 OA
ATOM     27  N   UNL     1       1.234  -4.155  -1.474  0.00  0.00    -0.315 N 
ATOM     28  H   UNL     1       1.248  -4.644  -0.636  0.00  0.00    +0.149 HD
BRANCH  27  29
ATOM     29  C   UNL     1       1.217  -2.690  -1.466  0.00  0.00    +0.109 C 
BRANCH  29  30
ATOM     30  C   UNL     1       1.226  -2.187  -0.021  0.00  0.00    +0.054 C 
BRANCH  30  31
ATOM     31  C   UNL     1       1.208  -0.680  -0.013  0.00  0.00    -0.046 A 
ATOM     32  C   UNL     1       0.002  -0.004   0.002  0.00  0.00    +0.007 A 
ATOM     33  C   UNL     1      -0.017   1.377   0.010  0.00  0.00    +0.045 A 
ATOM     34  C   UNL     1       1.176   2.086   0.002  0.00  0.00    +0.117 A 
ATOM     35  C   UNL     1       2.385   1.405  -0.013  0.00  0.00    +0.045 A 
ATOM     36  C   UNL     1       2.398   0.024  -0.021  0.00  0.00    +0.007 A 
BRANCH  34  37
ATOM     37  O   UNL     1       1.160   3.445   0.009  0.00  0.00    -0.507 OA
ATOM     38  H   UNL     1       1.164   3.834   0.894  0.00  0.00    +0.292 HD
ENDBRANCH  34  37
ENDBRANCH  30  31
ENDBRANCH  29  30
ENDBRANCH  27  29
ENDBRANCH  24  25
ENDBRANCH  15  24
TORSDOF 7
