REMARK  Name = ZINC04028674
REMARK  11 active torsions:
REMARK  status: ('A' for Active; 'I' for Inactive)
REMARK    1  A    between atoms: C_1  and  C_2
REMARK    2  A    between atoms: C_8  and  C_36
REMARK    3  A    between atoms: C_9  and  O_35
REMARK    4  A    between atoms: C_19  and  C_21
REMARK    5  A    between atoms: C_21  and  N_65
REMARK    6  A    between atoms: C_22  and  N_65
REMARK    7  A    between atoms: C_23  and  C_25
REMARK    8  A    between atoms: C_23  and  C_26
REMARK    9  A    between atoms: C_23  and  N_65
REMARK   10  A    between atoms: C_26  and  C_28
REMARK   11  A    between atoms: C_26  and  O_34
REMARK                            x       y       z     vdW  Elec       q    Type
REMARK                         _______ _______ _______ _____ _____    ______ ____
ROOT
ATOM      1  C   UNL     1      -7.160  -1.666   5.067  0.00  0.00    +0.008 C 
ATOM      2  C   UNL     1      -7.824  -2.067   3.757  0.00  0.00    -0.001 C 
ATOM      3  C   UNL     1      -8.133  -3.560   3.754  0.00  0.00    +0.008 C 
ATOM      4  C   UNL     1      -8.976  -3.866   2.509  0.00  0.00    +0.027 C 
ATOM      5  C   UNL     1      -8.212  -3.411   1.296  0.00  0.00    -0.027 C 
ATOM      6  C   UNL     1      -7.343  -2.447   1.327  0.00  0.00    -0.061 C 
ATOM      7  C   UNL     1      -6.985  -1.658   2.559  0.00  0.00    +0.018 C 
ATOM      8  C   UNL     1      -5.492  -1.804   2.800  0.00  0.00    +0.132 C 
ATOM      9  C   UNL     1      -4.618  -1.661   1.586  0.00  0.00    +0.071 C 
ATOM     10  C   UNL     1      -5.111  -2.260   0.268  0.00  0.00    +0.187 C 
ATOM     11  C   UNL     1      -6.615  -2.071   0.054  0.00  0.00    +0.076 C 
ATOM     12  O   UNL     1      -4.452  -1.411  -0.747  0.00  0.00    -0.460 OA
ATOM     13  C   UNL     1      -4.463  -0.147  -0.271  0.00  0.00    +0.309 C 
ATOM     14  O   UNL     1      -4.628   0.857  -0.917  0.00  0.00    -0.251 OA
ATOM     15  C   UNL     1      -4.229  -0.220   1.230  0.00  0.00    +0.090 C 
ATOM     16  C   UNL     1      -7.311  -0.181   2.286  0.00  0.00    +0.018 C 
ENDROOT
BRANCH   8  17
ATOM     17  O   UNL     1      -5.219  -3.091   3.374  0.00  0.00    -0.391 OA
ATOM     18  H   UNL     1      -4.298  -3.212   3.646  0.00  0.00    +0.210 HD
ENDBRANCH   8  17
BRANCH  15  19
ATOM     19  C   UNL     1      -2.748   0.026   1.544  0.00  0.00    -0.064 C 
BRANCH  19  21
ATOM     20  C   UNL     1      -3.133   2.306   2.261  0.00  0.00    -0.096 C 
ATOM     21  N   UNL     1      -2.435   1.446   1.283  0.00  0.00    +0.382 N 
ATOM     22  H   UNL     1      -2.753   1.690   0.338  0.00  0.00    -0.082 HD
BRANCH  21  23
ATOM     23  C   UNL     1      -0.976   1.666   1.369  0.00  0.00    -0.038 C 
ATOM     24  C   UNL     1      -0.269   0.699   0.417  0.00  0.00    -0.010 C 
BRANCH  23  25
ATOM     25  C   UNL     1      -0.667   3.106   0.954  0.00  0.00    +0.131 C 
BRANCH  25  26
ATOM     26  C   UNL     1      -1.206   3.356  -0.431  0.00  0.00    -0.021 A 
ATOM     27  C   UNL     1      -0.436   3.050  -1.538  0.00  0.00    +0.006 A 
ATOM     28  C   UNL     1      -0.932   3.275  -2.809  0.00  0.00    +0.000 A 
ATOM     29  C   UNL     1      -2.194   3.816  -2.972  0.00  0.00    +0.000 A 
ATOM     30  C   UNL     1      -2.961   4.127  -1.865  0.00  0.00    +0.000 A 
ATOM     31  C   UNL     1      -2.467   3.897  -0.595  0.00  0.00    +0.006 A 
ENDBRANCH  25  26
BRANCH  25  32
ATOM     32  O   UNL     1       0.748   3.310   0.959  0.00  0.00    -0.389 OA
ATOM     33  H   UNL     1       1.231   2.730   0.355  0.00  0.00    +0.210 HD
ENDBRANCH  25  32
ENDBRANCH  23  25
ENDBRANCH  21  23
ENDBRANCH  19  21
ENDBRANCH  15  19
TORSDOF 7
