REMARK  Name = ZINC15518980
REMARK  14 active torsions:
REMARK  status: ('A' for Active; 'I' for Inactive)
REMARK    1  A    between atoms: C_1  and  O_2
REMARK    2  A    between atoms: O_2  and  C_3
REMARK    3  A    between atoms: C_6  and  C_9
REMARK    4  A    between atoms: C_9  and  C_10
REMARK    5  A    between atoms: C_9  and  N_18
REMARK    6  A    between atoms: C_13  and  O_16
REMARK    7  A    between atoms: O_16  and  C_17
REMARK    8  A    between atoms: C_19  and  C_21
REMARK    9  A    between atoms: C_21  and  N_70
REMARK   10  A    between atoms: C_25  and  C_27
REMARK   11  A    between atoms: C_30  and  O_35
REMARK   12  A    between atoms: C_32  and  O_33
REMARK   13  A    between atoms: O_33  and  C_34
REMARK   14  A    between atoms: O_35  and  C_36
REMARK                            x       y       z     vdW  Elec       q    Type
REMARK                         _______ _______ _______ _____ _____    ______ ____
ROOT
ATOM      1  N   UNL     1      -0.966   3.205   0.977  0.00  0.00    -0.306 N 
ATOM      2  C   UNL     1      -1.205   3.081   2.298  0.00  0.00    +0.197 C 
ATOM      3  O   UNL     1      -1.293   1.979   2.797  0.00  0.00    -0.278 OA
ATOM      4  H   UNL     1      -0.895   4.087   0.578  0.00  0.00    +0.150 HD
ENDROOT
BRANCH   1   5
ATOM      5  C   UNL     1      -0.811   2.010   0.145  0.00  0.00    +0.133 C 
BRANCH   5   9
ATOM      6  C   UNL     1       3.237   0.654   0.323  0.00  0.00    +0.120 A 
ATOM      7  C   UNL     1       2.196  -0.263   0.335  0.00  0.00    +0.046 A 
ATOM      8  C   UNL     1       0.888   0.178   0.279  0.00  0.00    +0.009 A 
ATOM      9  C   UNL     1       0.616   1.532   0.212  0.00  0.00    -0.023 A 
ATOM     10  C   UNL     1       1.652   2.448   0.200  0.00  0.00    +0.009 A 
ATOM     11  C   UNL     1       2.962   2.012   0.255  0.00  0.00    +0.046 A 
BRANCH   6  13
ATOM     12  C   UNL     1       5.545   1.223   0.362  0.00  0.00    +0.277 C 
ATOM     13  O   UNL     1       4.525   0.223   0.378  0.00  0.00    -0.495 OA
ENDBRANCH   6  13
ENDBRANCH   5   9
BRANCH   5  14
ATOM     14  C   UNL     1      -1.163   2.342  -1.282  0.00  0.00    -0.023 A 
ATOM     15  C   UNL     1      -0.774   3.553  -1.825  0.00  0.00    +0.009 A 
ATOM     16  C   UNL     1      -1.090   3.858  -3.135  0.00  0.00    +0.046 A 
ATOM     17  C   UNL     1      -1.809   2.953  -3.902  0.00  0.00    +0.120 A 
ATOM     18  C   UNL     1      -2.204   1.741  -3.353  0.00  0.00    +0.046 A 
ATOM     19  C   UNL     1      -1.880   1.439  -2.045  0.00  0.00    +0.009 A 
BRANCH  17  20
ATOM     20  O   UNL     1      -2.127   3.253  -5.189  0.00  0.00    -0.495 OA
ATOM     21  C   UNL     1      -1.688   4.518  -5.687  0.00  0.00    +0.277 C 
ENDBRANCH  17  20
ENDBRANCH   5  14
ENDBRANCH   1   5
BRANCH   2  22
ATOM     22  C   UNL     1      -1.363   4.311   3.154  0.00  0.00    +0.019 C 
BRANCH  22  27
ATOM     23  C   UNL     1      -3.107   3.301   4.512  0.00  0.00    -0.077 C 
ATOM     24  C   UNL     1      -3.785   3.700   5.836  0.00  0.00    -0.020 C 
ATOM     25  C   UNL     1      -2.756   4.596   6.562  0.00  0.00    -0.012 C 
ATOM     26  C   UNL     1      -1.855   5.097   5.405  0.00  0.00    -0.033 C 
ATOM     27  N   UNL     1      -1.776   3.918   4.535  0.00  0.00    +0.390 N 
ATOM     28  H   UNL     1      -1.091   3.253   4.914  0.00  0.00    -0.080 HD
BRANCH  26  29
ATOM     29  C   UNL     1      -0.492   5.483   5.921  0.00  0.00    -0.019 A 
ATOM     30  C   UNL     1       0.539   4.564   5.901  0.00  0.00    +0.009 A 
ATOM     31  C   UNL     1       1.789   4.914   6.374  0.00  0.00    +0.046 A 
ATOM     32  C   UNL     1       2.012   6.191   6.870  0.00  0.00    +0.124 A 
ATOM     33  C   UNL     1       0.979   7.115   6.891  0.00  0.00    +0.091 A 
ATOM     34  C   UNL     1      -0.274   6.763   6.411  0.00  0.00    +0.125 A 
BRANCH  34  35
ATOM     35  O   UNL     1      -1.287   7.668   6.425  0.00  0.00    -0.495 OA
ATOM     36  C   UNL     1      -0.990   8.966   6.943  0.00  0.00    +0.277 C 
ENDBRANCH  34  35
BRANCH  32  37
ATOM     37  O   UNL     1       3.242   6.536   7.334  0.00  0.00    -0.495 OA
ATOM     38  C   UNL     1       4.259   5.534   7.282  0.00  0.00    +0.277 C 
ENDBRANCH  32  37
ENDBRANCH  26  29
ENDBRANCH  22  27
ENDBRANCH   2  22
TORSDOF 10
