REMARK  Name = ZINC38650118
REMARK  10 active torsions:
REMARK  status: ('A' for Active; 'I' for Inactive)
REMARK    1  A    between atoms: C_1  and  O_2
REMARK    2  A    between atoms: O_2  and  C_3
REMARK    3  A    between atoms: C_7  and  C_9
REMARK    4  A    between atoms: C_14  and  O_23
REMARK    5  A    between atoms: C_18  and  N_22
REMARK    6  A    between atoms: C_19  and  C_20
REMARK    7  A    between atoms: O_23  and  C_24
REMARK    8  A    between atoms: C_24  and  C_26
REMARK    9  A    between atoms: C_31  and  O_32
REMARK   10  A    between atoms: O_32  and  C_33
REMARK                            x       y       z     vdW  Elec       q    Type
REMARK                         _______ _______ _______ _____ _____    ______ ____
ROOT
ATOM      1  C   UNL     1      -2.482  -4.187   0.042  0.00  0.00    +0.098 C 
ATOM      2  C   UNL     1      -3.212  -4.653   1.274  0.00  0.00    +0.008 A 
ATOM      3  C   UNL     1      -2.534  -4.734   2.477  0.00  0.00    +0.012 A 
ATOM      4  C   UNL     1      -3.188  -5.160   3.617  0.00  0.00    +0.047 A 
ATOM      5  C   UNL     1      -4.530  -5.508   3.558  0.00  0.00    +0.135 A 
ATOM      6  C   UNL     1      -5.212  -5.428   2.354  0.00  0.00    +0.093 A 
ATOM      7  C   UNL     1      -4.553  -4.999   1.209  0.00  0.00    +0.138 A 
ATOM      8  O   UNL     1      -5.234  -4.926   0.039  0.00  0.00    -0.441 OA
ATOM      9  C   UNL     1      -4.565  -4.898  -1.125  0.00  0.00    +0.199 C 
ATOM     10  C   UNL     1      -3.260  -4.555  -1.190  0.00  0.00    +0.098 C 
ENDROOT
BRANCH   1  15
ATOM     11  C   UNL     1      -0.893  -0.760   0.146  0.00  0.00    +0.120 A 
ATOM     12  C   UNL     1      -2.012   0.059   0.201  0.00  0.00    +0.045 A 
ATOM     13  C   UNL     1      -3.276  -0.499   0.204  0.00  0.00    +0.004 A 
ATOM     14  C   UNL     1      -3.427  -1.872   0.152  0.00  0.00    +0.005 A 
ATOM     15  C   UNL     1      -2.314  -2.691   0.098  0.00  0.00    -0.031 A 
ATOM     16  C   UNL     1      -1.048  -2.138   0.089  0.00  0.00    +0.050 A 
BRANCH  11  18
ATOM     17  C   UNL     1       0.434   1.211   0.203  0.00  0.00    +0.277 C 
ATOM     18  O   UNL     1       0.351  -0.214   0.142  0.00  0.00    -0.495 OA
ENDBRANCH  11  18
ENDBRANCH   1  15
BRANCH   9  19
ATOM     19  N   UNL     1      -5.228  -5.226  -2.282  0.00  0.00    -0.328 N 
ATOM     20  H   UNL     1      -6.165  -5.473  -2.251  0.00  0.00    +0.145 HD
ATOM     21  H   UNL     1      -4.758  -5.210  -3.131  0.00  0.00    +0.145 HD
ENDBRANCH   9  19
BRANCH  10  22
ATOM     22  C   UNL     1      -2.605  -4.543  -2.463  0.00  0.00    +0.101 C 
ATOM     23  N   UNL     1      -2.085  -4.534  -3.473  0.00  0.00    -0.191 NA
ENDBRANCH  10  22
BRANCH   5  24
ATOM     24  O   UNL     1      -5.174  -5.928   4.678  0.00  0.00    -0.422 OA
BRANCH  24  25
ATOM     25  C   UNL     1      -5.402  -5.025   5.652  0.00  0.00    +0.348 C 
ATOM     26  O   UNL     1      -5.130  -3.854   5.472  0.00  0.00    -0.244 OA
BRANCH  25  27
ATOM     27  C   UNL     1      -5.982  -5.457   6.937  0.00  0.00    +0.101 A 
ATOM     28  C   UNL     1      -6.292  -6.803   7.151  0.00  0.00    +0.018 A 
ATOM     29  C   UNL     1      -6.834  -7.200   8.354  0.00  0.00    +0.001 A 
ATOM     30  C   UNL     1      -7.075  -6.271   9.353  0.00  0.00    +0.004 A 
ATOM     31  C   UNL     1      -6.774  -4.938   9.155  0.00  0.00    +0.046 A 
ATOM     32  C   UNL     1      -6.222  -4.521   7.953  0.00  0.00    +0.134 A 
BRANCH  32  33
ATOM     33  O   UNL     1      -5.920  -3.213   7.759  0.00  0.00    -0.494 OA
ATOM     34  C   UNL     1      -6.192  -2.318   8.839  0.00  0.00    +0.277 C 
ENDBRANCH  32  33
ENDBRANCH  25  27
ENDBRANCH  24  25
ENDBRANCH   5  24
TORSDOF 8
