REMARK  Name = ZINC38787259
REMARK  8 active torsions:
REMARK  status: ('A' for Active; 'I' for Inactive)
REMARK    1  A    between atoms: C_1  and  O_2
REMARK    2  A    between atoms: O_2  and  C_3
REMARK    3  A    between atoms: C_6  and  C_9
REMARK    4  A    between atoms: C_9  and  C_11
REMARK    5  A    between atoms: C_9  and  C_28
REMARK    6  A    between atoms: C_11  and  N_12
REMARK    7  A    between atoms: C_13  and  C_15
REMARK    8  A    between atoms: N_17  and  C_18
REMARK                            x       y       z     vdW  Elec       q    Type
REMARK                         _______ _______ _______ _____ _____    ______ ____
ROOT
ATOM      1  C   UNL     1       2.554  -2.434   4.375  0.00  0.00    +0.042 C 
ENDROOT
BRANCH   1   2
ATOM      2  C   UNL     1       3.440  -3.234   3.419  0.00  0.00    +0.032 C 
ATOM      3  C   UNL     1       4.348  -4.228   4.190  0.00  0.00    +0.147 C 
ATOM      4  N   UNL     1       5.590  -3.485   4.452  0.00  0.00    -0.287 NA
ATOM      5  C   UNL     1       5.686  -2.422   3.733  0.00  0.00    +0.043 C 
ATOM      6  C   UNL     1       4.507  -2.342   2.769  0.00  0.00    +0.065 C 
ATOM      7  C   UNL     1       3.953  -0.965   2.512  0.00  0.00    -0.017 C 
ATOM      8  C   UNL     1       4.787   0.065   2.725  0.00  0.00    -0.004 C 
ATOM      9  C   UNL     1       6.159  -0.151   3.173  0.00  0.00    +0.001 C 
ATOM     10  C   UNL     1       6.605  -1.339   3.648  0.00  0.00    +0.023 C 
ENDBRANCH   1   2
BRANCH   1  14
ATOM     11  C   UNL     1       0.152   0.303   2.139  0.00  0.00    +0.120 A 
ATOM     12  C   UNL     1       1.037   0.777   3.097  0.00  0.00    +0.046 A 
ATOM     13  C   UNL     1       1.812  -0.110   3.819  0.00  0.00    +0.007 A 
ATOM     14  C   UNL     1       1.707  -1.469   3.587  0.00  0.00    -0.042 A 
ATOM     15  C   UNL     1       0.826  -1.944   2.633  0.00  0.00    +0.007 A 
ATOM     16  C   UNL     1       0.044  -1.062   1.913  0.00  0.00    +0.046 A 
BRANCH  11  18
ATOM     17  C   UNL     1      -0.449   2.564   1.715  0.00  0.00    +0.277 C 
ATOM     18  O   UNL     1      -0.612   1.173   1.428  0.00  0.00    -0.495 OA
ENDBRANCH  11  18
ENDBRANCH   1  14
BRANCH   1  19
ATOM     19  C   UNL     1       1.648  -3.391   5.152  0.00  0.00    +0.113 C 
BRANCH  19  20
ATOM     20  N   UNL     1       2.420  -4.042   6.213  0.00  0.00    -0.307 N 
ATOM     21  C   UNL     1       1.866  -5.032   6.941  0.00  0.00    +0.299 C 
ATOM     22  O   UNL     1       0.726  -5.384   6.717  0.00  0.00    -0.265 OA
ATOM     23  H   UNL     1       3.331  -3.761   6.392  0.00  0.00    +0.149 HD
BRANCH  21  24
ATOM     24  C   UNL     1       2.653  -5.696   8.022  0.00  0.00    +0.303 C 
ATOM     25  O   UNL     1       3.793  -5.344   8.246  0.00  0.00    -0.265 OA
ATOM     26  N   UNL     1       2.098  -6.686   8.749  0.00  0.00    -0.278 N 
ATOM     27  H   UNL     1       1.165  -6.918   8.620  0.00  0.00    +0.155 HD
BRANCH  26  28
ATOM     28  C   UNL     1       2.860  -7.370   9.681  0.00  0.00    +0.034 C 
ATOM     29  C   UNL     1       2.993  -8.750   9.595  0.00  0.00    +0.029 C 
ATOM     30  C   UNL     1       3.832  -9.325  10.557  0.00  0.00    -0.016 C 
ATOM     31  C   UNL     1       3.841 -10.530  11.160  0.00  0.00    +0.025 C 
ATOM     32  C   UNL     1       4.727 -10.498  12.255  0.00  0.00    +0.106 C 
ATOM     33  N   UNL     1       5.367  -9.364  12.337  0.00  0.00    -0.279 NA
ATOM     34  C   UNL     1       4.987  -8.562  11.183  0.00  0.00    +0.158 C 
ATOM     35  C   UNL     1       4.506  -7.178  11.499  0.00  0.00    +0.006 C 
ATOM     36  C   UNL     1       3.534  -6.642  10.761  0.00  0.00    +0.021 C 
ENDBRANCH  26  28
ENDBRANCH  21  24
ENDBRANCH  19  20
ENDBRANCH   1  19
TORSDOF 7
