REMARK  Name = ZINC09165134
REMARK  9 active torsions:
REMARK  status: ('A' for Active; 'I' for Inactive)
REMARK    1  A    between atoms: C_1  and  C_2
REMARK    2  A    between atoms: C_5  and  N_11
REMARK    3  A    between atoms: C_6  and  N_8
REMARK    4  A    between atoms: C_12  and  C_14
REMARK    5  A    between atoms: N_16  and  C_17
REMARK    6  A    between atoms: C_17  and  C_18
REMARK    7  A    between atoms: C_18  and  C_20
REMARK    8  A    between atoms: C_18  and  N_68
REMARK    9  A    between atoms: N_29  and  C_30
REMARK                            x       y       z     vdW  Elec       q    Type
REMARK                         _______ _______ _______ _____ _____    ______ ____
ROOT
ATOM      1  C   UNL     1       2.354  -1.837   5.780  0.00  0.00    +0.094 C 
ENDROOT
BRANCH   1   4
ATOM      2  C   UNL     1       3.981  -1.895   7.593  0.00  0.00    +0.299 C 
ATOM      3  O   UNL     1       3.060  -1.994   8.377  0.00  0.00    -0.265 OA
ATOM      4  N   UNL     1       3.734  -1.810   6.271  0.00  0.00    -0.309 N 
ATOM      5  H   UNL     1       4.470  -1.730   5.644  0.00  0.00    +0.149 HD
BRANCH   2   7
ATOM      6  N   UNL     1       5.635  -1.952   9.416  0.00  0.00    -0.276 N 
ATOM      7  C   UNL     1       5.388  -1.867   8.094  0.00  0.00    +0.303 C 
ATOM      8  O   UNL     1       6.309  -1.768   7.309  0.00  0.00    -0.265 OA
ATOM      9  H   UNL     1       4.904  -2.099  10.037  0.00  0.00    +0.155 HD
BRANCH   6  14
ATOM     10  C   UNL     1      10.944  -1.454  11.346  0.00  0.00    +0.044 C 
ATOM     11  C   UNL     1       9.533  -1.587  10.833  0.00  0.00    -0.048 A 
ATOM     12  C   UNL     1       9.275  -2.359   9.715  0.00  0.00    +0.005 A 
ATOM     13  C   UNL     1       7.984  -2.482   9.242  0.00  0.00    +0.026 A 
ATOM     14  C   UNL     1       6.943  -1.830   9.892  0.00  0.00    +0.064 A 
ATOM     15  C   UNL     1       7.206  -1.051  11.011  0.00  0.00    +0.148 A 
ATOM     16  C   UNL     1       8.500  -0.936  11.482  0.00  0.00    +0.038 A 
BRANCH  15  17
ATOM     17  N   UNL     1       6.101  -0.350  11.703  0.00  0.00    +0.058 N 
ATOM     18  O   UNL     1       6.329   0.311  12.700  0.00  0.00    -0.126 OA
ATOM     19  O   UNL     1       4.964  -0.434  11.274  0.00  0.00    -0.126 OA
ENDBRANCH  15  17
ENDBRANCH   6  14
ENDBRANCH   2   7
ENDBRANCH   1   4
BRANCH   1  20
ATOM     20  C   UNL     1       2.357  -1.850   4.250  0.00  0.00    -0.020 C 
BRANCH  20  21
ATOM     21  C   UNL     1       0.942  -1.970   3.746  0.00  0.00    -0.059 A 
ATOM     22  C   UNL     1       0.100  -2.935   4.268  0.00  0.00    +0.004 A 
ATOM     23  C   UNL     1      -1.193  -3.044   3.804  0.00  0.00    +0.023 A 
ATOM     24  C   UNL     1      -1.661  -2.186   2.808  0.00  0.00    +0.033 A 
ATOM     25  C   UNL     1      -0.816  -1.219   2.292  0.00  0.00    -0.026 A 
ATOM     26  C   UNL     1       0.484  -1.117   2.762  0.00  0.00    +0.007 A 
ATOM     27  C   UNL     1      -1.263  -0.254   1.223  0.00  0.00    +0.038 C 
ATOM     28  C   UNL     1      -2.556  -0.761   0.580  0.00  0.00    +0.024 C 
ATOM     29  C   UNL     1      -3.516  -1.167   1.705  0.00  0.00    +0.105 C 
ATOM     30  N   UNL     1      -2.977  -2.351   2.377  0.00  0.00    -0.333 N 
ATOM     31  C   UNL     1      -3.845  -2.769   3.485  0.00  0.00    +0.129 C 
ENDBRANCH  20  21
BRANCH  20  37
ATOM     32  C   UNL     1       3.361  -2.914   2.322  0.00  0.00    -0.078 C 
ATOM     33  C   UNL     1       4.304  -4.037   1.883  0.00  0.00    -0.019 C 
ATOM     34  C   UNL     1       3.687  -5.388   2.252  0.00  0.00    -0.004 C 
ATOM     35  C   UNL     1       3.428  -5.427   3.761  0.00  0.00    -0.019 C 
ATOM     36  C   UNL     1       2.510  -4.264   4.146  0.00  0.00    -0.078 C 
ATOM     37  N   UNL     1       3.172  -2.991   3.786  0.00  0.00    +0.385 N 
ATOM     38  H   UNL     1       4.091  -2.953   4.243  0.00  0.00    -0.081 HD
ENDBRANCH  20  37
ENDBRANCH   1  20
TORSDOF 7
