REMARK  Name = ZINC08764769
REMARK  8 active torsions:
REMARK  status: ('A' for Active; 'I' for Inactive)
REMARK    1  A    between atoms: C_1  and  C_2
REMARK    2  A    between atoms: C_2  and  C_3
REMARK    3  A    between atoms: C_3  and  C_4
REMARK    4  A    between atoms: C_4  and  C_5
REMARK    5  A    between atoms: C_8  and  C_11
REMARK    6  A    between atoms: N_13  and  C_14
REMARK    7  A    between atoms: C_14  and  C_16
REMARK    8  A    between atoms: C_14  and  C_17
REMARK                            x       y       z     vdW  Elec       q    Type
REMARK                         _______ _______ _______ _____ _____    ______ ____
ROOT
ATOM      1  C   UNL     1      -2.575   0.680   2.202  0.00  0.00    +0.236 C 
ATOM      2  O   UNL     1      -3.590   0.170   1.774  0.00  0.00    -0.274 OA
ATOM      3  N   UNL     1      -2.106   1.815   1.648  0.00  0.00    -0.300 N 
ATOM      4  C   UNL     1      -0.942   2.503   2.224  0.00  0.00    +0.107 C 
ATOM      5  C   UNL     1       0.103   2.710   1.123  0.00  0.00    +0.013 C 
ATOM      6  C   UNL     1      -0.542   3.438  -0.057  0.00  0.00    -0.020 C 
ATOM      7  C   UNL     1      -1.684   2.595  -0.625  0.00  0.00    +0.013 C 
ATOM      8  C   UNL     1      -2.749   2.388   0.458  0.00  0.00    +0.107 C 
ATOM      9  C   UNL     1       0.490   3.681  -1.129  0.00  0.00    +0.051 A 
ATOM     10  C   UNL     1       0.607   4.855  -1.791  0.00  0.00    +0.035 A 
ATOM     11  N   UNL     1       1.631   4.717  -2.673  0.00  0.00    -0.348 N 
ATOM     12  H   UNL     1       1.965   5.412  -3.309  0.00  0.00    +0.166 HD
ATOM     13  C   UNL     1       2.111   3.460  -2.528  0.00  0.00    +0.196 A 
ATOM     14  N   UNL     1       1.419   2.849  -1.601  0.00  0.00    -0.242 NA
ATOM     15  C   UNL     1      -0.279   6.046  -1.533  0.00  0.00    +0.036 C 
ATOM     16  C   UNL     1      -1.504   5.562  -0.744  0.00  0.00    -0.075 C 
ATOM     17  N   UNL     1      -1.065   4.742   0.405  0.00  0.00    +0.387 N 
ATOM     18  H   UNL     1      -0.326   5.241   0.914  0.00  0.00    -0.085 HD
ATOM     19  H   UNL     1      -1.864   4.583   1.030  0.00  0.00    -0.085 HD
ENDROOT
BRANCH   1  20
ATOM     20  C   UNL     1      -1.840   0.043   3.353  0.00  0.00    +0.156 C 
ATOM     21  C   UNL     1      -0.661  -0.771   2.817  0.00  0.00    +0.038 C 
BRANCH  20  24
ATOM     22  C   UNL     1      -2.520  -1.120   5.384  0.00  0.00    +0.245 C 
ATOM     23  O   UNL     1      -1.557  -0.638   5.947  0.00  0.00    -0.270 OA
ATOM     24  N   UNL     1      -2.751  -0.841   4.085  0.00  0.00    -0.300 N 
ATOM     25  H   UNL     1      -3.519  -1.225   3.636  0.00  0.00    +0.150 HD
BRANCH  22  29
ATOM     26  C   UNL     1      -5.161  -3.682   7.507  0.00  0.00    -0.047 A 
ATOM     27  C   UNL     1      -4.065  -3.135   8.151  0.00  0.00    +0.004 A 
ATOM     28  C   UNL     1      -3.203  -2.303   7.467  0.00  0.00    +0.013 A 
ATOM     29  C   UNL     1      -3.439  -2.012   6.123  0.00  0.00    +0.037 A 
ATOM     30  C   UNL     1      -4.550  -2.562   5.480  0.00  0.00    +0.013 A 
ATOM     31  C   UNL     1      -5.400  -3.398   6.174  0.00  0.00    +0.004 A 
BRANCH  26  32
ATOM     32  C   UNL     1      -6.097  -4.591   8.260  0.00  0.00    +0.035 C 
BRANCH  32  33
ATOM     33  C   UNL     1      -7.210  -3.760   8.901  0.00  0.00    +0.004 C 
BRANCH  33  35
ATOM     34  C   UNL     1      -9.273  -3.852  10.307  0.00  0.00    +0.004 C 
ATOM     35  C   UNL     1      -8.160  -4.683   9.666  0.00  0.00    -0.003 C 
ENDBRANCH  33  35
ENDBRANCH  32  33
ENDBRANCH  26  32
ENDBRANCH  22  29
ENDBRANCH  20  24
ENDBRANCH   1  20
TORSDOF 6
