REMARK  Name = ZINC15129043
REMARK  12 active torsions:
REMARK  status: ('A' for Active; 'I' for Inactive)
REMARK    1  A    between atoms: C_1  and  C_2
REMARK    2  A    between atoms: C_2  and  C_3
REMARK    3  A    between atoms: C_6  and  C_9
REMARK    4  A    between atoms: C_9  and  C_11
REMARK    5  A    between atoms: C_9  and  N_51
REMARK    6  A    between atoms: C_11  and  N_12
REMARK    7  A    between atoms: N_12  and  C_13
REMARK    8  A    between atoms: C_16  and  N_23
REMARK    9  A    between atoms: C_18  and  S_19
REMARK   10  A    between atoms: S_19  and  N_22
REMARK   11  A    between atoms: C_26  and  N_51
REMARK   12  A    between atoms: C_27  and  N_51
REMARK                            x       y       z     vdW  Elec       q    Type
REMARK                         _______ _______ _______ _____ _____    ______ ____
ROOT
ATOM      1  N   UNL     1      -3.888   0.699  -1.790  0.00  0.00    -0.344 N 
ATOM      2  H   UNL     1      -4.460   0.330  -1.099  0.00  0.00    +0.146 HD
ENDROOT
BRANCH   1   3
ATOM      3  C   UNL     1      -4.324   0.725  -3.117  0.00  0.00    +0.054 A 
ATOM      4  C   UNL     1      -3.507   1.253  -4.109  0.00  0.00    +0.027 A 
ATOM      5  C   UNL     1      -3.941   1.277  -5.419  0.00  0.00    +0.034 A 
ATOM      6  C   UNL     1      -5.188   0.777  -5.745  0.00  0.00    +0.128 A 
ATOM      7  C   UNL     1      -6.005   0.251  -4.761  0.00  0.00    +0.063 A 
ATOM      8  C   UNL     1      -5.574   0.218  -3.449  0.00  0.00    +0.128 A 
BRANCH   8   9
ATOM      9  S   UNL     1      -6.613  -0.459  -2.197  0.00  0.00    +0.058 S 
ATOM     10  O   UNL     1      -6.642   0.488  -1.138  0.00  0.00    -0.153 OA
ATOM     11  O   UNL     1      -7.792  -0.911  -2.848  0.00  0.00    -0.153 OA
BRANCH   9  12
ATOM     12  N   UNL     1      -5.852  -1.806  -1.606  0.00  0.00    -0.203 NA
ATOM     13  H   UNL     1      -4.992  -2.075  -1.966  0.00  0.00    +0.144 HD
ATOM     14  H   UNL     1      -6.267  -2.328  -0.901  0.00  0.00    +0.144 HD
ENDBRANCH   9  12
ENDBRANCH   8   9
BRANCH   6  15
ATOM     15  N   UNL     1      -5.650   0.804  -7.151  0.00  0.00    +0.056 N 
ATOM     16  O   UNL     1      -4.932   1.267  -8.019  0.00  0.00    -0.126 OA
ATOM     17  O   UNL     1      -6.749   0.364  -7.440  0.00  0.00    -0.126 OA
ENDBRANCH   6  15
ENDBRANCH   1   3
BRANCH   1  18
ATOM     18  C   UNL     1      -2.567   1.228  -1.443  0.00  0.00    +0.091 C 
BRANCH  18  19
ATOM     19  C   UNL     1      -2.401   1.225   0.078  0.00  0.00    -0.021 C 
BRANCH  19  23
ATOM     20  C   UNL     1       1.528   2.573   1.077  0.00  0.00    -0.048 A 
ATOM     21  C   UNL     1       1.221   1.227   1.144  0.00  0.00    +0.004 A 
ATOM     22  C   UNL     1      -0.051   0.791   0.825  0.00  0.00    +0.002 A 
ATOM     23  C   UNL     1      -1.015   1.701   0.432  0.00  0.00    -0.059 A 
ATOM     24  C   UNL     1      -0.710   3.048   0.370  0.00  0.00    +0.002 A 
ATOM     25  C   UNL     1       0.562   3.483   0.690  0.00  0.00    +0.004 A 
BRANCH  20  27
ATOM     26  C   UNL     1       3.785   3.048   0.166  0.00  0.00    +0.009 C 
ATOM     27  C   UNL     1       2.915   3.048   1.425  0.00  0.00    +0.032 C 
ENDBRANCH  20  27
ENDBRANCH  19  23
BRANCH  19  30
ATOM     28  C   UNL     1      -3.795   3.175  -0.261  0.00  0.00    -0.096 C 
ATOM     29  C   UNL     1      -4.564   1.368   1.155  0.00  0.00    -0.096 C 
ATOM     30  N   UNL     1      -3.383   2.134   0.704  0.00  0.00    +0.382 N 
ATOM     31  H   UNL     1      -2.949   2.586   1.517  0.00  0.00    -0.082 HD
ENDBRANCH  19  30
ENDBRANCH  18  19
ENDBRANCH   1  18
TORSDOF 9
