REMARK  Name = ZINC30135955
REMARK  5 active torsions:
REMARK  status: ('A' for Active; 'I' for Inactive)
REMARK    1  A    between atoms: C_1  and  N_2
REMARK    2  A    between atoms: N_2  and  C_3
REMARK    3  A    between atoms: C_3  and  C_4
REMARK    4  A    between atoms: C_14  and  C_16
REMARK    5  A    between atoms: C_21  and  O_22
REMARK                            x       y       z     vdW  Elec       q    Type
REMARK                         _______ _______ _______ _____ _____    ______ ____
ROOT
ATOM      1  C   UNL     1      -0.722  -2.677  -1.226  0.00  0.00    +0.132 C 
ATOM      2  N   UNL     1      -1.069  -1.964   0.006  0.00  0.00    -0.300 N 
ATOM      3  C   UNL     1      -1.381  -2.656   1.119  0.00  0.00    +0.250 C 
ATOM      4  O   UNL     1      -1.594  -2.067   2.161  0.00  0.00    -0.270 OA
ENDROOT
BRANCH   3   5
ATOM      5  C   UNL     1      -1.466  -4.129   1.073  0.00  0.00    +0.079 A 
ATOM      6  C   UNL     1      -0.443  -4.873   0.481  0.00  0.00    +0.032 A 
ATOM      7  C   UNL     1      -0.528  -6.249   0.442  0.00  0.00    +0.019 A 
ATOM      8  C   UNL     1      -1.625  -6.897   0.989  0.00  0.00    +0.019 A 
ATOM      9  C   UNL     1      -2.642  -6.173   1.576  0.00  0.00    +0.047 A 
ATOM     10  C   UNL     1      -2.571  -4.789   1.629  0.00  0.00    +0.129 A 
ATOM     11 BR   UNL     1       0.858  -7.255  -0.359  0.00  0.00    -0.050 Br
BRANCH  10  12
ATOM     12  O   UNL     1      -3.568  -4.076   2.211  0.00  0.00    -0.506 OA
ATOM     13  H   UNL     1      -4.434  -4.597   2.646  0.00  0.00    +0.292 HD
ENDBRANCH  10  12
ENDBRANCH   3   5
BRANCH   2  14
ATOM     14  C   UNL     1      -1.076  -0.500   0.027  0.00  0.00    +0.114 C 
BRANCH  14  15
ATOM     15  C   UNL     1       0.311   0.011   0.425  0.00  0.00    -0.013 C 
ATOM     16  C   UNL     1       0.303   1.541   0.448  0.00  0.00    +0.012 C 
ATOM     17  C   UNL     1       1.690   2.051   0.846  0.00  0.00    -0.010 C 
ATOM     18  C   UNL     1       2.724   1.561  -0.169  0.00  0.00    +0.007 C 
ATOM     19  C   UNL     1       2.732   0.031  -0.192  0.00  0.00    -0.010 C 
ATOM     20  C   UNL     1       1.345  -0.479  -0.590  0.00  0.00    +0.012 C 
ATOM     21  C   UNL     1       3.090  -0.498   1.198  0.00  0.00    +0.007 C 
ATOM     22  C   UNL     1       2.056  -0.008   2.213  0.00  0.00    -0.010 C 
ATOM     23  C   UNL     1       2.049   1.522   2.236  0.00  0.00    +0.007 C 
ATOM     24  C   UNL     1       0.669  -0.518   1.815  0.00  0.00    +0.012 C 
ENDBRANCH  14  15
ENDBRANCH   2  14
TORSDOF 4
