REMARK  Name = ZINC22069555
REMARK  11 active torsions:
REMARK  status: ('A' for Active; 'I' for Inactive)
REMARK    1  A    between atoms: C_1  and  C_2
REMARK    2  A    between atoms: C_2  and  N_3
REMARK    3  A    between atoms: N_3  and  C_4
REMARK    4  A    between atoms: N_3  and  S_6
REMARK    5  A    between atoms: C_4  and  C_5
REMARK    6  A    between atoms: S_6  and  C_9
REMARK    7  A    between atoms: C_15  and  S_18
REMARK    8  A    between atoms: S_18  and  C_19
REMARK    9  A    between atoms: C_19  and  C_21
REMARK   10  A    between atoms: C_19  and  C_22
REMARK   11  A    between atoms: N_24  and  C_25
REMARK                            x       y       z     vdW  Elec       q    Type
REMARK                         _______ _______ _______ _____ _____    ______ ____
ROOT
ATOM      1  S   UNL     1      -3.252   5.209  -0.340  0.00  0.00    -0.073 S 
ENDROOT
BRANCH   1   8
ATOM      2  C   UNL     1       1.049   3.314  -0.827  0.00  0.00    +0.122 A 
ATOM      3  C   UNL     1       1.120   1.911  -0.753  0.00  0.00    +0.033 A 
ATOM      4  C   UNL     1      -0.011   1.185  -0.551  0.00  0.00    +0.050 A 
ATOM      5  C   UNL     1      -1.245   1.855  -0.425  0.00  0.00    +0.162 A 
ATOM      6  N   UNL     1      -2.484   1.446  -0.222  0.00  0.00    -0.129 NA
ATOM      7  N   UNL     1      -3.272   2.462  -0.172  0.00  0.00    -0.122 NA
ATOM      8  C   UNL     1      -2.593   3.575  -0.334  0.00  0.00    +0.197 A 
ATOM      9  N   UNL     1      -1.283   3.231  -0.496  0.00  0.00    -0.276 N 
ATOM     10  C   UNL     1      -0.135   3.946  -0.699  0.00  0.00    +0.123 A 
BRANCH   2  11
ATOM     11  S   UNL     1       2.517   4.253  -1.089  0.00  0.00    +0.062 S 
ATOM     12  O   UNL     1       2.265   5.553  -0.575  0.00  0.00    -0.153 OA
ATOM     13  O   UNL     1       3.598   3.450  -0.636  0.00  0.00    -0.153 OA
BRANCH  11  14
ATOM     14  N   UNL     1       2.705   4.420  -2.726  0.00  0.00    -0.177 NA
BRANCH  14  16
ATOM     15  C   UNL     1       3.151   6.678  -3.553  0.00  0.00    +0.022 C 
ATOM     16  C   UNL     1       2.110   5.565  -3.419  0.00  0.00    +0.106 C 
ENDBRANCH  14  16
BRANCH  14  17
ATOM     17  C   UNL     1       3.468   3.423  -3.481  0.00  0.00    +0.106 C 
ATOM     18  C   UNL     1       2.510   2.383  -4.066  0.00  0.00    +0.022 C 
ENDBRANCH  14  17
ENDBRANCH  11  14
ENDBRANCH   2  11
ENDBRANCH   1   8
BRANCH   1  19
ATOM     19  C   UNL     1      -5.030   4.966  -0.076  0.00  0.00    +0.137 C 
ATOM     20  C   UNL     1      -5.625   4.217  -1.270  0.00  0.00    +0.029 C 
BRANCH  19  21
ATOM     21  C   UNL     1      -5.705   6.307   0.063  0.00  0.00    +0.230 C 
ATOM     22  O   UNL     1      -5.204   7.293  -0.436  0.00  0.00    -0.274 OA
ATOM     23  N   UNL     1      -6.865   6.410   0.741  0.00  0.00    -0.285 N 
ATOM     24  H   UNL     1      -7.364   5.505   1.118  0.00  0.00    +0.155 HD
BRANCH  23  25
ATOM     25  C   UNL     1      -7.435   7.670   0.965  0.00  0.00    +0.035 A 
ATOM     26  C   UNL     1      -8.818   7.808   1.002  0.00  0.00    +0.025 A 
ATOM     27  C   UNL     1      -9.386   9.047   1.222  0.00  0.00    +0.029 A 
ATOM     28  C   UNL     1      -8.576  10.157   1.409  0.00  0.00    +0.067 A 
ATOM     29  C   UNL     1      -7.187  10.021   1.373  0.00  0.00    +0.069 A 
ATOM     30  C   UNL     1      -6.619   8.775   1.156  0.00  0.00    +0.051 A 
ATOM     31  N   UNL     1      -6.652  11.288   1.589  0.00  0.00    -0.306 N 
ATOM     32  H   UNL     1      -5.562  11.430   1.604  0.00  0.00    +0.170 HD
ATOM     33  C   UNL     1      -7.669  12.156   1.749  0.00  0.00    +0.325 A 
ATOM     34  O   UNL     1      -7.545  13.349   1.956  0.00  0.00    -0.247 OA
ATOM     35  N   UNL     1      -8.842  11.505   1.646  0.00  0.00    -0.306 N 
ATOM     36  H   UNL     1      -9.883  11.856   1.716  0.00  0.00    +0.170 HD
ENDBRANCH  23  25
ENDBRANCH  19  21
ENDBRANCH   1  19
TORSDOF 8
