REMARK  Name = ZINC66209610
REMARK  6 active torsions:
REMARK  status: ('A' for Active; 'I' for Inactive)
REMARK    1  A    between atoms: C_1  and  S_2
REMARK    2  A    between atoms: S_2  and  C_3
REMARK    3  A    between atoms: C_6  and  N_9
REMARK    4  A    between atoms: C_10  and  C_12
REMARK    5  A    between atoms: N_14  and  C_15
REMARK    6  A    between atoms: C_15  and  C_16
REMARK                            x       y       z     vdW  Elec       q    Type
REMARK                         _______ _______ _______ _____ _____    ______ ____
ROOT
ATOM      1  N   UNL     1      -5.711  -1.417   0.050  0.00  0.00    -0.276 N 
ATOM      2  C   UNL     1      -6.618  -0.425   0.160  0.00  0.00    +0.303 C 
ATOM      3  O   UNL     1      -6.254   0.733   0.158  0.00  0.00    -0.265 OA
ATOM      4  H   UNL     1      -6.006  -2.337  -0.026  0.00  0.00    +0.155 HD
ENDROOT
BRANCH   1   8
ATOM      5  C   UNL     1      -1.670  -0.599  -0.017  0.00  0.00    +0.097 A 
ATOM      6  C   UNL     1      -2.498   0.219   0.748  0.00  0.00    +0.036 A 
ATOM      7  C   UNL     1      -3.854  -0.040   0.782  0.00  0.00    +0.027 A 
ATOM      8  C   UNL     1      -4.344  -1.117   0.044  0.00  0.00    +0.052 A 
ATOM      9  C   UNL     1      -3.460  -1.889  -0.696  0.00  0.00    +0.135 A 
ATOM     10  N   UNL     1      -2.171  -1.610  -0.709  0.00  0.00    -0.247 NA
BRANCH   5  12
ATOM     11  C   UNL     1       0.712  -1.565  -1.171  0.00  0.00    +0.091 C 
ATOM     12  S   UNL     1       0.062  -0.279  -0.069  0.00  0.00    -0.109 S 
ENDBRANCH   5  12
ENDBRANCH   1   8
BRANCH   2  13
ATOM     13  C   UNL     1      -8.069  -0.752   0.284  0.00  0.00    +0.300 C 
ATOM     14  O   UNL     1      -8.433  -1.909   0.286  0.00  0.00    -0.265 OA
ATOM     15  N   UNL     1      -8.976   0.240   0.395  0.00  0.00    -0.303 N 
ATOM     16  H   UNL     1      -8.685   1.165   0.393  0.00  0.00    +0.149 HD
BRANCH  15  17
ATOM     17  C   UNL     1     -10.400  -0.080   0.517  0.00  0.00    +0.147 C 
BRANCH  17  18
ATOM     18  C   UNL     1     -11.194   1.196   0.625  0.00  0.00    +0.008 A 
ATOM     19  C   UNL     1     -11.745   1.944  -0.362  0.00  0.00    +0.014 A 
ATOM     20  C   UNL     1     -12.440   3.091  -0.025  0.00  0.00    +0.023 A 
ATOM     21  C   UNL     1     -12.549   3.433   1.283  0.00  0.00    +0.055 A 
ATOM     22  S   UNL     1     -11.661   2.109   2.086  0.00  0.00    -0.085 S 
ATOM     23 BR   UNL     1     -13.423   4.922   2.055  0.00  0.00    -0.043 Br
ENDBRANCH  17  18
ENDBRANCH  15  17
ENDBRANCH   2  13
TORSDOF 5
