REMARK  Name = ZINC11787750
REMARK  9 active torsions:
REMARK  status: ('A' for Active; 'I' for Inactive)
REMARK    1  A    between atoms: C_1  and  C_2
REMARK    2  A    between atoms: C_2  and  O_3
REMARK    3  A    between atoms: O_3  and  C_4
REMARK    4  A    between atoms: C_6  and  N_27
REMARK    5  A    between atoms: C_20  and  C_22
REMARK    6  A    between atoms: C_23  and  C_24
REMARK    7  A    between atoms: C_24  and  C_25
REMARK    8  A    between atoms: C_24  and  C_26
REMARK    9  A    between atoms: C_28  and  C_30
REMARK                            x       y       z     vdW  Elec       q    Type
REMARK                         _______ _______ _______ _____ _____    ______ ____
ROOT
ATOM      1  C   UNL     1       7.214   1.067   0.515  0.00  0.00    +0.153 C 
ATOM      2  C   UNL     1       6.118   1.994  -0.052  0.00  0.00    +0.133 C 
ATOM      3  C   UNL     1       6.548   2.299  -1.471  0.00  0.00    -0.021 A 
ATOM      4  C   UNL     1       6.140   3.295  -2.340  0.00  0.00    +0.006 A 
ATOM      5  C   UNL     1       6.679   3.377  -3.608  0.00  0.00    +0.000 A 
ATOM      6  C   UNL     1       7.631   2.460  -4.014  0.00  0.00    +0.000 A 
ATOM      7  C   UNL     1       8.041   1.464  -3.150  0.00  0.00    +0.004 A 
ATOM      8  C   UNL     1       7.502   1.379  -1.877  0.00  0.00    -0.034 A 
ATOM      9  C   UNL     1       7.772   0.402  -0.757  0.00  0.00    +0.027 C 
ATOM     10  C   UNL     1       7.047  -0.915  -1.016  0.00  0.00    +0.033 C 
ATOM     11  C   UNL     1       7.281  -1.865   0.164  0.00  0.00    +0.109 C 
ATOM     12  N   UNL     1       8.727  -1.992   0.387  0.00  0.00    -0.298 N 
ATOM     13  C   UNL     1       9.525  -0.772   0.576  0.00  0.00    +0.109 C 
ATOM     14  C   UNL     1       9.273   0.169  -0.607  0.00  0.00    +0.033 C 
ATOM     15  C   UNL     1       9.312  -3.206   0.419  0.00  0.00    +0.239 C 
ATOM     16  O   UNL     1      10.522  -3.296   0.510  0.00  0.00    -0.271 OA
ENDROOT
BRANCH   2  17
ATOM     17  N   UNL     1       4.822   1.311  -0.049  0.00  0.00    -0.302 N 
ATOM     18  C   UNL     1       3.682   2.029  -0.037  0.00  0.00    +0.246 C 
ATOM     19  O   UNL     1       3.728   3.243  -0.028  0.00  0.00    -0.270 OA
ATOM     20  H   UNL     1       4.785   0.342  -0.056  0.00  0.00    +0.150 HD
BRANCH  18  21
ATOM     21  C   UNL     1       2.374   1.339  -0.034  0.00  0.00    +0.055 A 
ATOM     22  C   UNL     1       1.182   2.073  -0.022  0.00  0.00    +0.016 A 
ATOM     23  C   UNL     1      -0.015   1.379  -0.020  0.00  0.00    +0.020 A 
ATOM     24  C   UNL     1       0.004  -0.004  -0.030  0.00  0.00    +0.111 A 
ATOM     25  N   UNL     1       1.143  -0.670  -0.041  0.00  0.00    -0.263 NA
ATOM     26  C   UNL     1       2.307  -0.055  -0.043  0.00  0.00    +0.123 A 
ENDBRANCH  18  21
ENDBRANCH   2  17
BRANCH  15  27
ATOM     27  C   UNL     1       8.488  -4.422   0.344  0.00  0.00    +0.063 C 
ATOM     28  C   UNL     1       9.054  -5.618   0.475  0.00  0.00    -0.019 C 
BRANCH  28  29
ATOM     29  C   UNL     1       8.210  -6.864   0.398  0.00  0.00    +0.006 C 
ATOM     30  C   UNL     1       8.695  -7.738  -0.759  0.00  0.00    +0.011 C 
ATOM     31  C   UNL     1       8.328  -7.642   1.710  0.00  0.00    +0.011 C 
ENDBRANCH  28  29
ENDBRANCH  15  27
BRANCH   1  32
ATOM     32  O   UNL     1       8.228   1.824   1.179  0.00  0.00    -0.374 OA
BRANCH  32  34
ATOM     33  C   UNL     1       9.136   2.828   3.182  0.00  0.00    +0.034 C 
ATOM     34  C   UNL     1       7.995   2.008   2.577  0.00  0.00    +0.157 C 
ENDBRANCH  32  34
ENDBRANCH   1  32
TORSDOF 6
