REMARK  Name = ZINC36233273
REMARK  2 active torsions:
REMARK  status: ('A' for Active; 'I' for Inactive)
REMARK    1  A    between atoms: C_2  and  S_8
REMARK    2  A    between atoms: S_8  and  N_11
REMARK                            x       y       z     vdW  Elec       q    Type
REMARK                         _______ _______ _______ _____ _____    ______ ____
ROOT
ATOM      1  N   UNL     1       1.895   4.274   1.440  0.00  0.00    -0.103 NA
ATOM      2  C   UNL     1       2.037   5.549   1.708  0.00  0.00    +0.192 A 
ATOM      3  N   UNL     1       2.580   6.151   2.819  0.00  0.00    -0.336 N 
ATOM      4  C   UNL     1       2.628   7.524   2.892  0.00  0.00    +0.024 A 
ATOM      5  C   UNL     1       2.132   8.219   1.858  0.00  0.00    -0.005 A 
ATOM      6  S   UNL     1       1.583   6.971   0.726  0.00  0.00    -0.055 S 
ATOM      7  C   UNL     1       2.072   9.705   1.716  0.00  0.00    -0.038 C 
ATOM      8  N   UNL     1       2.303  10.311   3.040  0.00  0.00    +0.382 N 
ATOM      9  C   UNL     1       3.504   9.716   3.642  0.00  0.00    -0.076 C 
ATOM     10  C   UNL     1       3.216   8.280   4.083  0.00  0.00    +0.035 C 
ATOM     11  H   UNL     1       2.435  11.306   2.937  0.00  0.00    -0.085 HD
ATOM     12  H   UNL     1       2.927   5.611   3.546  0.00  0.00    +0.168 HD
ATOM     13  H   UNL     1       1.506  10.136   3.634  0.00  0.00    -0.085 HD
ENDROOT
BRANCH   1  14
ATOM     14  S   UNL     1       1.207   3.800   0.010  0.00  0.00    +0.103 S 
ATOM     15  O   UNL     1       2.098   4.200  -1.022  0.00  0.00    -0.146 OA
ATOM     16  O   UNL     1      -0.149   4.224   0.052  0.00  0.00    -0.146 OA
BRANCH  14  18
ATOM     17  C   UNL     1      -0.016   1.352   0.009  0.00  0.00    +0.053 A 
ATOM     18  C   UNL     1       1.184   2.038   0.002  0.00  0.00    +0.135 A 
ATOM     19  C   UNL     1       2.343   1.335  -0.013  0.00  0.00    +0.083 A 
ATOM     20  S   UNL     1       1.753  -0.350  -0.017  0.00  0.00    -0.073 S 
ATOM     21  C   UNL     1       0.002  -0.004   0.002  0.00  0.00    +0.058 A 
ATOM     22 BR   UNL     1      -1.451  -1.215   0.010  0.00  0.00    -0.042 Br
ATOM     23 BR   UNL     1       4.123   1.973  -0.027  0.00  0.00    -0.040 Br
ENDBRANCH  14  18
ENDBRANCH   1  14
TORSDOF 2
