REMARK  Name = ZINC04151172
REMARK  5 active torsions:
REMARK  status: ('A' for Active; 'I' for Inactive)
REMARK    1  A    between atoms: C_1  and  C_2
REMARK    2  A    between atoms: C_3  and  C_14
REMARK    3  A    between atoms: N_5  and  C_7
REMARK    4  A    between atoms: C_15  and  C_16
REMARK    5  A    between atoms: C_23  and  O_26
REMARK                            x       y       z     vdW  Elec       q    Type
REMARK                         _______ _______ _______ _____ _____    ______ ____
ROOT
ATOM      1  C   UNL     1       1.321   1.718   2.815  0.00  0.00    +0.015 C 
ATOM      2  C   UNL     1       1.973   2.735   3.406  0.00  0.00    +0.028 C 
ENDROOT
BRANCH   2   3
ATOM      3  C   UNL     1       3.403   2.603   3.728  0.00  0.00    +0.065 A 
ATOM      4  C   UNL     1       4.071   3.677   4.348  0.00  0.00    +0.028 A 
ATOM      5  C   UNL     1       5.394   3.566   4.650  0.00  0.00    +0.012 A 
ATOM      6  C   UNL     1       6.056   2.363   4.328  0.00  0.00    +0.004 A 
ATOM      7  C   UNL     1       7.419   2.185   4.614  0.00  0.00    +0.010 A 
ATOM      8  C   UNL     1       8.030   1.011   4.291  0.00  0.00    +0.004 A 
ATOM      9  C   UNL     1       7.323  -0.019   3.679  0.00  0.00    +0.047 A 
ATOM     10  C   UNL     1       5.996   0.117   3.385  0.00  0.00    +0.143 A 
ATOM     11  C   UNL     1       5.330   1.319   3.706  0.00  0.00    +0.113 A 
ATOM     12  N   UNL     1       4.032   1.477   3.435  0.00  0.00    -0.244 NA
BRANCH  10  13
ATOM     13  O   UNL     1       5.321  -0.900   2.788  0.00  0.00    -0.505 OA
ATOM     14  H   UNL     1       5.334  -0.867   1.822  0.00  0.00    +0.292 HD
ENDBRANCH  10  13
ENDBRANCH   2   3
BRANCH   1  17
ATOM     15  C   UNL     1      -0.013   1.086   0.008  0.00  0.00    +0.068 C 
ATOM     16  C   UNL     1      -0.718   1.572   1.248  0.00  0.00    +0.069 A 
ATOM     17  C   UNL     1      -0.110   1.850   2.493  0.00  0.00    +0.035 A 
ATOM     18  C   UNL     1      -1.109   2.268   3.352  0.00  0.00    +0.140 A 
ATOM     19  N   UNL     1      -2.268   2.244   2.660  0.00  0.00    -0.221 N 
ATOM     20  N   UNL     1      -1.996   1.815   1.357  0.00  0.00    -0.170 NA
ATOM     21 CL   UNL     1      -0.910   2.736   5.011  0.00  0.00    -0.061 Cl
BRANCH  19  22
ATOM     22  C   UNL     1      -3.528   2.597   3.161  0.00  0.00    +0.067 A 
ATOM     23  C   UNL     1      -3.857   2.315   4.480  0.00  0.00    +0.028 A 
ATOM     24  C   UNL     1      -5.098   2.668   4.972  0.00  0.00    +0.002 A 
ATOM     25  C   UNL     1      -6.017   3.293   4.150  0.00  0.00    +0.000 A 
ATOM     26  C   UNL     1      -5.695   3.572   2.834  0.00  0.00    +0.002 A 
ATOM     27  C   UNL     1      -4.453   3.225   2.337  0.00  0.00    +0.028 A 
ENDBRANCH  19  22
ENDBRANCH   1  17
TORSDOF 4
