REMARK  Name = ZINC12163066
REMARK  11 active torsions:
REMARK  status: ('A' for Active; 'I' for Inactive)
REMARK    1  A    between atoms: C_1  and  C_2
REMARK    2  A    between atoms: C_3  and  C_32
REMARK    3  A    between atoms: C_8  and  C_10
REMARK    4  A    between atoms: C_10  and  N_11
REMARK    5  A    between atoms: C_12  and  C_14
REMARK    6  A    between atoms: C_14  and  C_15
REMARK    7  A    between atoms: C_15  and  C_16
REMARK    8  A    between atoms: C_16  and  C_22
REMARK    9  A    between atoms: C_22  and  C_23
REMARK   10  A    between atoms: C_25  and  O_30
REMARK   11  A    between atoms: O_30  and  C_31
REMARK                            x       y       z     vdW  Elec       q    Type
REMARK                         _______ _______ _______ _____ _____    ______ ____
ROOT
ATOM      1  C   UNL     1       0.778  -1.131   1.181  0.00  0.00    +0.035 C 
ENDROOT
BRANCH   1   2
ATOM      2  C   UNL     1       0.218  -0.098   0.201  0.00  0.00    +0.039 C 
ATOM      3  C   UNL     1      -1.243  -0.442  -0.161  0.00  0.00    +0.035 C 
ATOM      4  C   UNL     1      -2.030   0.403   0.867  0.00  0.00    +0.098 C 
ATOM      5  C   UNL     1      -1.086   1.531   1.222  0.00  0.00    +0.214 C 
ATOM      6  O   UNL     1      -1.410   2.560   1.776  0.00  0.00    -0.276 OA
ATOM      7  N   UNL     1       0.164   1.226   0.833  0.00  0.00    -0.309 N 
ATOM      8  H   UNL     1       0.932   1.807   0.954  0.00  0.00    +0.149 HD
BRANCH   2   9
ATOM      9  C   UNL     1       1.079  -0.046  -1.062  0.00  0.00    +0.064 C 
BRANCH   9  10
ATOM     10  C   UNL     1       2.474   0.397  -0.703  0.00  0.00    -0.007 A 
ATOM     11  C   UNL     1       3.450  -0.543  -0.434  0.00  0.00    +0.052 A 
ATOM     12  C   UNL     1       4.734  -0.134  -0.108  0.00  0.00    +0.121 A 
ATOM     13  C   UNL     1       5.035   1.219  -0.041  0.00  0.00    +0.048 A 
ATOM     14  C   UNL     1       4.055   2.157  -0.305  0.00  0.00    +0.042 A 
ATOM     15  C   UNL     1       2.775   1.747  -0.636  0.00  0.00    +0.127 A 
ATOM     16  F   UNL     1       1.818   2.665  -0.893  0.00  0.00    -0.205 F 
BRANCH  12  17
ATOM     17  O   UNL     1       5.697  -1.058   0.152  0.00  0.00    -0.495 OA
ATOM     18  C   UNL     1       6.996  -0.565   0.487  0.00  0.00    +0.277 C 
ENDBRANCH  12  17
ENDBRANCH   9  10
ENDBRANCH   2   9
ENDBRANCH   1   2
BRANCH   1  19
ATOM     19  C   UNL     1      -0.043  -1.106   2.472  0.00  0.00    +0.098 C 
BRANCH  19  21
ATOM     20  N   UNL     1       0.028  -2.174   4.702  0.00  0.00    -0.310 N 
ATOM     21  C   UNL     1       0.583  -2.033   3.482  0.00  0.00    +0.213 C 
ATOM     22  O   UNL     1       1.586  -2.652   3.198  0.00  0.00    -0.276 OA
ATOM     23  H   UNL     1      -0.775  -1.679   4.930  0.00  0.00    +0.149 HD
BRANCH  20  24
ATOM     24  C   UNL     1       0.636  -3.075   5.685  0.00  0.00    +0.161 C 
BRANCH  24  32
ATOM     25  C   UNL     1      -3.432  -5.181   9.106  0.00  0.00    +0.065 C 
ATOM     26  C   UNL     1      -2.592  -3.974   9.432  0.00  0.00    +0.032 A 
ATOM     27  C   UNL     1      -2.783  -3.330  10.582  0.00  0.00    +0.010 A 
ATOM     28  S   UNL     1      -1.572  -2.021  10.478  0.00  0.00    -0.054 S 
ATOM     29  C   UNL     1      -0.903  -2.445   8.887  0.00  0.00    +0.178 A 
ATOM     30  N   UNL     1      -1.636  -3.548   8.536  0.00  0.00    -0.297 N 
ATOM     31  C   UNL     1      -1.144  -3.918   7.287  0.00  0.00    +0.118 A 
ATOM     32  C   UNL     1      -0.173  -3.051   6.956  0.00  0.00    +0.078 A 
ATOM     33  N   UNL     1      -0.040  -2.163   7.954  0.00  0.00    -0.225 NA
ATOM     34  C   UNL     1      -3.764  -3.630  11.686  0.00  0.00    +0.053 C 
ENDBRANCH  24  32
ENDBRANCH  20  24
ENDBRANCH  19  21
ENDBRANCH   1  19
TORSDOF 8
