REMARK  Name = ZINC63437488
REMARK  8 active torsions:
REMARK  status: ('A' for Active; 'I' for Inactive)
REMARK    1  A    between atoms: C_1  and  C_2
REMARK    2  A    between atoms: C_4  and  S_12
REMARK    3  A    between atoms: S_12  and  C_13
REMARK    4  A    between atoms: C_13  and  C_14
REMARK    5  A    between atoms: C_14  and  N_15
REMARK    6  A    between atoms: C_16  and  C_18
REMARK    7  A    between atoms: C_18  and  O_19
REMARK    8  A    between atoms: O_19  and  C_20
REMARK                            x       y       z     vdW  Elec       q    Type
REMARK                         _______ _______ _______ _____ _____    ______ ____
ROOT
ATOM      1  N   UNL     1      -6.215  -2.144  -1.067  0.00  0.00    -0.312 N 
ATOM      2  C   UNL     1      -7.333  -2.263  -1.812  0.00  0.00    +0.251 C 
ATOM      3  O   UNL     1      -7.424  -1.671  -2.867  0.00  0.00    -0.272 OA
ATOM      4  H   UNL     1      -6.142  -2.617  -0.224  0.00  0.00    +0.149 HD
ENDROOT
BRANCH   1   5
ATOM      5  C   UNL     1      -5.112  -1.300  -1.533  0.00  0.00    +0.115 C 
BRANCH   5   6
ATOM      6  C   UNL     1      -3.974  -1.340  -0.510  0.00  0.00    +0.093 C 
BRANCH   6   7
ATOM      7  S   UNL     1      -2.607  -0.295  -1.087  0.00  0.00    -0.125 S 
BRANCH   7  10
ATOM      8  C   UNL     1       0.005   1.499  -0.001  0.00  0.00    +0.036 C 
ATOM      9  C   UNL     1       0.013  -0.031  -0.019  0.00  0.00    +0.113 C 
ATOM     10  C   UNL     1      -1.403  -0.561   0.025  0.00  0.00    +0.016 C 
ATOM     11  C   UNL     1      -1.486  -1.317   1.190  0.00  0.00    +0.009 A 
ATOM     12  C   UNL     1      -2.539  -2.055   1.773  0.00  0.00    +0.011 A 
ATOM     13  C   UNL     1      -2.334  -2.712   2.944  0.00  0.00    +0.001 A 
ATOM     14  C   UNL     1      -1.099  -2.678   3.593  0.00  0.00    +0.002 A 
ATOM     15  C   UNL     1      -0.044  -1.989   3.090  0.00  0.00    +0.026 A 
ATOM     16  C   UNL     1      -0.183  -1.279   1.870  0.00  0.00    +0.044 A 
ATOM     17  N   UNL     1       0.676  -0.547   1.183  0.00  0.00    -0.377 N 
ATOM     18  H   UNL     1       1.598  -0.377   1.434  0.00  0.00    +0.160 HD
ENDBRANCH   7  10
ENDBRANCH   6   7
ENDBRANCH   5   6
ENDBRANCH   1   5
BRANCH   2  19
ATOM     19  C   UNL     1      -8.468  -3.130  -1.333  0.00  0.00    +0.324 C 
BRANCH  19  20
ATOM     20  O   UNL     1      -9.531  -3.094  -2.288  0.00  0.00    -0.483 OA
BRANCH  20  21
ATOM     21  C   UNL     1     -10.639  -3.828  -2.006  0.00  0.00    +0.122 A 
ATOM     22  C   UNL     1     -10.694  -4.566  -0.820  0.00  0.00    +0.046 A 
ATOM     23  C   UNL     1     -11.789  -5.311  -0.510  0.00  0.00    +0.012 A 
ATOM     24  C   UNL     1     -12.884  -5.341  -1.392  0.00  0.00    -0.018 A 
ATOM     25  C   UNL     1     -14.031  -6.099  -1.103  0.00  0.00    +0.008 A 
ATOM     26  C   UNL     1     -15.073  -6.106  -1.979  0.00  0.00    +0.001 A 
ATOM     27  C   UNL     1     -15.020  -5.370  -3.162  0.00  0.00    +0.001 A 
ATOM     28  C   UNL     1     -13.926  -4.625  -3.475  0.00  0.00    +0.008 A 
ATOM     29  C   UNL     1     -12.830  -4.593  -2.595  0.00  0.00    -0.014 A 
ATOM     30  C   UNL     1     -11.686  -3.831  -2.883  0.00  0.00    +0.054 A 
ENDBRANCH  20  21
ENDBRANCH  19  20
ENDBRANCH   2  19
TORSDOF 7
