REMARK  Name = ZINC16828578
REMARK  13 active torsions:
REMARK  status: ('A' for Active; 'I' for Inactive)
REMARK    1  A    between atoms: C_1  and  C_2
REMARK    2  A    between atoms: C_2  and  C_4
REMARK    3  A    between atoms: C_2  and  S_11
REMARK    4  A    between atoms: N_6  and  C_7
REMARK    5  A    between atoms: C_7  and  C_8
REMARK    6  A    between atoms: C_8  and  C_9
REMARK    7  A    between atoms: C_8  and  C_10
REMARK    8  A    between atoms: S_11  and  C_12
REMARK    9  A    between atoms: N_22  and  C_23
REMARK   10  A    between atoms: C_23  and  C_24
REMARK   11  A    between atoms: C_24  and  C_25
REMARK   12  A    between atoms: C_28  and  S_31
REMARK   13  A    between atoms: S_31  and  N_34
REMARK                            x       y       z     vdW  Elec       q    Type
REMARK                         _______ _______ _______ _____ _____    ______ ____
ROOT
ATOM      1  C   UNL     1       2.533  -0.042   1.241  0.00  0.00    +0.173 A 
ATOM      2  N   UNL     1       2.813   0.647   0.162  0.00  0.00    -0.223 NA
ATOM      3  C   UNL     1       4.057   1.108  -0.078  0.00  0.00    +0.079 A 
ATOM      4  C   UNL     1       4.356   1.844  -1.229  0.00  0.00    +0.028 A 
ATOM      5  C   UNL     1       5.630   2.293  -1.432  0.00  0.00    +0.002 A 
ATOM      6  C   UNL     1       6.637   2.029  -0.512  0.00  0.00    +0.001 A 
ATOM      7  C   UNL     1       6.375   1.312   0.623  0.00  0.00    +0.015 A 
ATOM      8  C   UNL     1       5.084   0.842   0.856  0.00  0.00    +0.065 A 
ATOM      9  C   UNL     1       4.745   0.068   2.058  0.00  0.00    +0.262 A 
ATOM     10  O   UNL     1       5.585  -0.193   2.899  0.00  0.00    -0.267 OA
ATOM     11  N   UNL     1       3.462  -0.340   2.197  0.00  0.00    -0.287 N 
ENDROOT
BRANCH   1  12
ATOM     12  S   UNL     1       0.879  -0.605   1.472  0.00  0.00    -0.075 S 
BRANCH  12  14
ATOM     13  C   UNL     1      -0.019   1.526   0.010  0.00  0.00    +0.029 C 
ATOM     14  C   UNL     1       0.002  -0.004   0.002  0.00  0.00    +0.137 C 
BRANCH  14  15
ATOM     15  C   UNL     1      -1.412  -0.526   0.013  0.00  0.00    +0.226 C 
ATOM     16  O   UNL     1      -1.939  -0.827   1.062  0.00  0.00    -0.275 OA
ATOM     17  N   UNL     1      -2.090  -0.657  -1.144  0.00  0.00    -0.314 N 
ATOM     18  H   UNL     1      -1.669  -0.416  -1.984  0.00  0.00    +0.149 HD
BRANCH  17  19
ATOM     19  C   UNL     1      -3.465  -1.164  -1.134  0.00  0.00    +0.107 C 
BRANCH  19  20
ATOM     20  C   UNL     1      -4.000  -1.215  -2.566  0.00  0.00    -0.000 C 
ATOM     21  C   UNL     1      -3.198  -2.237  -3.375  0.00  0.00    +0.009 C 
ATOM     22  C   UNL     1      -5.474  -1.625  -2.545  0.00  0.00    +0.009 C 
ENDBRANCH  19  20
ENDBRANCH  17  19
ENDBRANCH  14  15
ENDBRANCH  12  14
ENDBRANCH   1  12
BRANCH  11  23
ATOM     23  C   UNL     1       3.067  -1.110   3.379  0.00  0.00    +0.132 C 
BRANCH  23  24
ATOM     24  C   UNL     1       3.250  -2.603   3.099  0.00  0.00    +0.057 C 
BRANCH  24  25
ATOM     25  C   UNL     1       2.844  -3.396   4.315  0.00  0.00    -0.046 A 
ATOM     26  C   UNL     1       3.779  -3.695   5.289  0.00  0.00    +0.005 A 
ATOM     27  C   UNL     1       3.406  -4.421   6.404  0.00  0.00    +0.029 A 
ATOM     28  C   UNL     1       2.100  -4.849   6.546  0.00  0.00    +0.105 A 
ATOM     29  C   UNL     1       1.165  -4.549   5.573  0.00  0.00    +0.029 A 
ATOM     30  C   UNL     1       1.536  -3.819   4.459  0.00  0.00    +0.005 A 
BRANCH  28  31
ATOM     31  S   UNL     1       1.625  -5.777   7.967  0.00  0.00    +0.056 S 
ATOM     32  O   UNL     1       0.474  -6.524   7.599  0.00  0.00    -0.153 OA
ATOM     33  O   UNL     1       2.807  -6.391   8.463  0.00  0.00    -0.153 OA
BRANCH  31  34
ATOM     34  N   UNL     1       1.137  -4.692   9.119  0.00  0.00    -0.204 NA
ATOM     35  H   UNL     1       1.154  -3.741   8.928  0.00  0.00    +0.144 HD
ATOM     36  H   UNL     1       0.834  -5.008   9.985  0.00  0.00    +0.144 HD
ENDBRANCH  31  34
ENDBRANCH  28  31
ENDBRANCH  24  25
ENDBRANCH  23  24
ENDBRANCH  11  23
TORSDOF 10
