REMARK  Name = ZINC16044445
REMARK  12 active torsions:
REMARK  status: ('A' for Active; 'I' for Inactive)
REMARK    1  A    between atoms: C_1  and  C_2
REMARK    2  A    between atoms: C_5  and  S_8
REMARK    3  A    between atoms: S_8  and  N_11
REMARK    4  A    between atoms: N_11  and  C_12
REMARK    5  A    between atoms: C_12  and  C_14
REMARK    6  A    between atoms: C_12  and  C_18
REMARK    7  A    between atoms: C_14  and  C_15
REMARK    8  A    between atoms: C_15  and  C_16
REMARK    9  A    between atoms: C_15  and  C_17
REMARK   10  A    between atoms: N_20  and  C_21
REMARK   11  A    between atoms: C_25  and  S_27
REMARK   12  A    between atoms: S_27  and  N_30
REMARK                            x       y       z     vdW  Elec       q    Type
REMARK                         _______ _______ _______ _____ _____    ______ ____
ROOT
ATOM      1  C   UNL     1      -1.849   0.862   1.585  0.00  0.00    +0.163 C 
ENDROOT
BRANCH   1   2
ATOM      2  C   UNL     1      -2.411   1.538   2.809  0.00  0.00    +0.236 C 
ATOM      3  O   UNL     1      -2.766   0.875   3.760  0.00  0.00    -0.274 OA
ATOM      4  N   UNL     1      -2.521   2.881   2.846  0.00  0.00    -0.284 N 
ATOM      5  H   UNL     1      -2.304   3.408   2.060  0.00  0.00    +0.155 HD
BRANCH   4   6
ATOM      6  C   UNL     1      -2.948   3.516   4.017  0.00  0.00    +0.035 A 
ATOM      7  C   UNL     1      -2.598   2.998   5.257  0.00  0.00    +0.023 A 
ATOM      8  C   UNL     1      -3.020   3.627   6.412  0.00  0.00    +0.004 A 
ATOM      9  C   UNL     1      -3.792   4.772   6.334  0.00  0.00    +0.028 A 
ATOM     10  C   UNL     1      -4.142   5.291   5.101  0.00  0.00    +0.107 A 
ATOM     11  C   UNL     1      -3.718   4.669   3.943  0.00  0.00    +0.051 A 
BRANCH  10  12
ATOM     12  S   UNL     1      -5.125   6.750   5.008  0.00  0.00    +0.056 S 
ATOM     13  O   UNL     1      -5.772   6.723   3.743  0.00  0.00    -0.153 OA
ATOM     14  O   UNL     1      -5.845   6.834   6.230  0.00  0.00    -0.153 OA
BRANCH  12  15
ATOM     15  N   UNL     1      -4.086   8.039   4.981  0.00  0.00    -0.204 NA
ATOM     16  H   UNL     1      -3.128   7.891   5.015  0.00  0.00    +0.144 HD
ATOM     17  H   UNL     1      -4.435   8.943   4.930  0.00  0.00    +0.144 HD
ENDBRANCH  12  15
ENDBRANCH  10  12
ENDBRANCH   4   6
ENDBRANCH   1   2
BRANCH   1  18
ATOM     18  N   UNL     1      -1.835  -0.588   1.792  0.00  0.00    -0.178 NA
ATOM     19  H   UNL     1      -1.079  -1.008   2.232  0.00  0.00    +0.149 HD
BRANCH  18  20
ATOM     20  S   UNL     1      -3.108  -1.511   1.274  0.00  0.00    +0.059 S 
ATOM     21  O   UNL     1      -2.800  -2.856   1.614  0.00  0.00    -0.153 OA
ATOM     22  O   UNL     1      -4.290  -0.863   1.726  0.00  0.00    -0.153 OA
BRANCH  20  27
ATOM     23  C   UNL     1      -3.182  -1.230  -4.752  0.00  0.00    +0.044 C 
ATOM     24  C   UNL     1      -3.164  -1.300  -3.247  0.00  0.00    -0.050 A 
ATOM     25  C   UNL     1      -2.518  -2.345  -2.612  0.00  0.00    +0.005 A 
ATOM     26  C   UNL     1      -2.502  -2.409  -1.231  0.00  0.00    +0.029 A 
ATOM     27  C   UNL     1      -3.130  -1.429  -0.486  0.00  0.00    +0.105 A 
ATOM     28  C   UNL     1      -3.779  -0.387  -1.121  0.00  0.00    +0.029 A 
ATOM     29  C   UNL     1      -3.792  -0.320  -2.502  0.00  0.00    +0.005 A 
ENDBRANCH  20  27
ENDBRANCH  18  20
ENDBRANCH   1  18
BRANCH   1  30
ATOM     30  C   UNL     1      -0.421   1.356   1.340  0.00  0.00    +0.032 C 
BRANCH  30  31
ATOM     31  C   UNL     1       0.116   0.742   0.046  0.00  0.00    -0.015 C 
ATOM     32  C   UNL     1       1.589   1.118  -0.124  0.00  0.00    +0.007 C 
ATOM     33  C   UNL     1      -0.686   1.275  -1.143  0.00  0.00    +0.007 C 
ENDBRANCH  30  31
ENDBRANCH   1  30
TORSDOF 9
