REMARK  Name = ZINC43545256
REMARK  11 active torsions:
REMARK  status: ('A' for Active; 'I' for Inactive)
REMARK    1  A    between atoms: C_1  and  C_2
REMARK    2  A    between atoms: C_7  and  C_8
REMARK    3  A    between atoms: N_10  and  C_11
REMARK    4  A    between atoms: C_11  and  C_13
REMARK    5  A    between atoms: C_11  and  C_17
REMARK    6  A    between atoms: C_13  and  C_14
REMARK    7  A    between atoms: C_14  and  C_15
REMARK    8  A    between atoms: C_14  and  C_16
REMARK    9  A    between atoms: N_19  and  C_20
REMARK   10  A    between atoms: C_20  and  C_22
REMARK   11  A    between atoms: C_20  and  C_23
REMARK                            x       y       z     vdW  Elec       q    Type
REMARK                         _______ _______ _______ _____ _____    ______ ____
ROOT
ATOM      1  C   UNL     1       0.578   0.067   4.894  0.00  0.00    +0.159 C 
ENDROOT
BRANCH   1   4
ATOM      2  C   UNL     1       0.242   0.021   2.481  0.00  0.00    +0.245 C 
ATOM      3  O   UNL     1       0.135   1.232   2.503  0.00  0.00    -0.270 OA
ATOM      4  N   UNL     1       0.465  -0.656   3.625  0.00  0.00    -0.300 N 
ATOM      5  H   UNL     1       0.551  -1.622   3.607  0.00  0.00    +0.150 HD
BRANCH   2  12
ATOM      6  C   UNL     1      -0.511   1.452   0.082  0.00  0.00    +0.044 C 
ATOM      7  C   UNL     1      -0.234  -0.028   0.036  0.00  0.00    -0.038 A 
ATOM      8  C   UNL     1      -0.334  -0.714  -1.157  0.00  0.00    +0.004 A 
ATOM      9  C   UNL     1      -0.080  -2.073  -1.200  0.00  0.00    +0.000 A 
ATOM     10  C   UNL     1       0.275  -2.754  -0.049  0.00  0.00    +0.001 A 
ATOM     11  C   UNL     1       0.378  -2.080   1.150  0.00  0.00    +0.013 A 
ATOM     12  C   UNL     1       0.128  -0.708   1.200  0.00  0.00    +0.040 A 
ENDBRANCH   2  12
ENDBRANCH   1   4
BRANCH   1  13
ATOM     13  C   UNL     1       0.213  -0.854   6.030  0.00  0.00    +0.234 C 
ATOM     14  O   UNL     1      -0.110  -2.000   5.802  0.00  0.00    -0.274 OA
ATOM     15  N   UNL     1       0.245  -0.402   7.300  0.00  0.00    -0.307 N 
ATOM     16  H   UNL     1       0.504   0.515   7.482  0.00  0.00    +0.149 HD
BRANCH  15  17
ATOM     17  C   UNL     1      -0.110  -1.297   8.404  0.00  0.00    +0.107 C 
ATOM     18  C   UNL     1       1.119  -2.110   8.817  0.00  0.00    +0.033 C 
BRANCH  17  19
ATOM     19  C   UNL     1      -0.589  -0.481   9.577  0.00  0.00    +0.010 A 
ATOM     20  C   UNL     1      -1.608  -0.736  10.434  0.00  0.00    +0.013 A 
ATOM     21  C   UNL     1      -1.870   0.165  11.450  0.00  0.00    +0.008 A 
ATOM     22  C   UNL     1      -1.101   1.275  11.559  0.00  0.00    +0.045 A 
ATOM     23  S   UNL     1       0.042   1.067  10.203  0.00  0.00    -0.100 S 
ENDBRANCH  17  19
ENDBRANCH  15  17
ENDBRANCH   1  13
BRANCH   1  24
ATOM     24  C   UNL     1       2.016   0.556   5.076  0.00  0.00    +0.034 C 
BRANCH  24  25
ATOM     25  C   UNL     1       2.346   1.586   3.993  0.00  0.00    -0.015 C 
ATOM     26  C   UNL     1       1.469   2.825   4.184  0.00  0.00    +0.007 C 
ATOM     27  C   UNL     1       3.820   1.982   4.098  0.00  0.00    +0.007 C 
ENDBRANCH  24  25
ENDBRANCH   1  24
TORSDOF 7
