REMARK  Name = ZINC06319121
REMARK  7 active torsions:
REMARK  status: ('A' for Active; 'I' for Inactive)
REMARK    1  A    between atoms: C_1  and  C_2
REMARK    2  A    between atoms: C_2  and  O_3
REMARK    3  A    between atoms: O_3  and  C_4
REMARK    4  A    between atoms: C_6  and  C_11
REMARK    5  A    between atoms: C_9  and  O_10
REMARK    6  A    between atoms: N_12  and  N_13
REMARK    7  A    between atoms: N_15  and  C_23
REMARK                            x       y       z     vdW  Elec       q    Type
REMARK                         _______ _______ _______ _____ _____    ______ ____
ROOT
ATOM      1  C   UNL     1      -0.198  -4.958  -0.501  0.00  0.00    +0.143 C 
ATOM      2  N   UNL     1      -0.090  -6.252  -0.356  0.00  0.00    -0.155 NA
ENDROOT
BRANCH   2   3
ATOM      3  N   UNL     1      -0.593  -7.045  -1.241  0.00  0.00    -0.124 NA
ATOM      4  C   UNL     1      -0.484  -8.353  -1.094  0.00  0.00    +0.195 A 
ATOM      5  N   UNL     1      -0.940  -9.351  -1.916  0.00  0.00    -0.321 N 
ATOM      6  C   UNL     1      -0.723 -10.677  -1.583  0.00  0.00    +0.057 A 
ATOM      7  C   UNL     1      -1.120 -11.815  -2.306  0.00  0.00    +0.027 A 
ATOM      8  C   UNL     1      -0.833 -13.078  -1.847  0.00  0.00    +0.002 A 
ATOM      9  C   UNL     1      -0.144 -13.272  -0.662  0.00  0.00    +0.001 A 
ATOM     10  C   UNL     1       0.259 -12.170   0.071  0.00  0.00    +0.017 A 
ATOM     11  C   UNL     1      -0.028 -10.906  -0.387  0.00  0.00    +0.039 A 
ATOM     12  S   UNL     1       0.302  -9.270   0.221  0.00  0.00    -0.048 S 
ATOM     13  C   UNL     1      -1.658  -9.013  -3.147  0.00  0.00    +0.151 C 
ENDBRANCH   2   3
BRANCH   1  16
ATOM     14  C   UNL     1       0.802  -1.825   1.306  0.00  0.00    +0.162 A 
ATOM     15  C   UNL     1       0.261  -2.669   0.354  0.00  0.00    +0.059 A 
ATOM     16  C   UNL     1       0.376  -4.055   0.507  0.00  0.00    -0.002 A 
ATOM     17  C   UNL     1       1.037  -4.578   1.623  0.00  0.00    +0.013 A 
ATOM     18  C   UNL     1       1.573  -3.729   2.568  0.00  0.00    +0.050 A 
ATOM     19  C   UNL     1       1.464  -2.354   2.412  0.00  0.00    +0.158 A 
BRANCH  19  20
ATOM     20  O   UNL     1       1.999  -1.522   3.344  0.00  0.00    -0.503 OA
ATOM     21  H   UNL     1       1.393  -1.294   4.062  0.00  0.00    +0.292 HD
ENDBRANCH  19  20
BRANCH  14  22
ATOM     22  O   UNL     1       0.693  -0.477   1.160  0.00  0.00    -0.489 OA
BRANCH  22  24
ATOM     23  C   UNL     1      -0.019   1.526   0.010  0.00  0.00    +0.048 C 
ATOM     24  C   UNL     1       0.002  -0.004   0.002  0.00  0.00    +0.226 C 
ENDBRANCH  22  24
ENDBRANCH  14  22
ENDBRANCH   1  16
TORSDOF 5
