REMARK  Name = ZINC32503788
REMARK  10 active torsions:
REMARK  status: ('A' for Active; 'I' for Inactive)
REMARK    1  A    between atoms: C_1  and  C_2
REMARK    2  A    between atoms: C_2  and  C_3
REMARK    3  A    between atoms: C_2  and  C_4
REMARK    4  A    between atoms: C_2  and  O_5
REMARK    5  A    between atoms: O_5  and  C_6
REMARK    6  A    between atoms: N_8  and  C_9
REMARK    7  A    between atoms: C_9  and  C_10
REMARK    8  A    between atoms: C_10  and  N_12
REMARK    9  A    between atoms: N_14  and  C_25
REMARK   10  A    between atoms: C_25  and  C_26
REMARK                            x       y       z     vdW  Elec       q    Type
REMARK                         _______ _______ _______ _____ _____    ______ ____
ROOT
ATOM      1  N   UNL     1       6.468  -0.888  -4.912  0.00  0.00    -0.158 NA
ATOM      2  C   UNL     1       6.432  -1.194  -6.204  0.00  0.00    +0.150 C 
ATOM      3  N   UNL     1       5.339  -1.681  -6.924  0.00  0.00    -0.302 N 
ATOM      4  C   UNL     1       5.787  -2.577  -7.953  0.00  0.00    +0.111 C 
ATOM      5  C   UNL     1       4.900  -3.283  -8.955  0.00  0.00    +0.189 C 
ATOM      6  S   UNL     1       6.163  -3.762 -10.223  0.00  0.00    -0.028 S 
ATOM      7  O   UNL     1       5.801  -3.197 -11.476  0.00  0.00    -0.174 OA
ATOM      8  O   UNL     1       6.410  -5.158 -10.129  0.00  0.00    -0.174 OA
ATOM      9  C   UNL     1       7.623  -2.839  -9.543  0.00  0.00    +0.182 C 
ATOM     10  C   UNL     1       6.838  -1.742  -8.784  0.00  0.00    +0.097 C 
ATOM     11  S   UNL     1       7.700  -1.066  -7.320  0.00  0.00    -0.086 S 
ENDROOT
BRANCH   1  12
ATOM     12  C   UNL     1       5.366  -0.989  -4.173  0.00  0.00    +0.255 C 
ATOM     13  O   UNL     1       4.771  -2.048  -4.112  0.00  0.00    -0.272 OA
BRANCH  12  14
ATOM     14  C   UNL     1       4.856   0.208  -3.413  0.00  0.00    +0.205 C 
BRANCH  14  17
ATOM     15  C   UNL     1       2.894   0.824  -2.106  0.00  0.00    +0.401 C 
ATOM     16  O   UNL     1       3.391   1.919  -1.931  0.00  0.00    -0.226 OA
ATOM     17  N   UNL     1       3.547  -0.104  -2.834  0.00  0.00    -0.272 N 
ATOM     18  H   UNL     1       3.150  -0.978  -2.974  0.00  0.00    +0.153 HD
BRANCH  15  19
ATOM     19  O   UNL     1       1.691   0.538  -1.573  0.00  0.00    -0.445 OA
BRANCH  19  21
ATOM     20  C   UNL     1       0.831   2.793  -1.703  0.00  0.00    +0.055 C 
ATOM     21  C   UNL     1       1.056   1.569  -0.814  0.00  0.00    +0.107 C 
ATOM     22  C   UNL     1       1.948   1.954   0.368  0.00  0.00    +0.055 C 
ATOM     23  C   UNL     1      -0.290   1.062  -0.293  0.00  0.00    +0.055 C 
ENDBRANCH  19  21
ENDBRANCH  15  19
ENDBRANCH  14  17
ENDBRANCH  12  14
ENDBRANCH   1  12
BRANCH   3  24
ATOM     24  C   UNL     1       3.940  -1.331  -6.667  0.00  0.00    +0.143 C 
BRANCH  24  25
ATOM     25  C   UNL     1       3.720   0.125  -6.989  0.00  0.00    -0.012 A 
ATOM     26  C   UNL     1       3.384   1.012  -5.983  0.00  0.00    +0.006 A 
ATOM     27  C   UNL     1       3.182   2.347  -6.278  0.00  0.00    +0.000 A 
ATOM     28  C   UNL     1       3.316   2.796  -7.579  0.00  0.00    +0.001 A 
ATOM     29  C   UNL     1       3.651   1.910  -8.585  0.00  0.00    +0.020 A 
ATOM     30  C   UNL     1       3.859   0.575  -8.290  0.00  0.00    +0.046 A 
ATOM     31 CL   UNL     1       4.287  -0.538  -9.552  0.00  0.00    -0.083 Cl
ENDBRANCH  24  25
ENDBRANCH   3  24
TORSDOF 7
