REMARK  Name = ZINC48311204
REMARK  0 active torsions:
REMARK  status: ('A' for Active; 'I' for Inactive)
REMARK                            x       y       z     vdW  Elec       q    Type
REMARK                         _______ _______ _______ _____ _____    ______ ____
ROOT
ATOM      1  C   UNL     1       0.116   1.587   0.046  0.00  0.00    +0.021 A 
ATOM      2  C   UNL     1       0.719   1.353  -1.183  0.00  0.00    +0.025 A 
ATOM      3  C   UNL     1       1.892   0.621  -1.214  0.00  0.00    +0.081 A 
ATOM      4  C   UNL     1       2.426   0.147  -0.018  0.00  0.00    +0.140 A 
ATOM      5  N   UNL     1       1.821   0.392   1.133  0.00  0.00    -0.239 NA
ATOM      6  C   UNL     1       0.700   1.087   1.192  0.00  0.00    +0.113 A 
ATOM      7  N   UNL     1       3.605  -0.591  -0.034  0.00  0.00    -0.311 N 
ATOM      8  C   UNL     1       4.908   0.079   0.085  0.00  0.00    +0.125 C 
ATOM      9  C   UNL     1       5.671  -0.540   1.262  0.00  0.00    +0.125 C 
ATOM     10  N   UNL     1       5.637  -2.003   1.127  0.00  0.00    -0.312 N 
ATOM     11  C   UNL     1       4.334  -2.673   1.008  0.00  0.00    +0.125 C 
ATOM     12  C   UNL     1       3.570  -2.054  -0.164  0.00  0.00    +0.125 C 
ATOM     13  C   UNL     1       6.810  -2.736   1.111  0.00  0.00    +0.133 A 
ATOM     14  C   UNL     1       7.430  -3.130   2.330  0.00  0.00    +0.051 A 
ATOM     15  C   UNL     1       7.001  -2.865   3.704  0.00  0.00    -0.025 A 
ATOM     16  C   UNL     1       7.777  -3.356   4.692  0.00  0.00    -0.004 A 
ATOM     17  S   UNL     1       9.107  -4.188   3.866  0.00  0.00    -0.073 S 
ATOM     18  C   UNL     1       8.619  -3.874   2.190  0.00  0.00    +0.114 A 
ATOM     19  N   UNL     1       9.109  -4.175   1.003  0.00  0.00    -0.228 NA
ATOM     20  C   UNL     1       8.489  -3.781  -0.092  0.00  0.00    +0.224 A 
ATOM     21  N   UNL     1       7.367  -3.086  -0.037  0.00  0.00    -0.220 NA
ATOM     22  C   UNL     1       7.558  -3.222   6.168  0.00  0.00    +0.043 C 
ATOM     23  C   UNL     1       6.514  -2.123   6.407  0.00  0.00    +0.005 C 
ATOM     24  C   UNL     1       5.326  -2.363   5.470  0.00  0.00    +0.005 C 
ATOM     25  C   UNL     1       5.737  -2.073   4.026  0.00  0.00    +0.037 C 
ATOM     26 CL   UNL     1       2.688   0.297  -2.722  0.00  0.00    -0.080 Cl
ENDROOT
TORSDOF 0
