REMARK  Name = ZINC16480928
REMARK  6 active torsions:
REMARK  status: ('A' for Active; 'I' for Inactive)
REMARK    1  A    between atoms: C_4  and  C_7
REMARK    2  A    between atoms: C_7  and  C_8
REMARK    3  A    between atoms: C_10  and  C_16
REMARK    4  A    between atoms: C_11  and  O_15
REMARK    5  A    between atoms: N_17  and  C_18
REMARK    6  A    between atoms: C_21  and  N_24
REMARK                            x       y       z     vdW  Elec       q    Type
REMARK                         _______ _______ _______ _____ _____    ______ ____
ROOT
ATOM      1  C   UNL     1       4.141  -0.947   1.387  0.00  0.00    -0.041 A 
ATOM      2  C   UNL     1       4.926  -0.015   2.032  0.00  0.00    +0.017 A 
ATOM      3  C   UNL     1       5.360  -0.255   3.340  0.00  0.00    +0.036 A 
ATOM      4  C   UNL     1       4.990  -1.445   3.986  0.00  0.00    +0.139 A 
ATOM      5  C   UNL     1       4.200  -2.370   3.321  0.00  0.00    +0.060 A 
ATOM      6  C   UNL     1       3.774  -2.117   2.030  0.00  0.00    +0.023 A 
ATOM      7 BR   UNL     1       3.698  -3.976   4.184  0.00  0.00    -0.046 Br
ENDROOT
BRANCH   4   8
ATOM      8  O   UNL     1       5.405  -1.689   5.255  0.00  0.00    -0.505 OA
ATOM      9  H   UNL     1       4.800  -1.365   5.936  0.00  0.00    +0.292 HD
ENDBRANCH   4   8
BRANCH   3  10
ATOM     10  C   UNL     1       6.198   0.734   4.034  0.00  0.00    +0.123 C 
ATOM     11  N   UNL     1       6.600   0.507   5.253  0.00  0.00    -0.255 NA
BRANCH  11  12
ATOM     12  C   UNL     1       7.380   1.427   5.899  0.00  0.00    +0.064 A 
ATOM     13  C   UNL     1       8.455   2.023   5.235  0.00  0.00    +0.029 A 
ATOM     14  C   UNL     1       9.238   2.950   5.889  0.00  0.00    +0.025 A 
ATOM     15  C   UNL     1       8.960   3.291   7.208  0.00  0.00    +0.030 A 
ATOM     16  C   UNL     1       7.891   2.699   7.872  0.00  0.00    +0.025 A 
ATOM     17  C   UNL     1       7.100   1.776   7.223  0.00  0.00    +0.029 A 
BRANCH  15  18
ATOM     18  N   UNL     1       9.755   4.230   7.867  0.00  0.00    -0.333 N 
ATOM     19  C   UNL     1       9.412   4.696   9.219  0.00  0.00    +0.086 C 
ATOM     20  C   UNL     1      10.656   4.572  10.105  0.00  0.00    -0.063 C 
ATOM     21  N   UNL     1      11.774   5.291   9.482  0.00  0.00    +0.381 N 
ATOM     22  C   UNL     1      12.131   4.653   8.208  0.00  0.00    -0.063 C 
ATOM     23  C   UNL     1      10.963   4.777   7.230  0.00  0.00    +0.086 C 
ATOM     24  H   UNL     1      11.504   6.249   9.313  0.00  0.00    -0.086 HD
ATOM     25  H   UNL     1      12.571   5.273  10.100  0.00  0.00    -0.086 HD
ENDBRANCH  15  18
ENDBRANCH  11  12
ENDBRANCH   3  10
BRANCH   1  26
ATOM     26  C   UNL     1       3.675  -0.687  -0.022  0.00  0.00    +0.070 C 
BRANCH  26  30
ATOM     27  C   UNL     1      -0.064   1.376   0.070  0.00  0.00    +0.000 A 
ATOM     28  C   UNL     1       1.119   2.090   0.058  0.00  0.00    +0.000 A 
ATOM     29  C   UNL     1       2.329   1.423   0.028  0.00  0.00    +0.004 A 
ATOM     30  C   UNL     1       2.356   0.041   0.011  0.00  0.00    -0.043 A 
ATOM     31  C   UNL     1       1.172  -0.674   0.024  0.00  0.00    +0.004 A 
ATOM     32  C   UNL     1      -0.038  -0.006   0.053  0.00  0.00    +0.000 A 
ENDBRANCH  26  30
ENDBRANCH   1  26
TORSDOF 6
