REMARK  Name = ZINC03169665
REMARK  6 active torsions:
REMARK  status: ('A' for Active; 'I' for Inactive)
REMARK    1  A    between atoms: C_5  and  C_7
REMARK    2  A    between atoms: N_9  and  C_10
REMARK    3  A    between atoms: C_10  and  C_11
REMARK    4  A    between atoms: N_13  and  N_14
REMARK    5  A    between atoms: C_15  and  C_16
REMARK    6  A    between atoms: C_19  and  C_21
REMARK                            x       y       z     vdW  Elec       q    Type
REMARK                         _______ _______ _______ _____ _____    ______ ____
ROOT
ATOM      1  C   UNL     1       2.406   0.752  -0.017  0.00  0.00    +0.249 C 
ATOM      2  O   UNL     1       2.201  -0.444  -0.021  0.00  0.00    -0.272 OA
ATOM      3  N   UNL     1       3.671   1.218  -0.026  0.00  0.00    -0.206 N 
ATOM      4  H   UNL     1       3.857   2.303  -0.022  0.00  0.00    +0.177 HD
ENDROOT
BRANCH   3   5
ATOM      5  N   UNL     1       4.748   0.323  -0.042  0.00  0.00    -0.185 NA
ATOM      6  C   UNL     1       5.969   0.773  -0.051  0.00  0.00    +0.176 C 
BRANCH   6   7
ATOM      7  C   UNL     1       7.095  -0.163  -0.067  0.00  0.00    +0.148 A 
ATOM      8  C   UNL     1       8.429   0.177  -0.083  0.00  0.00    +0.051 A 
ATOM      9  C   UNL     1       9.152  -1.023  -0.090  0.00  0.00    +0.050 A 
ATOM     10  C   UNL     1       8.243  -2.039  -0.088  0.00  0.00    +0.137 A 
ATOM     11  O   UNL     1       7.005  -1.509  -0.073  0.00  0.00    -0.454 OA
BRANCH  10  12
ATOM     12  C   UNL     1       8.562  -3.480  -0.099  0.00  0.00    +0.037 A 
ATOM     13  C   UNL     1       7.964  -4.338   0.827  0.00  0.00    +0.033 A 
ATOM     14  C   UNL     1       8.267  -5.685   0.810  0.00  0.00    +0.042 A 
ATOM     15  C   UNL     1       9.162  -6.185  -0.121  0.00  0.00    +0.021 A 
ATOM     16  C   UNL     1       9.757  -5.341  -1.041  0.00  0.00    +0.022 A 
ATOM     17  C   UNL     1       9.460  -3.993  -1.040  0.00  0.00    +0.052 A 
ATOM     18 CL   UNL     1      10.203  -2.936  -2.199  0.00  0.00    -0.083 Cl
ATOM     19 CL   UNL     1       7.525  -6.753   1.959  0.00  0.00    -0.084 Cl
ENDBRANCH  10  12
ENDBRANCH   6   7
ENDBRANCH   3   5
BRANCH   1  20
ATOM     20  C   UNL     1       1.248   1.716  -0.001  0.00  0.00    +0.202 C 
BRANCH  20  23
ATOM     21  C   UNL     1      -1.187   1.624   0.017  0.00  0.00    +0.246 C 
ATOM     22  O   UNL     1      -1.204   2.839   0.023  0.00  0.00    -0.270 OA
ATOM     23  N   UNL     1      -0.011   0.966   0.007  0.00  0.00    -0.303 N 
ATOM     24  H   UNL     1       0.004  -0.134   0.006  0.00  0.00    +0.150 HD
BRANCH  21  29
ATOM     25  C   UNL     1      -3.630  -1.228   0.011  0.00  0.00    +0.001 A 
ATOM     26  C   UNL     1      -4.837  -0.550   0.021  0.00  0.00    +0.001 A 
ATOM     27  C   UNL     1      -4.860   0.833   0.029  0.00  0.00    +0.016 A 
ATOM     28  C   UNL     1      -3.678   1.546   0.028  0.00  0.00    +0.030 A 
ATOM     29  C   UNL     1      -2.457   0.868   0.018  0.00  0.00    +0.051 A 
ATOM     30  C   UNL     1      -2.442  -0.528   0.005  0.00  0.00    +0.014 A 
ATOM     31 BR   UNL     1      -3.711   3.437   0.038  0.00  0.00    -0.050 Br
ENDBRANCH  21  29
ENDBRANCH  20  23
ENDBRANCH   1  20
TORSDOF 6
