REMARK  Name = ZINC19893307
REMARK  8 active torsions:
REMARK  status: ('A' for Active; 'I' for Inactive)
REMARK    1  A    between atoms: C_1  and  C_2
REMARK    2  A    between atoms: C_2  and  O_3
REMARK    3  A    between atoms: O_3  and  C_4
REMARK    4  A    between atoms: C_6  and  C_11
REMARK    5  A    between atoms: C_9  and  O_10
REMARK    6  A    between atoms: N_12  and  N_13
REMARK    7  A    between atoms: C_14  and  C_16
REMARK    8  A    between atoms: C_18  and  C_26
REMARK                            x       y       z     vdW  Elec       q    Type
REMARK                         _______ _______ _______ _____ _____    ______ ____
ROOT
ATOM      1  N   UNL     1      -2.539   4.099   0.051  0.00  0.00    -0.203 N 
ATOM      2  C   UNL     1      -2.556   5.446   0.044  0.00  0.00    +0.264 C 
ATOM      3  O   UNL     1      -1.510   6.067   0.029  0.00  0.00    -0.268 OA
ATOM      4  H   UNL     1      -3.485   3.537   0.064  0.00  0.00    +0.178 HD
ENDROOT
BRANCH   2   5
ATOM      5  C   UNL     1      -3.845   6.170   0.054  0.00  0.00    +0.050 A 
ATOM      6  C   UNL     1      -5.053   5.494  -0.047  0.00  0.00    +0.042 A 
ATOM      7  C   UNL     1      -6.252   6.221  -0.033  0.00  0.00    +0.072 A 
ATOM      8  N   UNL     1      -6.278   7.533   0.073  0.00  0.00    -0.247 NA
ATOM      9  C   UNL     1      -5.166   8.263   0.175  0.00  0.00    +0.072 A 
ATOM     10  C   UNL     1      -3.899   7.627   0.177  0.00  0.00    +0.013 A 
ATOM     11  C   UNL     1      -2.734   8.396   0.278  0.00  0.00    +0.011 A 
ATOM     12  C   UNL     1      -2.830   9.752   0.386  0.00  0.00    +0.001 A 
ATOM     13  C   UNL     1      -4.073  10.382   0.390  0.00  0.00    +0.002 A 
ATOM     14  C   UNL     1      -5.224   9.664   0.288  0.00  0.00    +0.028 A 
BRANCH   7  15
ATOM     15  C   UNL     1      -7.536   5.487  -0.141  0.00  0.00    +0.000 A 
ATOM     16  C   UNL     1      -7.539   4.098  -0.261  0.00  0.00    +0.011 A 
ATOM     17  C   UNL     1      -8.736   3.419  -0.358  0.00  0.00    +0.020 A 
ATOM     18  C   UNL     1      -9.933   4.116  -0.345  0.00  0.00    +0.041 A 
ATOM     19  C   UNL     1      -9.935   5.496  -0.232  0.00  0.00    +0.020 A 
ATOM     20  C   UNL     1      -8.743   6.184  -0.130  0.00  0.00    +0.011 A 
ATOM     21 CL   UNL     1     -11.436   3.256  -0.473  0.00  0.00    -0.084 Cl
ENDBRANCH   7  15
ENDBRANCH   2   5
BRANCH   1  23
ATOM     22  C   UNL     1      -1.302   2.115   0.048  0.00  0.00    +0.138 C 
ATOM     23  N   UNL     1      -1.318   3.413   0.041  0.00  0.00    -0.187 NA
BRANCH  22  26
ATOM     24  C   UNL     1       1.210  -0.675   0.029  0.00  0.00    +0.162 A 
ATOM     25  C   UNL     1       0.002  -0.004   0.045  0.00  0.00    +0.059 A 
ATOM     26  C   UNL     1      -0.017   1.393   0.038  0.00  0.00    -0.002 A 
ATOM     27  C   UNL     1       1.186   2.105   0.015  0.00  0.00    +0.013 A 
ATOM     28  C   UNL     1       2.387   1.428   0.000  0.00  0.00    +0.050 A 
ATOM     29  C   UNL     1       2.405   0.041   0.007  0.00  0.00    +0.158 A 
BRANCH  29  30
ATOM     30  O   UNL     1       3.592  -0.622  -0.008  0.00  0.00    -0.503 OA
ATOM     31  H   UNL     1       4.537  -0.058  -0.026  0.00  0.00    +0.292 HD
ENDBRANCH  29  30
BRANCH  24  32
ATOM     32  O   UNL     1       1.233  -2.035   0.037  0.00  0.00    -0.489 OA
BRANCH  32  34
ATOM     33  C   UNL     1       0.196  -4.218   0.065  0.00  0.00    +0.048 C 
ATOM     34  C   UNL     1      -0.030  -2.705   0.060  0.00  0.00    +0.226 C 
ENDBRANCH  32  34
ENDBRANCH  24  32
ENDBRANCH  22  26
ENDBRANCH   1  23
TORSDOF 7
