REMARK  Name = ZINC12371156
REMARK  13 active torsions:
REMARK  status: ('A' for Active; 'I' for Inactive)
REMARK    1  A    between atoms: C_1  and  O_2
REMARK    2  A    between atoms: O_2  and  C_3
REMARK    3  A    between atoms: C_6  and  C_10
REMARK    4  A    between atoms: C_8  and  O_9
REMARK    5  A    between atoms: C_11  and  C_32
REMARK    6  A    between atoms: N_13  and  C_20
REMARK    7  A    between atoms: C_15  and  C_16
REMARK    8  A    between atoms: C_16  and  O_18
REMARK    9  A    between atoms: O_18  and  C_19
REMARK   10  A    between atoms: C_20  and  C_21
REMARK   11  A    between atoms: C_21  and  C_22
REMARK   12  A    between atoms: C_32  and  O_34
REMARK   13  A    between atoms: O_34  and  C_35
REMARK                            x       y       z     vdW  Elec       q    Type
REMARK                         _______ _______ _______ _____ _____    ______ ____
ROOT
ATOM      1  C   UNL     1      -2.492   2.792   3.022  0.00  0.00    +0.095 C 
ATOM      2  C   UNL     1      -2.562   1.340   2.642  0.00  0.00    +0.062 C 
ATOM      3  C   UNL     1      -1.689   0.800   1.775  0.00  0.00    +0.086 C 
ATOM      4  N   UNL     1      -0.698   1.558   1.213  0.00  0.00    -0.312 N 
ATOM      5  C   UNL     1      -0.342   2.753   1.776  0.00  0.00    +0.086 C 
ATOM      6  C   UNL     1      -1.162   3.378   2.640  0.00  0.00    +0.062 C 
ENDROOT
BRANCH   1  10
ATOM      7  C   UNL     1      -5.598   4.926   1.001  0.00  0.00    +0.161 A 
ATOM      8  C   UNL     1      -4.634   4.247   0.274  0.00  0.00    +0.050 A 
ATOM      9  C   UNL     1      -3.631   3.558   0.930  0.00  0.00    +0.008 A 
ATOM     10  C   UNL     1      -3.587   3.545   2.312  0.00  0.00    -0.031 A 
ATOM     11  C   UNL     1      -4.550   4.215   3.044  0.00  0.00    +0.053 A 
ATOM     12  C   UNL     1      -5.555   4.912   2.392  0.00  0.00    +0.159 A 
BRANCH   7  14
ATOM     13  C   UNL     1      -6.568   5.574  -1.071  0.00  0.00    +0.277 C 
ATOM     14  O   UNL     1      -6.586   5.604   0.357  0.00  0.00    -0.491 OA
ENDBRANCH   7  14
BRANCH  12  15
ATOM     15  O   UNL     1      -6.499   5.576   3.110  0.00  0.00    -0.503 OA
ATOM     16  H   UNL     1      -7.276   5.043   3.326  0.00  0.00    +0.292 HD
ENDBRANCH  12  15
ENDBRANCH   1  10
BRANCH   6  17
ATOM     17  C   UNL     1      -0.761   4.611   3.205  0.00  0.00    +0.337 C 
ATOM     18  O   UNL     1       0.313   5.097   2.905  0.00  0.00    -0.245 OA
BRANCH  17  19
ATOM     19  O   UNL     1      -1.570   5.248   4.078  0.00  0.00    -0.465 OA
ATOM     20  C   UNL     1      -1.102   6.489   4.609  0.00  0.00    +0.280 C 
ENDBRANCH  17  19
ENDBRANCH   6  17
BRANCH   2  21
ATOM     21  C   UNL     1      -3.569   0.525   3.209  0.00  0.00    +0.337 C 
ATOM     22  O   UNL     1      -3.638  -0.653   2.910  0.00  0.00    -0.245 OA
BRANCH  21  23
ATOM     23  O   UNL     1      -4.453   1.053   4.082  0.00  0.00    -0.465 OA
ATOM     24  C   UNL     1      -5.443   0.171   4.615  0.00  0.00    +0.280 C 
ENDBRANCH  21  23
ENDBRANCH   2  21
BRANCH   4  25
ATOM     25  C   UNL     1      -0.013   1.086   0.008  0.00  0.00    +0.110 C 
BRANCH  25  26
ATOM     26  C   UNL     1      -0.753   1.593  -1.232  0.00  0.00    +0.026 C 
BRANCH  26  27
ATOM     27  C   UNL     1      -0.037   1.099  -2.490  0.00  0.00    -0.027 C 
ATOM     28  C   UNL     1      -0.016  -0.431  -2.499  0.00  0.00    +0.010 C 
ATOM     29  C   UNL     1       0.700  -0.924  -3.757  0.00  0.00    -0.010 C 
ATOM     30  C   UNL     1      -0.040  -0.417  -4.997  0.00  0.00    +0.007 C 
ATOM     31  C   UNL     1      -0.060   1.113  -4.989  0.00  0.00    -0.010 C 
ATOM     32  C   UNL     1      -0.777   1.606  -3.730  0.00  0.00    +0.010 C 
ATOM     33  C   UNL     1       1.375   1.642  -5.000  0.00  0.00    +0.007 C 
ATOM     34  C   UNL     1       2.115   1.135  -3.760  0.00  0.00    -0.010 C 
ATOM     35  C   UNL     1       2.136  -0.394  -3.768  0.00  0.00    +0.007 C 
ATOM     36  C   UNL     1       1.399   1.629  -2.501  0.00  0.00    +0.010 C 
ENDBRANCH  26  27
ENDBRANCH  25  26
ENDBRANCH   4  25
TORSDOF 10
