REMARK  Name = ZINC38686397
REMARK  9 active torsions:
REMARK  status: ('A' for Active; 'I' for Inactive)
REMARK    1  A    between atoms: C_5  and  C_7
REMARK    2  A    between atoms: C_7  and  O_8
REMARK    3  A    between atoms: O_8  and  C_9
REMARK    4  A    between atoms: C_12  and  C_15
REMARK    5  A    between atoms: C_20  and  O_29
REMARK    6  A    between atoms: C_24  and  N_28
REMARK    7  A    between atoms: C_25  and  C_26
REMARK    8  A    between atoms: O_29  and  C_30
REMARK    9  A    between atoms: C_30  and  C_32
REMARK                            x       y       z     vdW  Elec       q    Type
REMARK                         _______ _______ _______ _____ _____    ______ ____
ROOT
ATOM      1  C   UNL     1      -0.735  -8.238  -0.074  0.00  0.00    +0.098 C 
ATOM      2  C   UNL     1      -1.509  -8.655  -1.296  0.00  0.00    +0.008 A 
ATOM      3  C   UNL     1      -0.901  -8.602  -2.538  0.00  0.00    +0.012 A 
ATOM      4  C   UNL     1      -1.596  -8.980  -3.670  0.00  0.00    +0.047 A 
ATOM      5  C   UNL     1      -2.909  -9.415  -3.564  0.00  0.00    +0.135 A 
ATOM      6  C   UNL     1      -3.521  -9.469  -2.323  0.00  0.00    +0.093 A 
ATOM      7  C   UNL     1      -2.821  -9.088  -1.185  0.00  0.00    +0.138 A 
ATOM      8  O   UNL     1      -3.434  -9.147   0.023  0.00  0.00    -0.441 OA
ATOM      9  C   UNL     1      -2.700  -9.165   1.147  0.00  0.00    +0.199 C 
ATOM     10  C   UNL     1      -1.415  -8.746   1.167  0.00  0.00    +0.098 C 
ENDROOT
BRANCH   1  14
ATOM     11  C   UNL     1      -0.517  -3.973   0.078  0.00  0.00    +0.121 A 
ATOM     12  C   UNL     1       0.646  -4.726   0.006  0.00  0.00    +0.046 A 
ATOM     13  C   UNL     1       0.573  -6.105  -0.043  0.00  0.00    +0.008 A 
ATOM     14  C   UNL     1      -0.658  -6.734  -0.020  0.00  0.00    -0.034 A 
ATOM     15  C   UNL     1      -1.819  -5.986   0.051  0.00  0.00    +0.008 A 
ATOM     16  C   UNL     1      -1.751  -4.607   0.106  0.00  0.00    +0.046 A 
BRANCH  11  17
ATOM     17  O   UNL     1      -0.448  -2.616   0.126  0.00  0.00    -0.487 OA
BRANCH  17  18
ATOM     18  C   UNL     1       0.856  -2.032   0.093  0.00  0.00    +0.267 C 
BRANCH  18  23
ATOM     19  C   UNL     1      -0.623   1.436   0.286  0.00  0.00    +0.001 A 
ATOM     20  C   UNL     1       0.513   2.224   0.268  0.00  0.00    +0.003 A 
ATOM     21  C   UNL     1       1.761   1.636   0.193  0.00  0.00    +0.039 A 
ATOM     22  C   UNL     1       1.873   0.257   0.136  0.00  0.00    +0.130 A 
ATOM     23  C   UNL     1       0.735  -0.531   0.155  0.00  0.00    +0.025 A 
ATOM     24  C   UNL     1      -0.512   0.060   0.230  0.00  0.00    +0.010 A 
ATOM     25  F   UNL     1       3.093  -0.320   0.063  0.00  0.00    -0.205 F 
ENDBRANCH  18  23
ENDBRANCH  17  18
ENDBRANCH  11  17
ENDBRANCH   1  14
BRANCH   9  26
ATOM     26  N   UNL     1      -3.271  -9.620   2.309  0.00  0.00    -0.328 N 
ATOM     27  H   UNL     1      -4.193  -9.922   2.311  0.00  0.00    +0.145 HD
ATOM     28  H   UNL     1      -2.753  -9.639   3.129  0.00  0.00    +0.145 HD
ENDBRANCH   9  26
BRANCH  10  29
ATOM     29  C   UNL     1      -0.686  -8.790   2.398  0.00  0.00    +0.101 C 
ATOM     30  N   UNL     1      -0.108  -8.825   3.376  0.00  0.00    -0.191 NA
ENDBRANCH  10  29
BRANCH   5  31
ATOM     31  O   UNL     1      -3.594  -9.787  -4.677  0.00  0.00    -0.422 OA
BRANCH  31  32
ATOM     32  C   UNL     1      -3.219 -10.921  -5.302  0.00  0.00    +0.344 C 
ATOM     33  O   UNL     1      -2.364 -11.630  -4.811  0.00  0.00    -0.245 OA
BRANCH  32  34
ATOM     34  C   UNL     1      -3.846 -11.300  -6.583  0.00  0.00    +0.060 A 
ATOM     35  C   UNL     1      -4.826 -10.483  -7.153  0.00  0.00    +0.018 A 
ATOM     36  C   UNL     1      -5.408 -10.842  -8.350  0.00  0.00    +0.039 A 
ATOM     37  C   UNL     1      -5.023 -12.011  -8.987  0.00  0.00    +0.123 A 
ATOM     38  C   UNL     1      -4.052 -12.826  -8.426  0.00  0.00    +0.039 A 
ATOM     39  C   UNL     1      -3.459 -12.474  -7.233  0.00  0.00    +0.018 A 
ATOM     40  F   UNL     1      -5.598 -12.359 -10.160  0.00  0.00    -0.205 F 
ENDBRANCH  32  34
ENDBRANCH  31  32
ENDBRANCH   5  31
TORSDOF 9
