REMARK  Name = ZINC14158319
REMARK  9 active torsions:
REMARK  status: ('A' for Active; 'I' for Inactive)
REMARK    1  A    between atoms: C_1  and  O_2
REMARK    2  A    between atoms: O_2  and  C_3
REMARK    3  A    between atoms: C_6  and  C_9
REMARK    4  A    between atoms: C_13  and  S_15
REMARK    5  A    between atoms: S_15  and  C_16
REMARK    6  A    between atoms: C_16  and  C_17
REMARK    7  A    between atoms: N_19  and  C_20
REMARK    8  A    between atoms: C_20  and  C_21
REMARK    9  A    between atoms: N_23  and  C_24
REMARK                            x       y       z     vdW  Elec       q    Type
REMARK                         _______ _______ _______ _____ _____    ______ ____
ROOT
ATOM      1  C   UNL     1       3.114  -6.853   4.939  0.00  0.00    +0.173 C 
ENDROOT
BRANCH   1   2
ATOM      2  C   UNL     1       3.393  -8.273   5.361  0.00  0.00    +0.224 C 
ATOM      3  O   UNL     1       4.003  -8.492   6.386  0.00  0.00    -0.275 OA
ATOM      4  N   UNL     1       2.963  -9.299   4.599  0.00  0.00    -0.306 N 
ATOM      5  H   UNL     1       2.475  -9.123   3.780  0.00  0.00    +0.149 HD
BRANCH   4   6
ATOM      6  C   UNL     1       3.234 -10.679   5.009  0.00  0.00    +0.200 C 
BRANCH   6   7
ATOM      7  C   UNL     1       2.653 -11.628   3.993  0.00  0.00    +0.234 C 
ATOM      8  O   UNL     1       2.070 -11.194   3.022  0.00  0.00    -0.274 OA
ATOM      9  N   UNL     1       2.781 -12.959   4.164  0.00  0.00    -0.283 N 
ATOM     10  H   UNL     1       3.303 -13.305   4.904  0.00  0.00    +0.155 HD
BRANCH   9  11
ATOM     11  C   UNL     1       2.161 -13.841   3.272  0.00  0.00    +0.047 A 
ATOM     12  C   UNL     1       2.052 -13.510   1.927  0.00  0.00    +0.024 A 
ATOM     13  C   UNL     1       1.440 -14.383   1.050  0.00  0.00    +0.002 A 
ATOM     14  C   UNL     1       0.936 -15.587   1.508  0.00  0.00    +0.001 A 
ATOM     15  C   UNL     1       1.042 -15.920   2.845  0.00  0.00    +0.017 A 
ATOM     16  C   UNL     1       1.659 -15.054   3.728  0.00  0.00    +0.039 A 
ATOM     17 BR   UNL     1       1.811 -15.514   5.556  0.00  0.00    -0.048 Br
ENDBRANCH   9  11
ENDBRANCH   6   7
ENDBRANCH   4   6
ENDBRANCH   1   2
BRANCH   1  18
ATOM     18  S   UNL     1       3.814  -5.711   6.162  0.00  0.00    -0.077 S 
BRANCH  18  23
ATOM     19  C   UNL     1       2.624  -2.540   4.263  0.00  0.00    +0.182 A 
ATOM     20  N   UNL     1       3.208  -1.931   5.271  0.00  0.00    -0.152 NA
ATOM     21  H   UNL     1       4.212  -2.801   6.938  0.00  0.00    +0.191 HD
ATOM     22  N   UNL     1       3.725  -2.933   6.109  0.00  0.00    -0.253 N 
ATOM     23  C   UNL     1       3.409  -4.115   5.535  0.00  0.00    +0.185 A 
ATOM     24  N   UNL     1       2.744  -3.865   4.428  0.00  0.00    -0.201 NA
BRANCH  19  28
ATOM     25  C   UNL     1       0.662  -0.619   1.014  0.00  0.00    +0.120 A 
ATOM     26  C   UNL     1       1.247   0.142   2.018  0.00  0.00    +0.046 A 
ATOM     27  C   UNL     1       1.884  -0.478   3.073  0.00  0.00    +0.015 A 
ATOM     28  C   UNL     1       1.940  -1.870   3.130  0.00  0.00    +0.021 A 
ATOM     29  C   UNL     1       1.352  -2.631   2.121  0.00  0.00    +0.015 A 
ATOM     30  C   UNL     1       0.712  -2.005   1.072  0.00  0.00    +0.046 A 
BRANCH  25  32
ATOM     31  C   UNL     1       0.022   1.424  -0.020  0.00  0.00    +0.277 C 
ATOM     32  O   UNL     1       0.036  -0.005  -0.023  0.00  0.00    -0.495 OA
ENDBRANCH  25  32
ENDBRANCH  19  28
ENDBRANCH  18  23
ENDBRANCH   1  18
TORSDOF 8
