REMARK  Name = ZINC14885376
REMARK  4 active torsions:
REMARK  status: ('A' for Active; 'I' for Inactive)
REMARK    1  A    between atoms: C_8  and  C_11
REMARK    2  A    between atoms: C_11  and  N_12
REMARK    3  A    between atoms: C_19  and  C_23
REMARK    4  A    between atoms: C_21  and  O_22
REMARK                            x       y       z     vdW  Elec       q    Type
REMARK                         _______ _______ _______ _____ _____    ______ ____
ROOT
ATOM      1  N   UNL     1       4.122  -3.740  -1.439  0.00  0.00    -0.289 NA
ATOM      2  C   UNL     1       2.930  -4.043  -2.225  0.00  0.00    +0.126 C 
ATOM      3  C   UNL     1       3.180  -4.072  -3.718  0.00  0.00    +0.244 C 
ATOM      4  O   UNL     1       4.064  -5.145  -4.064  0.00  0.00    -0.487 OA
ATOM      5  C   UNL     1       5.391  -4.862  -3.967  0.00  0.00    +0.166 A 
ATOM      6  C   UNL     1       5.964  -4.657  -2.725  0.00  0.00    +0.013 A 
ATOM      7  C   UNL     1       7.298  -4.336  -2.612  0.00  0.00    +0.019 A 
ATOM      8  C   UNL     1       8.085  -4.236  -3.762  0.00  0.00    +0.011 A 
ATOM      9  C   UNL     1       7.515  -4.461  -5.016  0.00  0.00    +0.059 A 
ATOM     10  C   UNL     1       6.171  -4.773  -5.119  0.00  0.00    +0.159 A 
ATOM     11  C   UNL     1       5.114  -4.821  -1.480  0.00  0.00    +0.124 C 
ENDROOT
BRANCH   8  12
ATOM     12  C   UNL     1       9.518  -3.893  -3.651  0.00  0.00    +0.110 A 
ATOM     13  N   UNL     1      10.228  -3.653  -2.569  0.00  0.00    -0.239 NA
ATOM     14  C   UNL     1      11.540  -3.349  -2.617  0.00  0.00    +0.079 A 
ATOM     15  C   UNL     1      12.413  -3.071  -1.538  0.00  0.00    +0.029 A 
ATOM     16  C   UNL     1      13.722  -2.778  -1.758  0.00  0.00    +0.002 A 
ATOM     17  C   UNL     1      14.255  -2.740  -3.039  0.00  0.00    +0.001 A 
ATOM     18  C   UNL     1      13.437  -3.005  -4.122  0.00  0.00    +0.017 A 
ATOM     19  C   UNL     1      12.113  -3.302  -3.910  0.00  0.00    +0.040 A 
ATOM     20  S   UNL     1      10.730  -3.704  -4.951  0.00  0.00    -0.067 S 
ENDBRANCH   8  12
BRANCH  10  21
ATOM     21  O   UNL     1       5.613  -4.991  -6.340  0.00  0.00    -0.503 OA
ATOM     22  H   UNL     1       5.258  -4.195  -6.758  0.00  0.00    +0.292 HD
ENDBRANCH  10  21
BRANCH   1  23
ATOM     23  C   UNL     1       3.768  -3.404  -0.053  0.00  0.00    +0.138 C 
BRANCH  23  31
ATOM     24  C   UNL     1      -0.017   1.362   0.009  0.00  0.00    +0.001 A 
ATOM     25  C   UNL     1       1.170   2.083   0.002  0.00  0.00    +0.002 A 
ATOM     26  C   UNL     1       2.386   1.436  -0.013  0.00  0.00    +0.026 A 
ATOM     27  C   UNL     1       2.428   0.046  -0.021  0.00  0.00    +0.047 A 
ATOM     28  C   UNL     1       1.223  -0.681  -0.013  0.00  0.00    -0.000 A 
ATOM     29  C   UNL     1       0.002  -0.004   0.002  0.00  0.00    +0.010 A 
ATOM     30  C   UNL     1       1.604  -2.095  -0.025  0.00  0.00    +0.032 A 
ATOM     31  C   UNL     1       2.945  -2.141  -0.038  0.00  0.00    +0.031 A 
ATOM     32  N   UNL     1       3.455  -0.871  -0.036  0.00  0.00    -0.357 N 
ATOM     33  H   UNL     1       4.399  -0.650  -0.044  0.00  0.00    +0.166 HD
ENDBRANCH  23  31
ENDBRANCH   1  23
TORSDOF 4
