REMARK  Name = ZINC67205136
REMARK  10 active torsions:
REMARK  status: ('A' for Active; 'I' for Inactive)
REMARK    1  A    between atoms: C_1  and  C_2
REMARK    2  A    between atoms: C_2  and  O_3
REMARK    3  A    between atoms: O_3  and  C_4
REMARK    4  A    between atoms: C_4  and  C_6
REMARK    5  A    between atoms: C_7  and  C_21
REMARK    6  A    between atoms: C_12  and  C_14
REMARK    7  A    between atoms: C_21  and  N_22
REMARK    8  A    between atoms: N_25  and  C_28
REMARK    9  A    between atoms: C_31  and  O_34
REMARK   10  A    between atoms: O_34  and  C_35
REMARK                            x       y       z     vdW  Elec       q    Type
REMARK                         _______ _______ _______ _____ _____    ______ ____
ROOT
ATOM      1  C   UNL     1       1.507  -2.367   2.374  0.00  0.00    +0.079 C 
ATOM      2  C   UNL     1       1.491  -3.691   2.640  0.00  0.00    +0.038 C 
ATOM      3  N   UNL     1       2.078  -4.191   3.767  0.00  0.00    -0.271 N 
ATOM      4  C   UNL     1       2.700  -3.433   4.679  0.00  0.00    +0.304 C 
ATOM      5  O   UNL     1       3.193  -3.970   5.652  0.00  0.00    -0.252 OA
ATOM      6  N   UNL     1       2.798  -2.095   4.553  0.00  0.00    -0.288 N 
ATOM      7  C   UNL     1       2.203  -1.457   3.366  0.00  0.00    +0.144 C 
ATOM      8  H   UNL     1       2.041  -5.149   3.916  0.00  0.00    +0.156 HD
ATOM      9  H   UNL     1       3.253  -1.565   5.226  0.00  0.00    +0.151 HD
ENDROOT
BRANCH   7  10
ATOM     10  C   UNL     1       1.200  -0.440   3.846  0.00  0.00    -0.021 A 
ATOM     11  C   UNL     1       0.287  -0.779   4.828  0.00  0.00    +0.006 A 
ATOM     12  C   UNL     1      -0.633   0.153   5.269  0.00  0.00    +0.002 A 
ATOM     13  C   UNL     1      -0.642   1.425   4.728  0.00  0.00    +0.020 A 
ATOM     14  C   UNL     1       0.271   1.765   3.745  0.00  0.00    +0.041 A 
ATOM     15  C   UNL     1       1.196   0.833   3.309  0.00  0.00    +0.025 A 
ATOM     16 CL   UNL     1       0.260   3.362   3.065  0.00  0.00    -0.084 Cl
ENDBRANCH   7  10
BRANCH   1  17
ATOM     17  C   UNL     1       0.901  -1.848   1.207  0.00  0.00    +0.339 C 
ATOM     18  O   UNL     1       1.590  -1.490   0.271  0.00  0.00    -0.245 OA
BRANCH  17  19
ATOM     19  O   UNL     1      -0.443  -1.750   1.131  0.00  0.00    -0.462 OA
BRANCH  19  21
ATOM     20  C   UNL     1      -2.514  -1.183   0.022  0.00  0.00    +0.048 C 
ATOM     21  C   UNL     1      -0.988  -1.217  -0.078  0.00  0.00    +0.229 C 
ENDBRANCH  19  21
ENDBRANCH  17  19
ENDBRANCH   1  17
BRANCH   2  22
ATOM     22  C   UNL     1       0.815  -4.632   1.676  0.00  0.00    +0.136 C 
BRANCH  22  23
ATOM     23  N   UNL     1       1.812  -5.543   1.099  0.00  0.00    -0.294 NA
ATOM     24  C   UNL     1       2.775  -4.810   0.266  0.00  0.00    +0.103 C 
ATOM     25  C   UNL     1       3.897  -5.760  -0.167  0.00  0.00    +0.120 C 
ATOM     26  N   UNL     1       3.292  -6.938  -0.806  0.00  0.00    -0.327 N 
ATOM     27  C   UNL     1       2.221  -7.646  -0.088  0.00  0.00    +0.120 C 
ATOM     28  C   UNL     1       1.164  -6.622   0.342  0.00  0.00    +0.103 C 
BRANCH  26  29
ATOM     29  C   UNL     1       3.723  -7.374  -2.064  0.00  0.00    +0.030 A 
ATOM     30  C   UNL     1       4.816  -6.771  -2.671  0.00  0.00    +0.027 A 
ATOM     31  C   UNL     1       5.241  -7.202  -3.912  0.00  0.00    +0.047 A 
ATOM     32  C   UNL     1       4.577  -8.238  -4.552  0.00  0.00    +0.120 A 
ATOM     33  C   UNL     1       3.485  -8.841  -3.946  0.00  0.00    +0.047 A 
ATOM     34  C   UNL     1       3.062  -8.415  -2.703  0.00  0.00    +0.027 A 
BRANCH  32  35
ATOM     35  O   UNL     1       4.997  -8.662  -5.774  0.00  0.00    -0.495 OA
ATOM     36  C   UNL     1       4.266  -9.734  -6.375  0.00  0.00    +0.277 C 
ENDBRANCH  32  35
ENDBRANCH  26  29
ENDBRANCH  22  23
ENDBRANCH   2  22
TORSDOF 8
