REMARK  Name = ZINC64892819
REMARK  6 active torsions:
REMARK  status: ('A' for Active; 'I' for Inactive)
REMARK    1  A    between atoms: C_1  and  C_2
REMARK    2  A    between atoms: C_2  and  C_21
REMARK    3  A    between atoms: N_14  and  C_15
REMARK    4  A    between atoms: C_15  and  C_16
REMARK    5  A    between atoms: N_23  and  C_24
REMARK    6  A    between atoms: C_24  and  C_25
REMARK                            x       y       z     vdW  Elec       q    Type
REMARK                         _______ _______ _______ _____ _____    ______ ____
ROOT
ATOM      1  C   UNL     1      -0.427   1.049   0.172  0.00  0.00    +0.043 C 
ATOM      2  C   UNL     1      -0.061  -0.435   0.105  0.00  0.00    +0.129 C 
ATOM      3  C   UNL     1       0.544  -0.733  -1.266  0.00  0.00    +0.158 C 
ATOM      4  N   UNL     1       1.157  -2.066  -1.243  0.00  0.00    -0.328 N 
ATOM      5  C   UNL     1       1.692  -2.602  -0.070  0.00  0.00    +0.106 A 
ATOM      6  C   UNL     1       2.207  -3.818  -0.341  0.00  0.00    +0.041 A 
ATOM      7  C   UNL     1       1.989  -4.091  -1.727  0.00  0.00    +0.008 A 
ATOM      8  C   UNL     1       1.329  -2.963  -2.232  0.00  0.00    +0.088 A 
ATOM      9  S   UNL     1       1.083  -3.365  -3.944  0.00  0.00    -0.079 S 
ATOM     10  C   UNL     1       1.846  -4.976  -3.966  0.00  0.00    +0.048 A 
ATOM     11  C   UNL     1       2.247  -5.145  -2.699  0.00  0.00    +0.017 A 
ATOM     12  C   UNL     1       1.623  -1.857   1.194  0.00  0.00    +0.264 C 
ATOM     13  O   UNL     1       2.229  -2.221   2.185  0.00  0.00    -0.268 OA
ATOM     14  N   UNL     1       0.852  -0.746   1.199  0.00  0.00    -0.273 N 
ENDROOT
BRANCH   2  15
ATOM     15  C   UNL     1      -1.316  -1.254   0.270  0.00  0.00    +0.238 C 
ATOM     16  O   UNL     1      -2.390  -0.787  -0.047  0.00  0.00    -0.273 OA
ATOM     17  N   UNL     1      -1.244  -2.503   0.769  0.00  0.00    -0.309 N 
ATOM     18  H   UNL     1      -0.380  -2.903   0.954  0.00  0.00    +0.149 HD
BRANCH  17  19
ATOM     19  C   UNL     1      -2.472  -3.258   1.033  0.00  0.00    +0.139 C 
BRANCH  19  20
ATOM     20  C   UNL     1      -2.119  -4.615   1.584  0.00  0.00    -0.030 A 
ATOM     21  C   UNL     1      -1.918  -5.679   0.724  0.00  0.00    +0.006 A 
ATOM     22  C   UNL     1      -1.594  -6.924   1.228  0.00  0.00    +0.020 A 
ATOM     23  C   UNL     1      -1.471  -7.106   2.594  0.00  0.00    +0.041 A 
ATOM     24  C   UNL     1      -1.672  -6.042   3.454  0.00  0.00    +0.020 A 
ATOM     25  C   UNL     1      -1.990  -4.795   2.948  0.00  0.00    +0.006 A 
ATOM     26 CL   UNL     1      -1.064  -8.670   3.229  0.00  0.00    -0.084 Cl
ENDBRANCH  19  20
ENDBRANCH  17  19
ENDBRANCH   2  15
BRANCH  14  27
ATOM     27  C   UNL     1       0.935   0.172   2.337  0.00  0.00    +0.183 C 
BRANCH  27  28
ATOM     28  C   UNL     1      -0.149  -0.159   3.330  0.00  0.00    +0.122 A 
ATOM     29  C   UNL     1      -0.058  -1.062   4.323  0.00  0.00    +0.046 A 
ATOM     30  C   UNL     1      -1.296  -1.048   5.005  0.00  0.00    +0.041 A 
ATOM     31  C   UNL     1      -2.071  -0.138   4.388  0.00  0.00    +0.195 A 
ATOM     32  O   UNL     1      -1.369   0.402   3.378  0.00  0.00    -0.466 OA
ENDBRANCH  27  28
ENDBRANCH  14  27
TORSDOF 5
