REMARK  Name = ZINC12455801
REMARK  11 active torsions:
REMARK  status: ('A' for Active; 'I' for Inactive)
REMARK    1  A    between atoms: C_1  and  C_2
REMARK    2  A    between atoms: N_7  and  C_10
REMARK    3  A    between atoms: C_11  and  C_23
REMARK    4  A    between atoms: C_14  and  O_21
REMARK    5  A    between atoms: C_17  and  O_19
REMARK    6  A    between atoms: O_19  and  C_20
REMARK    7  A    between atoms: O_21  and  C_22
REMARK    8  A    between atoms: C_23  and  N_24
REMARK    9  A    between atoms: N_24  and  C_25
REMARK   10  A    between atoms: C_25  and  C_26
REMARK   11  A    between atoms: C_32  and  C_34
REMARK                            x       y       z     vdW  Elec       q    Type
REMARK                         _______ _______ _______ _____ _____    ______ ____
ROOT
ATOM      1  C   UNL     1      -1.042   5.357  -0.597  0.00  0.00    +0.104 A 
ATOM      2  C   UNL     1      -2.390   4.981  -0.671  0.00  0.00    +0.009 A 
ATOM      3  C   UNL     1      -2.721   3.666  -0.808  0.00  0.00    +0.022 A 
ATOM      4  C   UNL     1      -1.681   2.718  -0.870  0.00  0.00    +0.044 A 
ATOM      5  C   UNL     1      -1.953   1.344  -1.016  0.00  0.00    +0.129 A 
ATOM      6  C   UNL     1      -0.909   0.448  -1.067  0.00  0.00    +0.050 A 
ATOM      7  C   UNL     1       0.409   0.887  -0.987  0.00  0.00    +0.051 A 
ATOM      8  C   UNL     1       0.702   2.214  -0.851  0.00  0.00    +0.144 A 
ATOM      9  C   UNL     1      -0.339   3.161  -0.789  0.00  0.00    +0.093 A 
ATOM     10  N   UNL     1      -0.001   4.490  -0.651  0.00  0.00    -0.340 N 
ATOM     11  H   UNL     1       0.975   4.803  -0.594  0.00  0.00    +0.167 HD
ENDROOT
BRANCH   1  18
ATOM     12  C   UNL     1       2.705   9.994   0.954  0.00  0.00    +0.109 C 
ATOM     13  C   UNL     1       1.904   9.813  -0.310  0.00  0.00    +0.213 C 
ATOM     14  O   UNL     1       2.242  10.378  -1.328  0.00  0.00    -0.276 OA
ATOM     15  N   UNL     1       0.813   9.022  -0.309  0.00  0.00    -0.299 N 
ATOM     16  C   UNL     1       0.316   8.423   0.939  0.00  0.00    +0.126 C 
ATOM     17  C   UNL     1       0.133   6.918   0.718  0.00  0.00    +0.125 C 
ATOM     18  N   UNL     1      -0.720   6.700  -0.459  0.00  0.00    -0.313 N 
ATOM     19  C   UNL     1      -0.087   7.218  -1.679  0.00  0.00    +0.125 C 
ATOM     20  C   UNL     1       0.087   8.735  -1.556  0.00  0.00    +0.126 C 
ENDBRANCH   1  18
BRANCH   8  21
ATOM     21  O   UNL     1       1.998   2.620  -0.775  0.00  0.00    -0.493 OA
ATOM     22  C   UNL     1       3.001   1.606  -0.845  0.00  0.00    +0.277 C 
ENDBRANCH   8  21
BRANCH   5  23
ATOM     23  O   UNL     1      -3.236   0.906  -1.101  0.00  0.00    -0.494 OA
ATOM     24  C   UNL     1      -3.433  -0.503  -1.243  0.00  0.00    +0.277 C 
ENDBRANCH   5  23
BRANCH   2  25
ATOM     25  C   UNL     1      -3.472   6.028  -0.601  0.00  0.00    +0.146 C 
BRANCH  25  26
ATOM     26  N   UNL     1      -4.776   5.399  -0.822  0.00  0.00    -0.294 N 
ATOM     27  C   UNL     1      -5.242   5.238  -2.077  0.00  0.00    +0.219 C 
ATOM     28  O   UNL     1      -6.280   4.639  -2.266  0.00  0.00    -0.275 OA
BRANCH  27  29
ATOM     29  C   UNL     1      -4.474   5.803  -3.244  0.00  0.00    +0.075 C 
ATOM     30  C   UNL     1      -4.502   7.331  -3.182  0.00  0.00    +0.013 C 
ATOM     31  C   UNL     1      -3.723   7.904  -4.367  0.00  0.00    +0.001 C 
ATOM     32  C   UNL     1      -4.364   7.436  -5.674  0.00  0.00    +0.000 C 
ATOM     33  C   UNL     1      -4.337   5.907  -5.737  0.00  0.00    +0.001 C 
ATOM     34  C   UNL     1      -5.116   5.334  -4.551  0.00  0.00    +0.013 C 
ENDBRANCH  27  29
BRANCH  26  35
ATOM     35  C   UNL     1      -5.574   4.944   0.319  0.00  0.00    +0.139 C 
BRANCH  35  36
ATOM     36  C   UNL     1      -6.576   6.034   0.707  0.00  0.00    +0.136 C 
ATOM     37  C   UNL     1      -7.420   5.565   1.908  0.00  0.00    +0.035 C 
ATOM     38  C   UNL     1      -7.158   6.634   2.997  0.00  0.00    +0.031 C 
ATOM     39  C   UNL     1      -6.661   7.838   2.156  0.00  0.00    +0.160 C 
ATOM     40  O   UNL     1      -5.874   7.220   1.115  0.00  0.00    -0.375 OA
ENDBRANCH  35  36
ENDBRANCH  26  35
ENDBRANCH  25  26
ENDBRANCH   2  25
TORSDOF 8
