REMARK  Name = ZINC08702117
REMARK  6 active torsions:
REMARK  status: ('A' for Active; 'I' for Inactive)
REMARK    1  A    between atoms: C_1  and  C_2
REMARK    2  A    between atoms: C_3  and  C_11
REMARK    3  A    between atoms: C_7  and  N_8
REMARK    4  A    between atoms: C_15  and  C_20
REMARK    5  A    between atoms: C_20  and  C_21
REMARK    6  A    between atoms: C_20  and  C_22
REMARK                            x       y       z     vdW  Elec       q    Type
REMARK                         _______ _______ _______ _____ _____    ______ ____
ROOT
ATOM      1  C   UNL     1      -3.979   3.759  -1.966  0.00  0.00    +0.046 C 
ATOM      2  C   UNL     1      -3.181   3.010  -0.929  0.00  0.00    -0.015 A 
ATOM      3  C   UNL     1      -2.329   3.703  -0.068  0.00  0.00    +0.056 A 
ATOM      4  C   UNL     1      -1.588   3.002   0.887  0.00  0.00    +0.032 A 
ATOM      5  C   UNL     1      -1.704   1.629   0.978  0.00  0.00    +0.033 A 
ATOM      6  C   UNL     1      -2.552   0.944   0.128  0.00  0.00    +0.040 A 
ATOM      7  C   UNL     1      -3.294   1.633  -0.826  0.00  0.00    +0.042 A 
ATOM      8 BR   UNL     1      -2.704  -0.936   0.261  0.00  0.00    -0.048 Br
ATOM      9 BR   UNL     1      -0.427   3.933   2.053  0.00  0.00    -0.049 Br
ENDROOT
BRANCH   3  10
ATOM     10  C   UNL     1      -2.207   5.172  -0.168  0.00  0.00    +0.230 A 
ATOM     11  N   UNL     1      -3.214   6.006  -0.234  0.00  0.00    -0.209 NA
ATOM     12  C   UNL     1      -2.729   7.271  -0.317  0.00  0.00    +0.110 A 
ATOM     13  C   UNL     1      -3.328   8.530  -0.408  0.00  0.00    +0.035 A 
ATOM     14  C   UNL     1      -2.540   9.657  -0.479  0.00  0.00    -0.043 A 
ATOM     15  C   UNL     1      -1.157   9.550  -0.459  0.00  0.00    +0.007 A 
ATOM     16  C   UNL     1      -0.552   8.314  -0.370  0.00  0.00    +0.049 A 
ATOM     17  C   UNL     1      -1.329   7.168  -0.298  0.00  0.00    +0.156 A 
ATOM     18  O   UNL     1      -1.044   5.850  -0.200  0.00  0.00    -0.435 OA
BRANCH  14  19
ATOM     19  C   UNL     1      -3.185  11.016  -0.577  0.00  0.00    +0.013 C 
ATOM     20  C   UNL     1      -2.761  11.869   0.620  0.00  0.00    +0.012 C 
ATOM     21  C   UNL     1      -2.741  11.698  -1.872  0.00  0.00    +0.012 C 
ENDBRANCH  14  19
ENDBRANCH   3  10
BRANCH   7  22
ATOM     22  N   UNL     1      -4.150   0.936  -1.684  0.00  0.00    -0.357 N 
ATOM     23  H   UNL     1      -4.226  -0.028  -1.614  0.00  0.00    +0.142 HD
ATOM     24  H   UNL     1      -4.670   1.417  -2.346  0.00  0.00    +0.142 HD
ENDBRANCH   7  22
TORSDOF 3
