REMARK  Name = ZINC04171777
REMARK  6 active torsions:
REMARK  status: ('A' for Active; 'I' for Inactive)
REMARK    1  A    between atoms: C_1  and  C_2
REMARK    2  A    between atoms: C_5  and  C_8
REMARK    3  A    between atoms: N_16  and  C_19
REMARK    4  A    between atoms: C_19  and  C_20
REMARK    5  A    between atoms: C_19  and  C_21
REMARK    6  A    between atoms: N_23  and  C_24
REMARK                            x       y       z     vdW  Elec       q    Type
REMARK                         _______ _______ _______ _____ _____    ______ ____
ROOT
ATOM      1  C   UNL     1       0.059  -4.275  -0.021  0.00  0.00    +0.157 C 
ATOM      2  C   UNL     1       1.462  -4.795   0.268  0.00  0.00    +0.145 C 
ATOM      3  C   UNL     1       1.035  -6.129   0.992  0.00  0.00    +0.249 C 
ATOM      4  C   UNL     1       2.258  -6.903   0.918  0.00  0.00    +0.254 C 
ATOM      5  O   UNL     1       2.671  -7.704   1.729  0.00  0.00    -0.272 OA
ATOM      6  N   UNL     1       2.846  -6.538  -0.265  0.00  0.00    -0.237 N 
ATOM      7  C   UNL     1       2.288  -5.407  -0.820  0.00  0.00    +0.231 C 
ATOM      8  O   UNL     1       2.426  -4.992  -1.950  0.00  0.00    -0.275 OA
ATOM      9  O   UNL     1       0.102  -5.699   1.894  0.00  0.00    -0.257 OA
ATOM     10  N   UNL     1      -0.757  -4.817   1.103  0.00  0.00    -0.244 N 
ENDROOT
BRANCH   1  15
ATOM     11  C   UNL     1      -0.018   1.503   0.010  0.00  0.00    +0.044 C 
ATOM     12  C   UNL     1       0.002  -0.004   0.002  0.00  0.00    -0.050 A 
ATOM     13  C   UNL     1       0.006  -0.689  -1.199  0.00  0.00    +0.004 A 
ATOM     14  C   UNL     1       0.025  -2.071  -1.206  0.00  0.00    +0.006 A 
ATOM     15  C   UNL     1       0.040  -2.768  -0.013  0.00  0.00    -0.022 A 
ATOM     16  C   UNL     1       0.037  -2.084   1.188  0.00  0.00    +0.006 A 
ATOM     17  C   UNL     1       0.023  -0.702   1.195  0.00  0.00    +0.004 A 
ENDBRANCH   1  15
BRANCH  10  18
ATOM     18  C   UNL     1      -2.099  -4.524   1.360  0.00  0.00    +0.065 A 
ATOM     19  C   UNL     1      -2.794  -3.660   0.524  0.00  0.00    +0.029 A 
ATOM     20  C   UNL     1      -4.121  -3.372   0.779  0.00  0.00    +0.022 A 
ATOM     21  C   UNL     1      -4.757  -3.944   1.867  0.00  0.00    +0.041 A 
ATOM     22  C   UNL     1      -4.066  -4.805   2.702  0.00  0.00    +0.022 A 
ATOM     23  C   UNL     1      -2.741  -5.101   2.448  0.00  0.00    +0.029 A 
ATOM     24 CL   UNL     1      -6.424  -3.579   2.186  0.00  0.00    -0.084 Cl
ENDBRANCH  10  18
BRANCH   6  25
ATOM     25  C   UNL     1       3.963  -7.265  -0.873  0.00  0.00    +0.078 C 
ATOM     26  C   UNL     1       5.154  -7.268   0.088  0.00  0.00    +0.028 C 
ATOM     27  C   UNL     1       3.538  -8.707  -1.161  0.00  0.00    +0.028 C 
ENDBRANCH   6  25
TORSDOF 3
