REMARK  Name = ZINC22791271
REMARK  10 active torsions:
REMARK  status: ('A' for Active; 'I' for Inactive)
REMARK    1  A    between atoms: C_1  and  C_2
REMARK    2  A    between atoms: C_5  and  C_36
REMARK    3  A    between atoms: N_8  and  S_10
REMARK    4  A    between atoms: S_10  and  C_13
REMARK    5  A    between atoms: C_16  and  N_19
REMARK    6  A    between atoms: C_20  and  C_22
REMARK    7  A    between atoms: C_22  and  N_23
REMARK    8  A    between atoms: N_26  and  C_29
REMARK    9  A    between atoms: C_29  and  C_30
REMARK   10  A    between atoms: N_32  and  C_33
REMARK                            x       y       z     vdW  Elec       q    Type
REMARK                         _______ _______ _______ _____ _____    ______ ____
ROOT
ATOM      1  N   UNL     1       3.843  -4.106  -4.087  0.00  0.00    -0.284 N 
ATOM      2  C   UNL     1       4.638  -3.231  -4.735  0.00  0.00    +0.231 C 
ATOM      3  O   UNL     1       5.050  -2.245  -4.162  0.00  0.00    -0.274 OA
ATOM      4  H   UNL     1       3.569  -4.927  -4.523  0.00  0.00    +0.155 HD
ENDROOT
BRANCH   1   8
ATOM      5  C   UNL     1       2.564  -3.277  -0.209  0.00  0.00    +0.106 A 
ATOM      6  C   UNL     1       3.827  -2.887  -0.618  0.00  0.00    +0.030 A 
ATOM      7  C   UNL     1       4.254  -3.160  -1.903  0.00  0.00    +0.025 A 
ATOM      8  C   UNL     1       3.414  -3.828  -2.785  0.00  0.00    +0.034 A 
ATOM      9  C   UNL     1       2.147  -4.218  -2.371  0.00  0.00    +0.025 A 
ATOM     10  C   UNL     1       1.728  -3.946  -1.084  0.00  0.00    +0.030 A 
BRANCH   5  11
ATOM     11  S   UNL     1       2.024  -2.927   1.430  0.00  0.00    +0.061 S 
ATOM     12  O   UNL     1       0.603  -2.917   1.396  0.00  0.00    -0.153 OA
ATOM     13  O   UNL     1       2.782  -1.812   1.879  0.00  0.00    -0.153 OA
BRANCH  11  19
ATOM     14  C   UNL     1       1.426  -7.850   2.512  0.00  0.00    +0.009 C 
ATOM     15  C   UNL     1       2.309  -6.640   2.199  0.00  0.00    +0.002 C 
ATOM     16  C   UNL     1       3.598  -6.723   3.020  0.00  0.00    +0.009 C 
ATOM     17  C   UNL     1       4.496  -5.530   2.683  0.00  0.00    +0.002 C 
ATOM     18  C   UNL     1       3.772  -4.231   3.050  0.00  0.00    +0.112 C 
ATOM     19  N   UNL     1       2.466  -4.211   2.377  0.00  0.00    -0.176 NA
ATOM     20  C   UNL     1       1.560  -5.353   2.560  0.00  0.00    +0.112 C 
ATOM     21  C   UNL     1       5.799  -5.632   3.479  0.00  0.00    +0.009 C 
ENDBRANCH  11  19
ENDBRANCH   5  11
ENDBRANCH   1   8
BRANCH   2  22
ATOM     22  C   UNL     1       5.016  -3.479  -6.173  0.00  0.00    +0.180 C 
BRANCH  22  23
ATOM     23  N   UNL     1       5.881  -2.391  -6.647  0.00  0.00    -0.292 NA
ATOM     24  C   UNL     1       5.148  -1.118  -6.696  0.00  0.00    +0.100 C 
ATOM     25  C   UNL     1       6.103   0.001  -7.116  0.00  0.00    +0.100 C 
ATOM     26  N   UNL     1       6.683  -0.320  -8.428  0.00  0.00    -0.292 NA
ATOM     27  C   UNL     1       7.416  -1.593  -8.379  0.00  0.00    +0.100 C 
ATOM     28  C   UNL     1       6.461  -2.712  -7.959  0.00  0.00    +0.100 C 
BRANCH  26  29
ATOM     29  C   UNL     1       7.548   0.768  -8.902  0.00  0.00    +0.180 C 
BRANCH  29  30
ATOM     30  C   UNL     1       7.926   0.520 -10.340  0.00  0.00    +0.227 C 
ATOM     31  O   UNL     1       7.514  -0.466 -10.913  0.00  0.00    -0.274 OA
ATOM     32  N   UNL     1       8.721   1.395 -10.988  0.00  0.00    -0.311 N 
ATOM     33  H   UNL     1       9.050   2.183 -10.529  0.00  0.00    +0.149 HD
BRANCH  32  34
ATOM     34  C   UNL     1       9.087   1.153 -12.386  0.00  0.00    +0.073 C 
ATOM     35  C   UNL     1      10.546   1.388 -12.784  0.00  0.00    +0.024 C 
ATOM     36  C   UNL     1       9.462   2.368 -13.237  0.00  0.00    +0.024 C 
ENDBRANCH  32  34
ENDBRANCH  29  30
ENDBRANCH  26  29
ENDBRANCH  22  23
ENDBRANCH   2  22
TORSDOF 8
