REMARK  Name = ZINC38270151
REMARK  12 active torsions:
REMARK  status: ('A' for Active; 'I' for Inactive)
REMARK    1  A    between atoms: C_1  and  C_2
REMARK    2  A    between atoms: C_2  and  C_4
REMARK    3  A    between atoms: C_2  and  O_17
REMARK    4  A    between atoms: C_7  and  C_11
REMARK    5  A    between atoms: C_11  and  N_12
REMARK    6  A    between atoms: N_12  and  C_13
REMARK    7  A    between atoms: C_13  and  C_14
REMARK    8  A    between atoms: C_13  and  C_15
REMARK    9  A    between atoms: C_13  and  C_16
REMARK   10  A    between atoms: O_17  and  C_18
REMARK   11  A    between atoms: C_20  and  C_26
REMARK   12  A    between atoms: C_22  and  C_23
REMARK                            x       y       z     vdW  Elec       q    Type
REMARK                         _______ _______ _______ _____ _____    ______ ____
ROOT
ATOM      1  C   UNL     1      -0.106  -0.774  -2.244  0.00  0.00    +0.141 A 
ATOM      2  C   UNL     1      -1.456  -0.550  -2.217  0.00  0.00    +0.064 A 
ATOM      3  C   UNL     1      -2.210  -0.883  -3.336  0.00  0.00    +0.042 A 
ATOM      4  S   UNL     1      -0.973  -1.529  -4.449  0.00  0.00    -0.079 S 
ATOM      5  C   UNL     1       0.454  -1.324  -3.397  0.00  0.00    +0.116 A 
ENDROOT
BRANCH   3   6
ATOM      6  C   UNL     1      -3.655  -0.740  -3.548  0.00  0.00    +0.080 A 
ATOM      7  C   UNL     1      -4.560  -0.140  -2.694  0.00  0.00    +0.140 A 
ATOM      8  N   UNL     1      -5.765  -0.215  -3.246  0.00  0.00    -0.235 NA
ATOM      9  C   UNL     1      -5.683  -0.836  -4.418  0.00  0.00    +0.138 A 
ATOM     10  N   UNL     1      -4.375  -1.173  -4.641  0.00  0.00    -0.299 N 
ATOM     11  C   UNL     1      -4.011  -1.820  -5.784  0.00  0.00    +0.093 A 
ATOM     12  C   UNL     1      -4.934  -2.138  -6.719  0.00  0.00    +0.018 A 
ATOM     13  C   UNL     1      -6.282  -1.802  -6.521  0.00  0.00    +0.005 A 
ATOM     14  C   UNL     1      -6.658  -1.163  -5.379  0.00  0.00    +0.047 A 
ENDBRANCH   3   6
BRANCH   5  15
ATOM     15  C   UNL     1       1.805  -1.639  -3.664  0.00  0.00    +0.252 C 
ATOM     16  O   UNL     1       2.657  -1.431  -2.818  0.00  0.00    -0.270 OA
ATOM     17  N   UNL     1       2.151  -2.170  -4.853  0.00  0.00    -0.325 N 
ATOM     18  H   UNL     1       1.472  -2.335  -5.526  0.00  0.00    +0.145 HD
ATOM     19  H   UNL     1       3.078  -2.386  -5.037  0.00  0.00    +0.145 HD
ENDBRANCH   5  15
BRANCH   1  20
ATOM     20  O   UNL     1       0.671  -0.465  -1.174  0.00  0.00    -0.483 OA
BRANCH  20  22
ATOM     21  C   UNL     1      -0.244   1.494  -0.095  0.00  0.00    +0.057 C 
ATOM     22  C   UNL     1       0.001  -0.013   0.005  0.00  0.00    +0.202 C 
BRANCH  22  23
ATOM     23  C   UNL     1       0.857  -0.303   1.211  0.00  0.00    +0.011 A 
ATOM     24  C   UNL     1       2.228  -0.417   1.076  0.00  0.00    +0.009 A 
ATOM     25  C   UNL     1       3.012  -0.683   2.182  0.00  0.00    +0.002 A 
ATOM     26  C   UNL     1       2.426  -0.837   3.425  0.00  0.00    -0.063 A 
ATOM     27  C   UNL     1       1.056  -0.723   3.562  0.00  0.00    +0.022 A 
ATOM     28  C   UNL     1       0.270  -0.451   2.455  0.00  0.00    +0.048 A 
ATOM     29 CL   UNL     1      -1.451  -0.302   2.628  0.00  0.00    -0.083 Cl
BRANCH  26  30
ATOM     30  C   UNL     1       3.282  -1.128   4.631  0.00  0.00    -0.046 C 
BRANCH  30  31
ATOM     31  N   UNL     1       3.696   0.136   5.254  0.00  0.00    +0.385 N 
ATOM     32  H   UNL     1       4.225   0.681   4.590  0.00  0.00    -0.085 HD
ATOM     33  H   UNL     1       2.878   0.654   5.539  0.00  0.00    -0.085 HD
BRANCH  31  34
ATOM     34  C   UNL     1       4.530  -0.147   6.429  0.00  0.00    -0.077 C 
ATOM     35  C   UNL     1       5.770  -0.933   5.997  0.00  0.00    -0.011 C 
ATOM     36  C   UNL     1       4.962   1.169   7.079  0.00  0.00    -0.011 C 
ATOM     37  C   UNL     1       3.728  -0.974   7.436  0.00  0.00    -0.011 C 
ENDBRANCH  31  34
ENDBRANCH  30  31
ENDBRANCH  26  30
ENDBRANCH  22  23
ENDBRANCH  20  22
ENDBRANCH   1  20
TORSDOF 8
