REMARK  Name = ZINC16065726
REMARK  7 active torsions:
REMARK  status: ('A' for Active; 'I' for Inactive)
REMARK    1  A    between atoms: C_1  and  C_2
REMARK    2  A    between atoms: C_13  and  C_14
REMARK    3  A    between atoms: C_14  and  C_15
REMARK    4  A    between atoms: N_17  and  C_18
REMARK    5  A    between atoms: C_22  and  S_24
REMARK    6  A    between atoms: S_24  and  N_27
REMARK    7  A    between atoms: N_27  and  C_28
REMARK                            x       y       z     vdW  Elec       q    Type
REMARK                         _______ _______ _______ _____ _____    ______ ____
ROOT
ATOM      1  C   UNL     1       2.388  -2.225  -0.449  0.00  0.00    +0.219 C 
ATOM      2  O   UNL     1       1.991  -1.599   0.511  0.00  0.00    -0.275 OA
ATOM      3  N   UNL     1       3.691  -2.553  -0.547  0.00  0.00    -0.285 N 
ATOM      4  H   UNL     1       3.997  -3.111  -1.280  0.00  0.00    +0.155 HD
ENDROOT
BRANCH   3   5
ATOM      5  C   UNL     1       4.604  -2.090   0.407  0.00  0.00    +0.035 A 
ATOM      6  C   UNL     1       5.897  -1.755   0.029  0.00  0.00    +0.023 A 
ATOM      7  C   UNL     1       6.795  -1.298   0.974  0.00  0.00    +0.004 A 
ATOM      8  C   UNL     1       6.407  -1.176   2.296  0.00  0.00    +0.029 A 
ATOM      9  C   UNL     1       5.120  -1.509   2.676  0.00  0.00    +0.112 A 
ATOM     10  C   UNL     1       4.216  -1.960   1.734  0.00  0.00    +0.052 A 
BRANCH   9  11
ATOM     11  S   UNL     1       4.632  -1.351   4.361  0.00  0.00    +0.092 S 
ATOM     12  O   UNL     1       3.543  -2.244   4.553  0.00  0.00    -0.148 OA
ATOM     13  O   UNL     1       5.820  -1.422   5.137  0.00  0.00    -0.148 OA
BRANCH  11  14
ATOM     14  N   UNL     1       4.030   0.179   4.555  0.00  0.00    -0.095 NA
BRANCH  14  15
ATOM     15  C   UNL     1       3.560   0.592   5.806  0.00  0.00    +0.109 A 
ATOM     16  C   UNL     1       3.603  -0.277   6.888  0.00  0.00    +0.029 A 
ATOM     17  C   UNL     1       3.139   0.134   8.122  0.00  0.00    +0.002 A 
ATOM     18  C   UNL     1       2.631   1.410   8.282  0.00  0.00    +0.003 A 
ATOM     19  C   UNL     1       2.586   2.280   7.208  0.00  0.00    +0.040 A 
ATOM     20  C   UNL     1       3.054   1.877   5.971  0.00  0.00    +0.148 A 
ATOM     21  F   UNL     1       3.015   2.729   4.923  0.00  0.00    -0.203 F 
ENDBRANCH  14  15
ENDBRANCH  11  14
ENDBRANCH   9  11
ENDBRANCH   3   5
BRANCH   1  22
ATOM     22  C   UNL     1       1.424  -2.635  -1.532  0.00  0.00    +0.123 C 
BRANCH  22  35
ATOM     23  C   UNL     1      -0.015   1.509  -0.015  0.00  0.00    +0.109 C 
ATOM     24  C   UNL     1       0.004   0.002  -0.013  0.00  0.00    +0.217 C 
ATOM     25  O   UNL     1       0.023  -0.602   1.039  0.00  0.00    -0.276 OA
ATOM     26  N   UNL     1       0.000  -0.674  -1.179  0.00  0.00    -0.270 N 
ATOM     27  C   UNL     1      -0.016   0.016  -2.384  0.00  0.00    +0.079 C 
ATOM     28  C   UNL     1      -0.632  -0.519  -3.445  0.00  0.00    +0.023 C 
ATOM     29  C   UNL     1      -1.258  -1.849  -3.321  0.00  0.00    -0.019 A 
ATOM     30  C   UNL     1      -2.132  -2.320  -4.300  0.00  0.00    +0.008 A 
ATOM     31  C   UNL     1      -2.718  -3.561  -4.152  0.00  0.00    +0.001 A 
ATOM     32  C   UNL     1      -2.441  -4.334  -3.038  0.00  0.00    +0.000 A 
ATOM     33  C   UNL     1      -1.569  -3.874  -2.065  0.00  0.00    +0.006 A 
ATOM     34  C   UNL     1      -0.971  -2.641  -2.206  0.00  0.00    -0.019 A 
ATOM     35  C   UNL     1       0.019  -2.141  -1.179  0.00  0.00    +0.120 C 
ENDBRANCH  22  35
ENDBRANCH   1  22
TORSDOF 6
