REMARK  Name = ZINC64450256
REMARK  7 active torsions:
REMARK  status: ('A' for Active; 'I' for Inactive)
REMARK    1  A    between atoms: C_1  and  N_2
REMARK    2  A    between atoms: C_3  and  C_26
REMARK    3  A    between atoms: C_7  and  S_9
REMARK    4  A    between atoms: S_9  and  C_10
REMARK    5  A    between atoms: C_10  and  C_11
REMARK    6  A    between atoms: N_13  and  C_14
REMARK    7  A    between atoms: C_14  and  C_15
REMARK                            x       y       z     vdW  Elec       q    Type
REMARK                         _______ _______ _______ _____ _____    ______ ____
ROOT
ATOM      1  S   UNL     1       0.322  -2.013   1.798  0.00  0.00    -0.108 S 
ENDROOT
BRANCH   1   7
ATOM      2  C   UNL     1       0.521   1.553   0.086  0.00  0.00    +0.110 C 
ATOM      3  N   UNL     1       0.290   0.102   0.097  0.00  0.00    -0.249 NA
ATOM      4  C   UNL     1       0.757  -0.520  -1.168  0.00  0.00    +0.226 C 
ATOM      5  N   UNL     1       2.128  -0.961  -0.884  0.00  0.00    -0.168 NA
ATOM      6  N   UNL     1       2.347  -0.987   0.331  0.00  0.00    -0.160 NA
ATOM      7  C   UNL     1       1.163  -0.569   1.093  0.00  0.00    +0.258 C 
BRANCH   4   8
ATOM      8  C   UNL     1       0.749   0.508  -2.302  0.00  0.00    +0.144 C 
ATOM      9  C   UNL     1      -0.670   0.919  -2.623  0.00  0.00    +0.010 C 
ATOM     10  C   UNL     1      -0.879   0.570  -3.913  0.00  0.00    -0.003 A 
ATOM     11  C   UNL     1      -2.039   0.700  -4.803  0.00  0.00    +0.029 A 
ATOM     12  C   UNL     1      -1.945   0.247  -6.074  0.00  0.00    +0.042 A 
ATOM     13  C   UNL     1      -0.768  -0.342  -6.562  0.00  0.00    +0.022 A 
ATOM     14  C   UNL     1       0.338  -0.495  -5.804  0.00  0.00    +0.027 A 
ATOM     15  C   UNL     1       0.350  -0.055  -4.452  0.00  0.00    +0.043 A 
ATOM     16  N   UNL     1       1.284  -0.090  -3.530  0.00  0.00    -0.374 N 
ATOM     17 CL   UNL     1      -3.315   0.398  -7.130  0.00  0.00    -0.084 Cl
ATOM     18  H   UNL     1       2.177  -0.452  -3.641  0.00  0.00    +0.160 HD
ENDBRANCH   4   8
ENDBRANCH   1   7
BRANCH   1  19
ATOM     19  C   UNL     1      -0.002  -3.076   0.364  0.00  0.00    +0.168 C 
BRANCH  19  20
ATOM     20  C   UNL     1      -0.707  -4.329   0.816  0.00  0.00    +0.223 C 
ATOM     21  O   UNL     1      -0.965  -4.489   1.990  0.00  0.00    -0.275 OA
ATOM     22  N   UNL     1      -1.050  -5.271  -0.084  0.00  0.00    -0.311 N 
ATOM     23  H   UNL     1      -0.843  -5.143  -1.023  0.00  0.00    +0.149 HD
BRANCH  22  24
ATOM     24  C   UNL     1      -1.735  -6.489   0.356  0.00  0.00    +0.139 C 
BRANCH  24  25
ATOM     25  C   UNL     1      -2.004  -7.372  -0.836  0.00  0.00    -0.027 A 
ATOM     26  C   UNL     1      -3.184  -7.233  -1.543  0.00  0.00    +0.009 A 
ATOM     27  C   UNL     1      -3.437  -8.040  -2.638  0.00  0.00    +0.050 A 
ATOM     28  C   UNL     1      -2.504  -8.988  -3.023  0.00  0.00    +0.162 A 
ATOM     29  C   UNL     1      -1.320  -9.127  -2.313  0.00  0.00    +0.162 A 
ATOM     30  C   UNL     1      -1.067  -8.314  -1.220  0.00  0.00    +0.054 A 
ATOM     31  O   UNL     1      -0.407 -10.063  -2.702  0.00  0.00    -0.488 OA
ATOM     32  C   UNL     1      -0.795 -11.427  -2.525  0.00  0.00    +0.232 C 
ATOM     33  C   UNL     1      -1.625 -11.908  -3.704  0.00  0.00    +0.082 C 
ATOM     34  C   UNL     1      -2.951 -11.174  -3.818  0.00  0.00    +0.232 C 
ATOM     35  O   UNL     1      -2.741  -9.789  -4.102  0.00  0.00    -0.488 OA
ENDBRANCH  24  25
ENDBRANCH  22  24
ENDBRANCH  19  20
ENDBRANCH   1  19
TORSDOF 6
