REMARK  Name = ZINC20205697
REMARK  6 active torsions:
REMARK  status: ('A' for Active; 'I' for Inactive)
REMARK    1  A    between atoms: C_1  and  S_2
REMARK    2  A    between atoms: S_2  and  C_5
REMARK    3  A    between atoms: C_13  and  C_14
REMARK    4  A    between atoms: C_17  and  O_20
REMARK    5  A    between atoms: O_20  and  C_21
REMARK    6  A    between atoms: C_21  and  C_22
REMARK                            x       y       z     vdW  Elec       q    Type
REMARK                         _______ _______ _______ _____ _____    ______ ____
ROOT
ATOM      1  C   UNL     1      -4.785   1.503  -0.011  0.00  0.00    +0.257 C 
ATOM      2  N   UNL     1      -5.656   2.215   0.634  0.00  0.00    -0.174 NA
ATOM      3  S   UNL     1      -5.795   3.617  -0.275  0.00  0.00    +0.049 S 
ATOM      4  C   UNL     1      -4.753   3.239  -1.519  0.00  0.00    +0.183 C 
ATOM      5  N   UNL     1      -4.450   3.912  -2.606  0.00  0.00    -0.152 NA
ATOM      6  C   UNL     1      -3.618   3.368  -3.513  0.00  0.00    +0.273 C 
ATOM      7  O   UNL     1      -3.216   4.020  -4.463  0.00  0.00    -0.268 OA
ATOM      8  C   UNL     1      -3.202   1.955  -3.330  0.00  0.00    +0.078 C 
ATOM      9  C   UNL     1      -2.811   1.169  -4.390  0.00  0.00    +0.024 C 
ATOM     10  C   UNL     1      -3.230   1.435  -1.932  0.00  0.00    +0.117 C 
ATOM     11  N   UNL     1      -2.395   0.538  -1.482  0.00  0.00    -0.386 N 
ATOM     12  N   UNL     1      -4.244   2.013  -1.143  0.00  0.00    -0.203 N 
ATOM     13  H   UNL     1      -1.774   0.106  -2.089  0.00  0.00    +0.157 HD
ATOM     14  H   UNL     1      -2.396   0.304  -0.541  0.00  0.00    +0.157 HD
ENDROOT
BRANCH   9  15
ATOM     15  C   UNL     1      -2.979   1.653  -5.762  0.00  0.00    -0.024 A 
ATOM     16  C   UNL     1      -1.993   1.395  -6.725  0.00  0.00    +0.011 A 
ATOM     17  C   UNL     1      -2.156   1.851  -8.008  0.00  0.00    +0.046 A 
ATOM     18  C   UNL     1      -3.296   2.569  -8.354  0.00  0.00    +0.121 A 
ATOM     19  C   UNL     1      -4.277   2.828  -7.403  0.00  0.00    +0.046 A 
ATOM     20  C   UNL     1      -4.129   2.372  -6.119  0.00  0.00    +0.011 A 
BRANCH  18  21
ATOM     21  O   UNL     1      -3.451   3.018  -9.625  0.00  0.00    -0.487 OA
BRANCH  21  22
ATOM     22  C   UNL     1      -4.645   3.748  -9.914  0.00  0.00    +0.265 C 
BRANCH  22  23
ATOM     23  C   UNL     1      -4.643   4.163 -11.363  0.00  0.00    -0.003 A 
ATOM     24  C   UNL     1      -3.601   3.823 -12.170  0.00  0.00    +0.007 A 
ATOM     25  C   UNL     1      -3.581   4.197 -13.512  0.00  0.00    +0.001 A 
ATOM     26  C   UNL     1      -4.603   4.914 -14.055  0.00  0.00    +0.008 A 
ATOM     27  C   UNL     1      -5.696   5.283 -13.253  0.00  0.00    -0.018 A 
ATOM     28  C   UNL     1      -5.719   4.897 -11.889  0.00  0.00    -0.011 A 
ATOM     29  C   UNL     1      -6.815   5.262 -11.088  0.00  0.00    +0.009 A 
ATOM     30  C   UNL     1      -7.839   5.973 -11.633  0.00  0.00    +0.001 A 
ATOM     31  C   UNL     1      -7.819   6.348 -12.975  0.00  0.00    +0.001 A 
ATOM     32  C   UNL     1      -6.769   6.024 -13.777  0.00  0.00    +0.008 A 
ENDBRANCH  22  23
ENDBRANCH  21  22
ENDBRANCH  18  21
ENDBRANCH   9  15
BRANCH   1  34
ATOM     33  C   UNL     1      -2.822   0.203   1.568  0.00  0.00    +0.203 C 
ATOM     34  S   UNL     1      -4.311  -0.090   0.575  0.00  0.00    +0.026 S 
ATOM     35  O   UNL     1      -3.982  -0.825  -0.596  0.00  0.00    -0.167 OA
ATOM     36  O   UNL     1      -5.384  -0.502   1.412  0.00  0.00    -0.167 OA
ENDBRANCH   1  34
TORSDOF 5
