REMARK  Name = ZINC39356371
REMARK  8 active torsions:
REMARK  status: ('A' for Active; 'I' for Inactive)
REMARK    1  A    between atoms: C_1  and  N_2
REMARK    2  A    between atoms: C_11  and  C_13
REMARK    3  A    between atoms: C_13  and  N_14
REMARK    4  A    between atoms: N_14  and  C_15
REMARK    5  A    between atoms: C_15  and  C_16
REMARK    6  A    between atoms: C_20  and  C_22
REMARK    7  A    between atoms: C_25  and  O_29
REMARK    8  A    between atoms: O_29  and  C_30
REMARK                            x       y       z     vdW  Elec       q    Type
REMARK                         _______ _______ _______ _____ _____    ______ ____
ROOT
ATOM      1  C   UNL     1       2.911   2.420   2.430  0.00  0.00    -0.047 C 
ENDROOT
BRANCH   1   2
ATOM      2  C   UNL     1       2.828   3.921   2.334  0.00  0.00    -0.039 C 
ATOM      3  C   UNL     1       2.881   4.813   3.326  0.00  0.00    +0.132 C 
ATOM      4  N   UNL     1       2.772   6.072   2.846  0.00  0.00    -0.186 NA
ATOM      5  N   UNL     1       2.649   6.144   1.621  0.00  0.00    -0.297 N 
ATOM      6  C   UNL     1       2.671   4.772   1.086  0.00  0.00    +0.157 C 
ATOM      7  H   UNL     1       2.558   6.958   1.102  0.00  0.00    +0.183 HD
BRANCH   6   8
ATOM      8  C   UNL     1       1.375   4.455   0.385  0.00  0.00    +0.016 A 
ATOM      9  C   UNL     1       0.242   5.199   0.659  0.00  0.00    +0.012 A 
ATOM     10  C   UNL     1      -0.947   4.910   0.018  0.00  0.00    +0.046 A 
ATOM     11  C   UNL     1      -1.005   3.874  -0.903  0.00  0.00    +0.123 A 
ATOM     12  C   UNL     1       0.132   3.128  -1.178  0.00  0.00    +0.084 A 
ATOM     13  C   UNL     1       1.323   3.424  -0.538  0.00  0.00    +0.132 A 
ATOM     14  F   UNL     1       2.432   2.702  -0.809  0.00  0.00    -0.205 F 
BRANCH  11  15
ATOM     15  O   UNL     1      -2.174   3.590  -1.534  0.00  0.00    -0.495 OA
ATOM     16  C   UNL     1      -2.160   2.509  -2.470  0.00  0.00    +0.277 C 
ENDBRANCH  11  15
ENDBRANCH   6   8
ENDBRANCH   1   2
BRANCH   1  17
ATOM     17  N   UNL     1       1.555   1.855   2.452  0.00  0.00    +0.383 N 
ATOM     18  H   UNL     1       1.044   2.177   1.644  0.00  0.00    -0.085 HD
ATOM     19  H   UNL     1       1.081   2.151   3.291  0.00  0.00    -0.085 HD
BRANCH  17  20
ATOM     20  C   UNL     1       1.636   0.388   2.427  0.00  0.00    -0.063 C 
BRANCH  20  31
ATOM     21  C   UNL     1       1.341  -2.083   1.281  0.00  0.00    +0.105 C 
ATOM     22  N   UNL     1       0.306  -1.665   2.236  0.00  0.00    -0.300 NA
ATOM     23  C   UNL     1      -1.000  -2.225   1.874  0.00  0.00    +0.119 C 
ATOM     24  C   UNL     1      -2.069  -1.712   2.802  0.00  0.00    -0.030 A 
ATOM     25  C   UNL     1      -3.275  -2.394   2.861  0.00  0.00    +0.005 A 
ATOM     26  C   UNL     1      -4.285  -1.958   3.695  0.00  0.00    +0.000 A 
ATOM     27  C   UNL     1      -4.094  -0.833   4.476  0.00  0.00    +0.000 A 
ATOM     28  C   UNL     1      -2.893  -0.153   4.420  0.00  0.00    +0.004 A 
ATOM     29  C   UNL     1      -1.878  -0.593   3.584  0.00  0.00    -0.042 A 
ATOM     30  C   UNL     1      -0.581   0.174   3.564  0.00  0.00    +0.052 C 
ATOM     31  C   UNL     1       0.226  -0.198   2.320  0.00  0.00    +0.044 C 
ENDBRANCH  20  31
ENDBRANCH  17  20
ENDBRANCH   1  17
TORSDOF 6
