REMARK  Name = ZINC07279150
REMARK  10 active torsions:
REMARK  status: ('A' for Active; 'I' for Inactive)
REMARK    1  A    between atoms: C_1  and  C_2
REMARK    2  A    between atoms: C_2  and  C_3
REMARK    3  A    between atoms: C_2  and  C_4
REMARK    4  A    between atoms: C_2  and  C_5
REMARK    5  A    between atoms: C_5  and  C_6
REMARK    6  A    between atoms: C_6  and  C_7
REMARK    7  A    between atoms: C_6  and  C_8
REMARK    8  A    between atoms: C_6  and  N_9
REMARK    9  A    between atoms: C_10  and  C_12
REMARK   10  A    between atoms: C_12  and  N_13
REMARK                            x       y       z     vdW  Elec       q    Type
REMARK                         _______ _______ _______ _____ _____    ______ ____
ROOT
ATOM      1  N   UNL     1       6.760  -0.075  -4.121  0.00  0.00    -0.215 N 
ATOM      2  C   UNL     1       7.235   1.148  -4.444  0.00  0.00    +0.251 C 
ATOM      3  O   UNL     1       6.609   2.085  -4.891  0.00  0.00    -0.272 OA
ATOM      4  C   UNL     1       8.707   1.097  -4.129  0.00  0.00    +0.138 C 
ATOM      5  C   UNL     1       9.553   1.371  -5.379  0.00  0.00    +0.045 C 
ATOM      6  C   UNL     1      10.786   2.091  -4.786  0.00  0.00    +0.038 C 
ATOM      7  C   UNL     1      10.297   2.721  -3.498  0.00  0.00    -0.042 A 
ATOM      8  C   UNL     1       9.096   2.144  -3.120  0.00  0.00    -0.012 A 
ATOM      9  C   UNL     1       8.465   2.569  -1.963  0.00  0.00    +0.006 A 
ATOM     10  C   UNL     1       9.026   3.565  -1.188  0.00  0.00    +0.000 A 
ATOM     11  C   UNL     1      10.224   4.141  -1.567  0.00  0.00    +0.000 A 
ATOM     12  C   UNL     1      10.857   3.719  -2.719  0.00  0.00    +0.004 A 
ATOM     13  N   UNL     1       8.929  -0.256  -3.620  0.00  0.00    -0.281 N 
ATOM     14  C   UNL     1       7.729  -0.870  -3.647  0.00  0.00    +0.310 C 
ATOM     15  O   UNL     1       7.547  -2.016  -3.285  0.00  0.00    -0.252 OA
ATOM     16  H   UNL     1       9.771  -0.635  -3.321  0.00  0.00    +0.152 HD
ENDROOT
BRANCH   1  17
ATOM     17  C   UNL     1       5.360  -0.480  -4.266  0.00  0.00    +0.213 C 
BRANCH  17  19
ATOM     18  N   UNL     1       3.298  -0.448  -2.900  0.00  0.00    -0.309 N 
ATOM     19  C   UNL     1       4.611  -0.161  -2.998  0.00  0.00    +0.231 C 
ATOM     20  O   UNL     1       5.190   0.354  -2.065  0.00  0.00    -0.274 OA
ATOM     21  H   UNL     1       2.834  -0.860  -3.647  0.00  0.00    +0.149 HD
BRANCH  18  22
ATOM     22  C   UNL     1       2.570  -0.137  -1.668  0.00  0.00    +0.029 C 
ATOM     23  C   UNL     1       2.773   1.337  -1.312  0.00  0.00    +0.031 C 
ATOM     24  C   UNL     1       3.097  -1.014  -0.530  0.00  0.00    +0.031 C 
BRANCH  22  25
ATOM     25  C   UNL     1       1.078  -0.411  -1.873  0.00  0.00    +0.031 C 
BRANCH  25  27
ATOM     26  C   UNL     1       1.014  -0.865  -4.329  0.00  0.00    +0.010 C 
ATOM     27  C   UNL     1       0.642   0.136  -3.234  0.00  0.00    -0.036 C 
ATOM     28  C   UNL     1       1.349   1.467  -3.498  0.00  0.00    +0.010 C 
ATOM     29  C   UNL     1      -0.872   0.354  -3.234  0.00  0.00    +0.010 C 
ENDBRANCH  25  27
ENDBRANCH  22  25
ENDBRANCH  18  22
ENDBRANCH  17  19
ENDBRANCH   1  17
TORSDOF 5
