REMARK  Name = ZINC15730607
REMARK  8 active torsions:
REMARK  status: ('A' for Active; 'I' for Inactive)
REMARK    1  A    between atoms: C_1  and  C_2
REMARK    2  A    between atoms: C_9  and  S_15
REMARK    3  A    between atoms: S_15  and  N_18
REMARK    4  A    between atoms: N_18  and  C_19
REMARK    5  A    between atoms: C_22  and  O_27
REMARK    6  A    between atoms: C_24  and  O_25
REMARK    7  A    between atoms: O_25  and  C_26
REMARK    8  A    between atoms: O_27  and  C_28
REMARK                            x       y       z     vdW  Elec       q    Type
REMARK                         _______ _______ _______ _____ _____    ______ ____
ROOT
ATOM      1  S   UNL     1       1.389   2.260  -0.146  0.00  0.00    +0.073 S 
ATOM      2  O   UNL     1       1.040   3.631  -0.021  0.00  0.00    -0.150 OA
ATOM      3  O   UNL     1       2.344   1.636   0.701  0.00  0.00    -0.150 OA
ENDROOT
BRANCH   1  11
ATOM      4  C   UNL     1       1.269   3.569  -8.665  0.00  0.00    +0.018 C 
ATOM      5  C   UNL     1       2.085   3.306  -7.398  0.00  0.00    +0.082 C 
ATOM      6  C   UNL     1       2.243   1.823  -7.220  0.00  0.00    +0.087 C 
ATOM      7  S   UNL     1       3.480   1.367  -6.016  0.00  0.00    -0.123 S 
ATOM      8  C   UNL     1       2.844   1.697  -4.422  0.00  0.00    +0.029 A 
ATOM      9  C   UNL     1       3.242   0.826  -3.398  0.00  0.00    +0.018 A 
ATOM     10  C   UNL     1       2.813   0.989  -2.103  0.00  0.00    +0.030 A 
ATOM     11  C   UNL     1       1.958   2.033  -1.798  0.00  0.00    +0.110 A 
ATOM     12  C   UNL     1       1.560   2.896  -2.790  0.00  0.00    +0.053 A 
ATOM     13  C   UNL     1       1.990   2.746  -4.120  0.00  0.00    +0.049 A 
ATOM     14  N   UNL     1       1.506   3.691  -4.986  0.00  0.00    -0.284 N 
ATOM     15  C   UNL     1       1.400   3.945  -6.242  0.00  0.00    +0.221 C 
ATOM     16  O   UNL     1       0.629   4.837  -6.527  0.00  0.00    -0.275 OA
ATOM     17  H   UNL     1       1.107   4.415  -4.479  0.00  0.00    +0.155 HD
ENDBRANCH   1  11
BRANCH   1  18
ATOM     18  N   UNL     1      -0.017   1.398   0.010  0.00  0.00    -0.213 N 
ATOM     19  H   UNL     1      -0.843   1.854   0.234  0.00  0.00    +0.174 HD
BRANCH  18  20
ATOM     20  C   UNL     1      -0.014   0.010  -0.188  0.00  0.00    +0.090 A 
ATOM     21  C   UNL     1       1.081  -0.745   0.207  0.00  0.00    +0.032 A 
ATOM     22  C   UNL     1       1.084  -2.114   0.012  0.00  0.00    +0.048 A 
ATOM     23  C   UNL     1      -0.008  -2.735  -0.577  0.00  0.00    +0.124 A 
ATOM     24  C   UNL     1      -1.105  -1.984  -0.972  0.00  0.00    +0.093 A 
ATOM     25  C   UNL     1      -1.113  -0.613  -0.774  0.00  0.00    +0.146 A 
BRANCH  25  26
ATOM     26  O   UNL     1      -2.190   0.124  -1.157  0.00  0.00    -0.493 OA
ATOM     27  C   UNL     1      -3.281  -0.582  -1.752  0.00  0.00    +0.277 C 
ENDBRANCH  25  26
BRANCH  23  28
ATOM     28  O   UNL     1      -0.002  -4.081  -0.767  0.00  0.00    -0.495 OA
ATOM     29  C   UNL     1       1.161  -4.792  -0.336  0.00  0.00    +0.277 C 
ENDBRANCH  23  28
ENDBRANCH  18  20
ENDBRANCH   1  18
TORSDOF 5
