REMARK  Name = ZINC36123903
REMARK  12 active torsions:
REMARK  status: ('A' for Active; 'I' for Inactive)
REMARK    1  A    between atoms: C_1  and  C_2
REMARK    2  A    between atoms: C_2  and  C_3
REMARK    3  A    between atoms: C_3  and  C_5
REMARK    4  A    between atoms: C_3  and  N_6
REMARK    5  A    between atoms: N_6  and  C_7
REMARK    6  A    between atoms: C_7  and  C_8
REMARK    7  A    between atoms: C_18  and  C_20
REMARK    8  A    between atoms: C_20  and  O_21
REMARK    9  A    between atoms: O_21  and  C_22
REMARK   10  A    between atoms: C_27  and  C_28
REMARK   11  A    between atoms: N_31  and  C_32
REMARK   12  A    between atoms: C_35  and  C_38
REMARK                            x       y       z     vdW  Elec       q    Type
REMARK                         _______ _______ _______ _____ _____    ______ ____
ROOT
ATOM      1  C   UNL     1       0.298   0.972  -4.252  0.00  0.00    +0.234 C 
ATOM      2  O   UNL     1       0.263  -0.202  -4.555  0.00  0.00    -0.274 OA
ATOM      3  N   UNL     1       0.631   1.897  -5.174  0.00  0.00    -0.289 N 
ATOM      4  C   UNL     1       0.683   3.322  -4.816  0.00  0.00    +0.114 C 
ATOM      5  C   UNL     1       2.136   3.801  -4.952  0.00  0.00    +0.061 C 
ATOM      6  C   UNL     1       2.709   3.241  -6.213  0.00  0.00    -0.004 A 
ATOM      7  C   UNL     1       2.229   2.213  -6.965  0.00  0.00    -0.014 A 
ATOM      8  C   UNL     1       2.961   1.876  -8.103  0.00  0.00    +0.013 A 
ATOM      9  C   UNL     1       4.084   2.563  -8.413  0.00  0.00    +0.046 A 
ATOM     10  S   UNL     1       4.168   3.752  -7.082  0.00  0.00    -0.101 S 
ATOM     11  C   UNL     1       0.953   1.494  -6.550  0.00  0.00    +0.144 C 
ENDROOT
BRANCH   1  12
ATOM     12  C   UNL     1      -0.030   1.397  -2.843  0.00  0.00    +0.205 C 
BRANCH  12  13
ATOM     13  N   UNL     1      -0.356   0.215  -2.041  0.00  0.00    -0.274 N 
ATOM     14  C   UNL     1      -1.630  -0.218  -1.966  0.00  0.00    +0.307 C 
ATOM     15  O   UNL     1      -2.522   0.426  -2.482  0.00  0.00    -0.252 OA
ATOM     16  N   UNL     1      -1.915  -1.366  -1.320  0.00  0.00    -0.269 N 
ATOM     17  H   UNL     1      -1.214  -1.843  -0.847  0.00  0.00    +0.156 HD
BRANCH  16  18
ATOM     18  C   UNL     1      -3.220  -1.869  -1.330  0.00  0.00    +0.035 A 
ATOM     19  C   UNL     1      -4.026  -1.690  -2.446  0.00  0.00    +0.023 A 
ATOM     20  C   UNL     1      -5.314  -2.189  -2.453  0.00  0.00    +0.005 A 
ATOM     21  C   UNL     1      -5.802  -2.865  -1.350  0.00  0.00    -0.050 A 
ATOM     22  C   UNL     1      -5.002  -3.044  -0.236  0.00  0.00    +0.005 A 
ATOM     23  C   UNL     1      -3.711  -2.553  -0.225  0.00  0.00    +0.023 A 
ATOM     24  C   UNL     1      -7.207  -3.408  -1.361  0.00  0.00    +0.044 C 
ENDBRANCH  16  18
BRANCH  13  25
ATOM     25  C   UNL     1       0.703  -0.495  -1.319  0.00  0.00    +0.075 C 
ATOM     26  C   UNL     1       0.801  -1.930  -1.839  0.00  0.00    +0.028 C 
BRANCH  25  28
ATOM     27  C   UNL     1       0.326   0.918   0.707  0.00  0.00    +0.006 C 
ATOM     28  C   UNL     1       0.375  -0.516   0.176  0.00  0.00    +0.019 C 
ENDBRANCH  25  28
ENDBRANCH  13  25
ENDBRANCH  12  13
ENDBRANCH   1  12
BRANCH  11  29
ATOM     29  C   UNL     1      -0.190   1.893  -7.487  0.00  0.00    +0.256 C 
BRANCH  29  30
ATOM     30  O   UNL     1      -0.296   3.317  -7.529  0.00  0.00    -0.490 OA
BRANCH  30  31
ATOM     31  C   UNL     1      -1.269   3.840  -8.320  0.00  0.00    +0.123 A 
ATOM     32  C   UNL     1      -2.107   3.000  -9.038  0.00  0.00    +0.046 A 
ATOM     33  C   UNL     1      -3.096   3.534  -9.842  0.00  0.00    +0.004 A 
ATOM     34  C   UNL     1      -3.249   4.905  -9.932  0.00  0.00    +0.000 A 
ATOM     35  C   UNL     1      -2.415   5.745  -9.218  0.00  0.00    +0.007 A 
ATOM     36  C   UNL     1      -1.429   5.215  -8.408  0.00  0.00    -0.009 A 
ATOM     37  C   UNL     1      -0.523   6.131  -7.626  0.00  0.00    +0.047 C 
ENDBRANCH  30  31
ENDBRANCH  29  30
ENDBRANCH  11  29
TORSDOF 8
