REMARK  Name = ZINC44814315
REMARK  6 active torsions:
REMARK  status: ('A' for Active; 'I' for Inactive)
REMARK    1  A    between atoms: C_1  and  C_2
REMARK    2  A    between atoms: C_2  and  C_3
REMARK    3  A    between atoms: C_2  and  C_4
REMARK    4  A    between atoms: C_4  and  C_6
REMARK    5  A    between atoms: C_4  and  C_8
REMARK    6  A    between atoms: N_10  and  C_11
REMARK                            x       y       z     vdW  Elec       q    Type
REMARK                         _______ _______ _______ _____ _____    ______ ____
ROOT
ATOM      1  C   UNL     1      -2.161  -0.038  -1.211  0.00  0.00    +0.234 C 
ATOM      2  O   UNL     1      -1.590   0.674  -2.009  0.00  0.00    -0.274 OA
ATOM      3  N   UNL     1      -3.450  -0.376  -1.411  0.00  0.00    -0.284 N 
ATOM      4  H   UNL     1      -3.887  -0.999  -0.809  0.00  0.00    +0.155 HD
ENDROOT
BRANCH   3   5
ATOM      5  C   UNL     1      -4.158   0.170  -2.487  0.00  0.00    +0.047 A 
ATOM      6  C   UNL     1      -3.509   0.428  -3.688  0.00  0.00    +0.024 A 
ATOM      7  C   UNL     1      -4.211   0.967  -4.748  0.00  0.00    +0.002 A 
ATOM      8  C   UNL     1      -5.558   1.250  -4.616  0.00  0.00    +0.001 A 
ATOM      9  C   UNL     1      -6.207   0.995  -3.422  0.00  0.00    +0.016 A 
ATOM     10  C   UNL     1      -5.512   0.451  -2.359  0.00  0.00    +0.035 A 
ATOM     11  I   UNL     1      -6.498   0.057  -0.553  0.00  0.00    -0.042 I 
ENDBRANCH   3   5
BRANCH   1  12
ATOM     12  C   UNL     1      -1.428  -0.546   0.004  0.00  0.00    +0.180 C 
BRANCH  12  14
ATOM     13  C   UNL     1      -0.009   1.510   0.008  0.00  0.00    +0.009 C 
ATOM     14  C   UNL     1       0.008  -0.020  -0.009  0.00  0.00    +0.009 C 
ATOM     15  C   UNL     1       0.752  -0.536   1.224  0.00  0.00    +0.009 C 
ENDBRANCH  12  14
BRANCH  12  16
ATOM     16  C   UNL     1      -1.411  -2.018  -0.013  0.00  0.00    +0.076 C 
ATOM     17  N   UNL     1      -1.399  -3.154  -0.026  0.00  0.00    -0.196 NA
ENDBRANCH  12  16
ENDBRANCH   1  12
TORSDOF 4
