REMARK  Name = ZINC40174252
REMARK  12 active torsions:
REMARK  status: ('A' for Active; 'I' for Inactive)
REMARK    1  A    between atoms: C_1  and  C_2
REMARK    2  A    between atoms: C_2  and  O_3
REMARK    3  A    between atoms: O_3  and  C_4
REMARK    4  A    between atoms: C_4  and  C_6
REMARK    5  A    between atoms: C_6  and  S_7
REMARK    6  A    between atoms: S_7  and  C_8
REMARK    7  A    between atoms: N_12  and  C_13
REMARK    8  A    between atoms: C_13  and  C_15
REMARK    9  A    between atoms: C_13  and  C_16
REMARK   10  A    between atoms: N_18  and  C_19
REMARK   11  A    between atoms: C_22  and  S_25
REMARK   12  A    between atoms: S_25  and  N_28
REMARK                            x       y       z     vdW  Elec       q    Type
REMARK                         _______ _______ _______ _____ _____    ______ ____
ROOT
ATOM      1  C   UNL     1      -2.342  -9.123   0.979  0.00  0.00    +0.240 C 
ATOM      2  O   UNL     1      -1.435  -9.679   1.562  0.00  0.00    -0.273 OA
ATOM      3  N   UNL     1      -3.606  -9.239   1.432  0.00  0.00    -0.284 N 
ATOM      4  H   UNL     1      -4.320  -8.734   1.012  0.00  0.00    +0.155 HD
ENDROOT
BRANCH   3   5
ATOM      5  C   UNL     1      -3.888 -10.087   2.509  0.00  0.00    +0.034 A 
ATOM      6  C   UNL     1      -4.898  -9.761   3.405  0.00  0.00    +0.025 A 
ATOM      7  C   UNL     1      -5.174 -10.601   4.466  0.00  0.00    +0.030 A 
ATOM      8  C   UNL     1      -4.447 -11.764   4.637  0.00  0.00    +0.106 A 
ATOM      9  C   UNL     1      -3.440 -12.091   3.747  0.00  0.00    +0.030 A 
ATOM     10  C   UNL     1      -3.163 -11.259   2.680  0.00  0.00    +0.025 A 
BRANCH   8  11
ATOM     11  S   UNL     1      -4.802 -12.832   5.993  0.00  0.00    +0.061 S 
ATOM     12  O   UNL     1      -3.620 -13.579   6.242  0.00  0.00    -0.153 OA
ATOM     13  O   UNL     1      -5.421 -12.031   6.990  0.00  0.00    -0.153 OA
BRANCH  11  14
ATOM     14  N   UNL     1      -5.946 -13.914   5.477  0.00  0.00    -0.177 NA
ATOM     15  C   UNL     1      -7.342 -13.575   5.637  0.00  0.00    +0.109 C 
ATOM     16  C   UNL     1      -7.840 -14.063   7.019  0.00  0.00    +0.017 C 
ATOM     17  C   UNL     1      -7.940 -15.531   7.037  0.00  0.00    +0.001 C 
ATOM     18  C   UNL     1      -6.611 -16.253   6.838  0.00  0.00    +0.001 C 
ATOM     19  C   UNL     1      -6.329 -16.384   5.361  0.00  0.00    +0.017 C 
ATOM     20  C   UNL     1      -5.497 -15.181   4.868  0.00  0.00    +0.109 C 
ENDBRANCH  11  14
ENDBRANCH   8  11
ENDBRANCH   3   5
BRANCH   1  21
ATOM     21  C   UNL     1      -2.055  -8.304  -0.253  0.00  0.00    +0.175 C 
ATOM     22  C   UNL     1      -2.497  -6.858  -0.018  0.00  0.00    +0.041 C 
BRANCH  21  27
ATOM     23  C   UNL     1      -0.035  -8.806  -1.680  0.00  0.00    +0.194 A 
ATOM     24  N   UNL     1       1.262  -8.662  -1.562  0.00  0.00    -0.121 NA
ATOM     25  N   UNL     1       1.521  -8.089  -0.310  0.00  0.00    -0.113 NA
ATOM     26  C   UNL     1       0.374  -7.902   0.295  0.00  0.00    +0.216 A 
ATOM     27  N   UNL     1      -0.618  -8.335  -0.537  0.00  0.00    -0.279 N 
ATOM     28  N   UNL     1       0.198  -7.354   1.560  0.00  0.00    -0.328 N 
ATOM     29  H   UNL     1       0.969  -7.071   2.077  0.00  0.00    +0.145 HD
ATOM     30  H   UNL     1      -0.695  -7.256   1.925  0.00  0.00    +0.145 HD
BRANCH  23  31
ATOM     31  S   UNL     1      -0.880  -9.482  -3.071  0.00  0.00    -0.075 S 
BRANCH  31  32
ATOM     32  C   UNL     1       0.451  -9.909  -4.227  0.00  0.00    +0.197 C 
BRANCH  32  33
ATOM     33  C   UNL     1      -0.143 -10.505  -5.478  0.00  0.00    +0.317 C 
ATOM     34  O   UNL     1      -1.340 -10.629  -5.579  0.00  0.00    -0.250 OA
BRANCH  33  35
ATOM     35  O   UNL     1       0.659 -10.899  -6.480  0.00  0.00    -0.464 OA
BRANCH  35  37
ATOM     36  C   UNL     1       1.096 -11.842  -8.662  0.00  0.00    +0.048 C 
ATOM     37  C   UNL     1       0.029 -11.455  -7.635  0.00  0.00    +0.229 C 
ENDBRANCH  35  37
ENDBRANCH  33  35
ENDBRANCH  32  33
ENDBRANCH  31  32
ENDBRANCH  23  31
ENDBRANCH  21  27
ENDBRANCH   1  21
TORSDOF 10
