REMARK  Name = ZINC13643418
REMARK  6 active torsions:
REMARK  status: ('A' for Active; 'I' for Inactive)
REMARK    1  A    between atoms: C_1  and  C_2
REMARK    2  A    between atoms: C_2  and  C_4
REMARK    3  A    between atoms: C_17  and  C_20
REMARK    4  A    between atoms: C_23  and  N_26
REMARK    5  A    between atoms: N_26  and  C_27
REMARK    6  A    between atoms: N_26  and  C_28
REMARK                            x       y       z     vdW  Elec       q    Type
REMARK                         _______ _______ _______ _____ _____    ______ ____
ROOT
ATOM      1  C   UNL     1      -4.591   5.468  -0.089  0.00  0.00    +0.017 A 
ATOM      2  C   UNL     1      -4.686   4.963  -1.393  0.00  0.00    +0.013 A 
ATOM      3  C   UNL     1      -4.282   3.685  -1.650  0.00  0.00    +0.024 A 
ATOM      4  C   UNL     1      -3.777   2.888  -0.624  0.00  0.00    +0.031 A 
ATOM      5  C   UNL     1      -3.680   3.378   0.674  0.00  0.00    -0.019 A 
ATOM      6  C   UNL     1      -4.086   4.663   0.936  0.00  0.00    +0.017 A 
ATOM      7  C   UNL     1      -3.150   2.552   1.804  0.00  0.00    +0.049 C 
ATOM      8  C   UNL     1      -1.749   2.972   2.183  0.00  0.00    -0.023 C 
ATOM      9  C   UNL     1      -1.039   1.925   2.525  0.00  0.00    -0.030 C 
ATOM     10  C   UNL     1      -1.872   0.662   2.425  0.00  0.00    +0.033 C 
ATOM     11  C   UNL     1      -3.012   1.060   1.442  0.00  0.00    +0.029 C 
ATOM     12  C   UNL     1      -2.459   0.918   0.021  0.00  0.00    +0.105 C 
ATOM     13  N   UNL     1      -3.369   1.589  -0.913  0.00  0.00    -0.336 N 
ATOM     14  H   UNL     1      -3.679   1.138  -1.714  0.00  0.00    +0.147 HD
ENDROOT
BRANCH  12  15
ATOM     15  C   UNL     1      -1.096   1.557  -0.056  0.00  0.00    -0.027 A 
ATOM     16  C   UNL     1      -0.979   2.895  -0.385  0.00  0.00    +0.007 A 
ATOM     17  C   UNL     1       0.268   3.485  -0.450  0.00  0.00    +0.023 A 
ATOM     18  C   UNL     1       1.406   2.731  -0.191  0.00  0.00    +0.029 A 
ATOM     19  C   UNL     1       1.285   1.385   0.133  0.00  0.00    +0.023 A 
ATOM     20  C   UNL     1       0.035   0.802   0.197  0.00  0.00    +0.007 A 
BRANCH  18  21
ATOM     21  N   UNL     1       2.669   3.324  -0.256  0.00  0.00    -0.336 N 
ATOM     22  C   UNL     1       2.805   4.707  -0.718  0.00  0.00    +0.129 C 
ATOM     23  C   UNL     1       3.857   2.562   0.138  0.00  0.00    +0.129 C 
ENDBRANCH  18  21
ENDBRANCH  12  15
BRANCH   1  25
ATOM     24  C   UNL     1      -5.454   7.747  -0.924  0.00  0.00    +0.091 C 
ATOM     25  C   UNL     1      -5.023   6.841   0.200  0.00  0.00    +0.160 C 
ATOM     26  O   UNL     1      -5.032   7.246   1.343  0.00  0.00    -0.292 OA
ENDBRANCH   1  25
TORSDOF 3
