REMARK  Name = ZINC09814785
REMARK  6 active torsions:
REMARK  status: ('A' for Active; 'I' for Inactive)
REMARK    1  A    between atoms: C_1  and  O_2
REMARK    2  A    between atoms: O_2  and  C_3
REMARK    3  A    between atoms: C_3  and  C_4
REMARK    4  A    between atoms: C_12  and  C_13
REMARK    5  A    between atoms: N_15  and  C_16
REMARK    6  A    between atoms: C_19  and  C_22
REMARK                            x       y       z     vdW  Elec       q    Type
REMARK                         _______ _______ _______ _____ _____    ______ ____
ROOT
ATOM      1  C   UNL     1       5.098   3.100   0.735  0.00  0.00    +0.255 C 
ATOM      2  O   UNL     1       5.494   4.025   1.419  0.00  0.00    -0.269 OA
ATOM      3  N   UNL     1       5.964   2.415  -0.039  0.00  0.00    -0.281 N 
ATOM      4  H   UNL     1       5.664   1.631  -0.525  0.00  0.00    +0.155 HD
ENDROOT
BRANCH   1  13
ATOM      5  C   UNL     1       2.662   3.293   1.461  0.00  0.00    +0.008 A 
ATOM      6  C   UNL     1       1.356   2.788   1.340  0.00  0.00    +0.030 A 
ATOM      7  C   UNL     1       0.175   3.238   1.990  0.00  0.00    +0.132 A 
ATOM      8  C   UNL     1      -1.027   2.624   1.756  0.00  0.00    +0.039 A 
ATOM      9  C   UNL     1      -1.135   1.554   0.877  0.00  0.00    +0.004 A 
ATOM     10  C   UNL     1      -0.009   1.086   0.231  0.00  0.00    +0.016 A 
ATOM     11  C   UNL     1       1.209   1.692   0.456  0.00  0.00    +0.023 A 
ATOM     12  S   UNL     1       2.856   1.426  -0.149  0.00  0.00    -0.083 S 
ATOM     13  C   UNL     1       3.677   2.729   0.753  0.00  0.00    +0.081 A 
ATOM     14  F   UNL     1       0.239   4.279   2.848  0.00  0.00    -0.205 F 
BRANCH   5  15
ATOM     15  C   UNL     1       2.938   4.460   2.373  0.00  0.00    +0.196 C 
BRANCH  15  17
ATOM     16  C   UNL     1       3.030   6.855   2.422  0.00  0.00    +0.194 C 
ATOM     17  O   UNL     1       2.790   5.681   1.645  0.00  0.00    -0.378 OA
ENDBRANCH  15  17
ENDBRANCH   5  15
ENDBRANCH   1  13
BRANCH   3  18
ATOM     18  C   UNL     1       7.292   2.834  -0.140  0.00  0.00    +0.034 A 
ATOM     19  C   UNL     1       7.613   4.174   0.049  0.00  0.00    +0.024 A 
ATOM     20  C   UNL     1       8.923   4.590  -0.046  0.00  0.00    +0.013 A 
ATOM     21  C   UNL     1       9.927   3.667  -0.343  0.00  0.00    +0.019 A 
ATOM     22  C   UNL     1       9.601   2.323  -0.538  0.00  0.00    +0.013 A 
ATOM     23  C   UNL     1       8.290   1.913  -0.436  0.00  0.00    +0.024 A 
BRANCH  21  24
ATOM     24  C   UNL     1      11.334   4.111  -0.450  0.00  0.00    +0.164 A 
ATOM     25  N   UNL     1      12.405   3.350  -0.373  0.00  0.00    -0.129 NA
ATOM     26  N   UNL     1      13.462   4.071  -0.518  0.00  0.00    -0.134 NA
ATOM     27  C   UNL     1      13.128   5.319  -0.690  0.00  0.00    +0.134 A 
ATOM     28  N   UNL     1      11.771   5.389  -0.643  0.00  0.00    -0.311 N 
ATOM     29  C   UNL     1      10.956   6.598  -0.764  0.00  0.00    +0.125 C 
ATOM     30  C   UNL     1      11.703   7.629  -1.614  0.00  0.00    +0.022 C 
ATOM     31  C   UNL     1      12.585   8.497  -0.717  0.00  0.00    +0.002 C 
ATOM     32  C   UNL     1      13.630   7.643  -0.006  0.00  0.00    +0.008 C 
ATOM     33  C   UNL     1      14.055   6.486  -0.915  0.00  0.00    +0.076 C 
ENDBRANCH  21  24
ENDBRANCH   3  18
TORSDOF 5
