REMARK  Name = ZINC38679249
REMARK  15 active torsions:
REMARK  status: ('A' for Active; 'I' for Inactive)
REMARK    1  A    between atoms: C_1  and  C_2
REMARK    2  A    between atoms: C_2  and  O_3
REMARK    3  A    between atoms: O_3  and  C_4
REMARK    4  A    between atoms: C_7  and  C_13
REMARK    5  A    between atoms: C_9  and  O_10
REMARK    6  A    between atoms: O_10  and  C_11
REMARK    7  A    between atoms: C_11  and  C_12
REMARK    8  A    between atoms: C_18  and  O_27
REMARK    9  A    between atoms: C_22  and  N_26
REMARK   10  A    between atoms: C_23  and  C_24
REMARK   11  A    between atoms: O_27  and  C_28
REMARK   12  A    between atoms: C_28  and  C_30
REMARK   13  A    between atoms: C_33  and  O_36
REMARK   14  A    between atoms: O_36  and  C_37
REMARK   15  A    between atoms: C_37  and  C_38
REMARK                            x       y       z     vdW  Elec       q    Type
REMARK                         _______ _______ _______ _____ _____    ______ ____
ROOT
ATOM      1  C   UNL     1       1.054  -6.042  -1.807  0.00  0.00    +0.098 C 
ATOM      2  C   UNL     1       1.833  -6.624  -0.657  0.00  0.00    +0.008 A 
ATOM      3  C   UNL     1       3.216  -6.563  -0.672  0.00  0.00    +0.012 A 
ATOM      4  C   UNL     1       3.947  -7.091   0.374  0.00  0.00    +0.047 A 
ATOM      5  C   UNL     1       3.295  -7.686   1.445  0.00  0.00    +0.135 A 
ATOM      6  C   UNL     1       1.911  -7.749   1.463  0.00  0.00    +0.093 A 
ATOM      7  C   UNL     1       1.177  -7.216   0.411  0.00  0.00    +0.138 A 
ATOM      8  O   UNL     1      -0.177  -7.285   0.443  0.00  0.00    -0.441 OA
ATOM      9  C   UNL     1      -0.882  -7.144  -0.691  0.00  0.00    +0.199 C 
ATOM     10  C   UNL     1      -0.355  -6.563  -1.791  0.00  0.00    +0.098 C 
ENDROOT
BRANCH   1  14
ATOM     11  C   UNL     1       0.991  -1.780  -1.459  0.00  0.00    +0.162 A 
ATOM     12  C   UNL     1       0.450  -2.568  -0.456  0.00  0.00    +0.050 A 
ATOM     13  C   UNL     1       0.472  -3.946  -0.571  0.00  0.00    +0.008 A 
ATOM     14  C   UNL     1       1.033  -4.540  -1.686  0.00  0.00    -0.031 A 
ATOM     15  C   UNL     1       1.575  -3.760  -2.690  0.00  0.00    +0.054 A 
ATOM     16  C   UNL     1       1.550  -2.379  -2.584  0.00  0.00    +0.162 A 
BRANCH  11  17
ATOM     17  O   UNL     1       0.970  -0.425  -1.347  0.00  0.00    -0.489 OA
BRANCH  17  19
ATOM     18  C   UNL     1       0.448   1.647  -0.218  0.00  0.00    +0.048 C 
ATOM     19  C   UNL     1       0.380   0.119  -0.165  0.00  0.00    +0.226 C 
ENDBRANCH  17  19
ENDBRANCH  11  17
BRANCH  16  20
ATOM     20  O   UNL     1       2.078  -1.609  -3.574  0.00  0.00    -0.489 OA
BRANCH  20  21
ATOM     21  C   UNL     1       2.635  -2.292  -4.699  0.00  0.00    +0.226 C 
ATOM     22  C   UNL     1       3.175  -1.269  -5.700  0.00  0.00    +0.048 C 
ENDBRANCH  20  21
ENDBRANCH  16  20
ENDBRANCH   1  14
BRANCH   9  23
ATOM     23  N   UNL     1      -2.175  -7.603  -0.733  0.00  0.00    -0.328 N 
ATOM     24  H   UNL     1      -2.567  -8.022   0.050  0.00  0.00    +0.145 HD
ATOM     25  H   UNL     1      -2.697  -7.508  -1.545  0.00  0.00    +0.145 HD
ENDBRANCH   9  23
BRANCH  10  26
ATOM     26  C   UNL     1      -1.161  -6.442  -2.969  0.00  0.00    +0.101 C 
ATOM     27  N   UNL     1      -1.800  -6.346  -3.903  0.00  0.00    -0.191 NA
ENDBRANCH  10  26
BRANCH   5  28
ATOM     28  O   UNL     1       4.013  -8.207   2.475  0.00  0.00    -0.422 OA
BRANCH  28  29
ATOM     29  C   UNL     1       4.028  -9.546   2.623  0.00  0.00    +0.344 C 
ATOM     30  O   UNL     1       3.499 -10.255   1.790  0.00  0.00    -0.245 OA
BRANCH  29  31
ATOM     31  C   UNL     1       4.686 -10.151   3.796  0.00  0.00    +0.060 A 
ATOM     32  C   UNL     1       5.289  -9.337   4.758  0.00  0.00    +0.018 A 
ATOM     33  C   UNL     1       5.902  -9.906   5.852  0.00  0.00    +0.046 A 
ATOM     34  C   UNL     1       5.921 -11.288   6.000  0.00  0.00    +0.121 A 
ATOM     35  C   UNL     1       5.323 -12.101   5.045  0.00  0.00    +0.046 A 
ATOM     36  C   UNL     1       4.703 -11.540   3.951  0.00  0.00    +0.018 A 
BRANCH  34  37
ATOM     37  O   UNL     1       6.526 -11.845   7.079  0.00  0.00    -0.488 OA
BRANCH  37  38
ATOM     38  C   UNL     1       6.509 -13.271   7.169  0.00  0.00    +0.256 C 
BRANCH  38  39
ATOM     39  C   UNL     1       7.223 -13.704   8.424  0.00  0.00    +0.006 C 
ATOM     40  C   UNL     1       6.697 -14.626   9.191  0.00  0.00    +0.007 C 
ENDBRANCH  38  39
ENDBRANCH  37  38
ENDBRANCH  34  37
ENDBRANCH  29  31
ENDBRANCH  28  29
ENDBRANCH   5  28
TORSDOF 13
