REMARK  Name = ZINC19315984
REMARK  10 active torsions:
REMARK  status: ('A' for Active; 'I' for Inactive)
REMARK    1  A    between atoms: C_1  and  C_2
REMARK    2  A    between atoms: C_6  and  C_34
REMARK    3  A    between atoms: C_7  and  N_8
REMARK    4  A    between atoms: C_9  and  C_11
REMARK    5  A    between atoms: C_11  and  N_12
REMARK    6  A    between atoms: N_12  and  C_13
REMARK    7  A    between atoms: C_14  and  C_16
REMARK    8  A    between atoms: C_16  and  S_17
REMARK    9  A    between atoms: S_17  and  C_18
REMARK   10  A    between atoms: C_28  and  C_32
REMARK                            x       y       z     vdW  Elec       q    Type
REMARK                         _______ _______ _______ _____ _____    ______ ____
ROOT
ATOM      1  C   UNL     1      10.470   0.703   1.495  0.00  0.00    +0.173 C 
ENDROOT
BRANCH   1   4
ATOM      2  N   UNL     1      12.451   2.185   1.473  0.00  0.00    -0.295 N 
ATOM      3  C   UNL     1      13.288   0.986   1.381  0.00  0.00    +0.132 C 
ATOM      4  C   UNL     1      11.109   2.067   1.528  0.00  0.00    +0.226 C 
ATOM      5  O   UNL     1      10.416   3.060   1.604  0.00  0.00    -0.275 OA
BRANCH   2   6
ATOM      6  C   UNL     1      13.072   3.511   1.506  0.00  0.00    +0.203 C 
BRANCH   6   8
ATOM      7  N   UNL     1      13.921   5.090   3.210  0.00  0.00    -0.284 N 
ATOM      8  C   UNL     1      13.348   3.902   2.934  0.00  0.00    +0.235 C 
ATOM      9  O   UNL     1      13.056   3.146   3.837  0.00  0.00    -0.274 OA
ATOM     10  H   UNL     1      14.246   5.747   2.389  0.00  0.00    +0.155 HD
BRANCH   7  17
ATOM     11  C   UNL     1      11.671   5.033   4.950  0.00  0.00    +0.045 C 
ATOM     12  C   UNL     1      13.032   5.476   5.422  0.00  0.00    -0.029 A 
ATOM     13  C   UNL     1      13.216   5.864   6.734  0.00  0.00    +0.005 A 
ATOM     14  C   UNL     1      14.463   6.276   7.166  0.00  0.00    +0.001 A 
ATOM     15  C   UNL     1      15.531   6.295   6.288  0.00  0.00    +0.005 A 
ATOM     16  C   UNL     1      15.355   5.902   4.976  0.00  0.00    -0.029 A 
ATOM     17  C   UNL     1      14.104   5.488   4.539  0.00  0.00    +0.039 A 
ATOM     18  C   UNL     1      16.520   5.922   4.019  0.00  0.00    +0.045 C 
ENDBRANCH   7  17
ENDBRANCH   6   8
ENDBRANCH   2   6
ENDBRANCH   1   4
BRANCH   1  19
ATOM     19  S   UNL     1       8.671   0.877   1.583  0.00  0.00    -0.077 S 
BRANCH  19  20
ATOM     20  C   UNL     1       8.196  -0.819   1.528  0.00  0.00    +0.191 A 
ATOM     21  N   UNL     1       9.146  -1.739   1.444  0.00  0.00    -0.207 NA
ATOM     22  C   UNL     1       8.910  -3.047   1.394  0.00  0.00    +0.129 A 
ATOM     23  C   UNL     1       7.540  -3.436   1.438  0.00  0.00    +0.051 A 
ATOM     24  C   UNL     1       7.012  -4.790   1.399  0.00  0.00    -0.025 A 
ATOM     25  C   UNL     1       5.667  -4.919   1.452  0.00  0.00    -0.004 A 
ATOM     26  S   UNL     1       5.042  -3.261   1.557  0.00  0.00    -0.073 S 
ATOM     27  C   UNL     1       6.580  -2.397   1.528  0.00  0.00    +0.115 A 
ATOM     28  N   UNL     1       6.896  -1.118   1.572  0.00  0.00    -0.214 NA
ATOM     29  C   UNL     1       4.876  -6.191   1.428  0.00  0.00    +0.046 C 
ATOM     30  C   UNL     1       5.796  -7.328   0.960  0.00  0.00    -0.009 C 
ATOM     31  C   UNL     1       7.108  -7.250   1.746  0.00  0.00    +0.008 C 
ATOM     32  C   UNL     1       7.906  -6.024   1.304  0.00  0.00    +0.037 C 
ATOM     33  C   UNL     1       5.118  -8.675   1.217  0.00  0.00    +0.008 C 
ATOM     34  N   UNL     1       9.933  -3.974   1.307  0.00  0.00    -0.343 N 
ATOM     35  H   UNL     1       9.700  -5.048   1.268  0.00  0.00    +0.144 HD
ATOM     36  H   UNL     1      10.980  -3.637   1.276  0.00  0.00    +0.144 HD
ENDBRANCH  19  20
ENDBRANCH   1  19
TORSDOF 6
