REMARK  Name = ZINC52627735
REMARK  8 active torsions:
REMARK  status: ('A' for Active; 'I' for Inactive)
REMARK    1  A    between atoms: C_7  and  C_10
REMARK    2  A    between atoms: C_10  and  C_11
REMARK    3  A    between atoms: C_11  and  C_13
REMARK    4  A    between atoms: C_11  and  N_29
REMARK    5  A    between atoms: C_13  and  O_14
REMARK    6  A    between atoms: O_14  and  C_15
REMARK    7  A    between atoms: C_17  and  C_21
REMARK    8  A    between atoms: C_22  and  C_23
REMARK                            x       y       z     vdW  Elec       q    Type
REMARK                         _______ _______ _______ _____ _____    ______ ____
ROOT
ATOM      1  C   UNL     1       0.457  -3.653  -1.462  0.00  0.00    -0.033 C 
ENDROOT
BRANCH   1   2
ATOM      2  N   UNL     1      -0.240  -2.600  -2.212  0.00  0.00    +0.382 N 
ATOM      3  H   UNL     1      -1.127  -2.405  -1.773  0.00  0.00    -0.089 HD
ATOM      4  H   UNL     1       0.323  -1.763  -2.218  0.00  0.00    -0.089 HD
ATOM      5  H   UNL     1      -0.394  -2.909  -3.160  0.00  0.00    -0.089 HD
ENDBRANCH   1   2
BRANCH   1   6
ATOM      6  C   UNL     1       0.691  -3.186  -0.024  0.00  0.00    +0.020 C 
BRANCH   6  13
ATOM      7  C   UNL     1      -0.016   1.348   0.009  0.00  0.00    +0.001 A 
ATOM      8  C   UNL     1       1.166   2.101   0.002  0.00  0.00    +0.002 A 
ATOM      9  C   UNL     1       2.391   1.535  -0.013  0.00  0.00    +0.026 A 
ATOM     10  C   UNL     1       2.529   0.120  -0.022  0.00  0.00    +0.043 A 
ATOM     11  N   UNL     1       3.587  -0.654  -0.037  0.00  0.00    -0.380 N 
ATOM     12  C   UNL     1       3.143  -2.053  -0.041  0.00  0.00    +0.144 C 
ATOM     13  C   UNL     1       1.631  -2.008  -0.025  0.00  0.00    -0.043 C 
ATOM     14  C   UNL     1       1.295  -0.698  -0.014  0.00  0.00    -0.001 A 
ATOM     15  C   UNL     1       0.002  -0.004   0.002  0.00  0.00    +0.010 A 
ATOM     16  H   UNL     1       4.509  -0.353  -0.045  0.00  0.00    +0.160 HD
ENDBRANCH   6  13
ENDBRANCH   1   6
BRANCH   1  17
ATOM     17  C   UNL     1      -0.398  -4.923  -1.452  0.00  0.00    +0.213 C 
BRANCH  17  18
ATOM     18  O   UNL     1      -0.519  -5.425  -2.785  0.00  0.00    -0.492 OA
BRANCH  18  19
ATOM     19  C   UNL     1      -1.252  -6.557  -2.953  0.00  0.00    +0.140 A 
ATOM     20  C   UNL     1      -1.411  -7.109  -4.217  0.00  0.00    +0.065 A 
ATOM     21  C   UNL     1      -2.175  -8.277  -4.338  0.00  0.00    +0.047 A 
ATOM     22  C   UNL     1      -2.743  -8.835  -3.189  0.00  0.00    +0.127 A 
ATOM     23  N   UNL     1      -2.564  -8.274  -2.012  0.00  0.00    -0.258 NA
ATOM     24  C   UNL     1      -1.846  -7.178  -1.862  0.00  0.00    +0.156 A 
BRANCH  21  25
ATOM     25  C   UNL     1      -2.372  -8.888  -5.618  0.00  0.00    -0.059 C 
ATOM     26  C   UNL     1      -2.533  -9.390  -6.667  0.00  0.00    -0.059 C 
BRANCH  26  27
ATOM     27  C   UNL     1      -2.730 -10.001  -7.947  0.00  0.00    +0.043 A 
ATOM     28  C   UNL     1      -2.156  -9.445  -9.098  0.00  0.00    +0.020 A 
ATOM     29  C   UNL     1      -2.377 -10.075 -10.310  0.00  0.00    +0.021 A 
ATOM     30  C   UNL     1      -3.149 -11.223 -10.346  0.00  0.00    +0.111 A 
ATOM     31  N   UNL     1      -3.677 -11.724  -9.247  0.00  0.00    -0.262 NA
ATOM     32  C   UNL     1      -3.492 -11.165  -8.069  0.00  0.00    +0.127 A 
ENDBRANCH  26  27
ENDBRANCH  21  25
ENDBRANCH  18  19
ENDBRANCH  17  18
ENDBRANCH   1  17
TORSDOF 8
