REMARK  Name = ZINC18051604
REMARK  6 active torsions:
REMARK  status: ('A' for Active; 'I' for Inactive)
REMARK    1  A    between atoms: C_1  and  C_2
REMARK    2  A    between atoms: C_2  and  C_4
REMARK    3  A    between atoms: C_2  and  O_20
REMARK    4  A    between atoms: N_6  and  N_7
REMARK    5  A    between atoms: C_8  and  C_10
REMARK    6  A    between atoms: O_20  and  C_21
REMARK                            x       y       z     vdW  Elec       q    Type
REMARK                         _______ _______ _______ _____ _____    ______ ____
ROOT
ATOM      1  C   UNL     1      -1.445   5.134   2.979  0.00  0.00    +0.270 C 
ATOM      2  O   UNL     1      -0.869   5.949   2.291  0.00  0.00    -0.270 OA
ATOM      3  N   UNL     1      -1.261   3.817   2.760  0.00  0.00    -0.231 N 
ATOM      4  H   UNL     1      -1.722   3.165   3.310  0.00  0.00    +0.173 HD
ENDROOT
BRANCH   3   5
ATOM      5  N   UNL     1      -0.404   3.390   1.737  0.00  0.00    -0.234 N 
ATOM      6  C   UNL     1      -0.220   2.073   1.518  0.00  0.00    +0.235 C 
ATOM      7  O   UNL     1      -0.797   1.257   2.206  0.00  0.00    -0.274 OA
ATOM      8  H   UNL     1       0.057   4.042   1.187  0.00  0.00    +0.173 HD
BRANCH   6   9
ATOM      9  C   UNL     1       0.702   1.614   0.418  0.00  0.00    +0.049 C 
ATOM     10  C   UNL     1       2.112   2.145   0.679  0.00  0.00    +0.019 C 
ATOM     11  C   UNL     1       3.048   1.679  -0.438  0.00  0.00    -0.009 C 
ATOM     12  C   UNL     1       3.078   0.150  -0.473  0.00  0.00    +0.007 C 
ATOM     13  C   UNL     1       1.667  -0.382  -0.734  0.00  0.00    -0.009 C 
ATOM     14  C   UNL     1       0.731   0.084   0.383  0.00  0.00    +0.019 C 
ATOM     15  C   UNL     1       1.163   0.149  -2.078  0.00  0.00    +0.007 C 
ATOM     16  C   UNL     1       1.133   1.679  -2.042  0.00  0.00    -0.009 C 
ATOM     17  C   UNL     1       2.544   2.210  -1.781  0.00  0.00    +0.007 C 
ATOM     18  C   UNL     1       0.197   2.145  -0.925  0.00  0.00    +0.019 C 
ENDBRANCH   6   9
ENDBRANCH   3   5
BRANCH   1  20
ATOM     19  C   UNL     1      -1.796   5.168   5.434  0.00  0.00    +0.062 C 
ATOM     20  C   UNL     1      -2.367   5.593   4.079  0.00  0.00    +0.257 C 
BRANCH  20  21
ATOM     21  O   UNL     1      -2.486   7.017   4.038  0.00  0.00    -0.480 OA
BRANCH  21  22
ATOM     22  C   UNL     1      -3.612   7.558   4.571  0.00  0.00    +0.122 A 
ATOM     23  C   UNL     1      -4.532   6.731   5.225  0.00  0.00    +0.046 A 
ATOM     24  C   UNL     1      -5.668   7.243   5.769  0.00  0.00    +0.012 A 
ATOM     25  C   UNL     1      -5.927   8.621   5.675  0.00  0.00    -0.018 A 
ATOM     26  C   UNL     1      -7.090   9.184   6.227  0.00  0.00    +0.008 A 
ATOM     27  C   UNL     1      -7.309  10.523   6.118  0.00  0.00    +0.001 A 
ATOM     28  C   UNL     1      -6.394  11.348   5.467  0.00  0.00    +0.001 A 
ATOM     29  C   UNL     1      -5.256  10.840   4.921  0.00  0.00    +0.008 A 
ATOM     30  C   UNL     1      -4.996   9.461   5.013  0.00  0.00    -0.014 A 
ATOM     31  C   UNL     1      -3.829   8.902   4.467  0.00  0.00    +0.054 A 
ENDBRANCH  21  22
ENDBRANCH  20  21
ENDBRANCH   1  20
TORSDOF 5
