REMARK  Name = ZINC53847716
REMARK  6 active torsions:
REMARK  status: ('A' for Active; 'I' for Inactive)
REMARK    1  A    between atoms: C_1  and  C_2
REMARK    2  A    between atoms: C_2  and  C_3
REMARK    3  A    between atoms: C_3  and  C_4
REMARK    4  A    between atoms: C_7  and  N_10
REMARK    5  A    between atoms: C_11  and  C_13
REMARK    6  A    between atoms: C_13  and  N_14
REMARK                            x       y       z     vdW  Elec       q    Type
REMARK                         _______ _______ _______ _____ _____    ______ ____
ROOT
ATOM      1  N   UNL     1       0.795  -6.170  -1.288  0.00  0.00    -0.284 N 
ATOM      2  C   UNL     1      -0.256  -6.856  -1.780  0.00  0.00    +0.235 C 
ATOM      3  O   UNL     1      -1.178  -6.262  -2.297  0.00  0.00    -0.274 OA
ATOM      4  H   UNL     1       1.567  -6.646  -0.943  0.00  0.00    +0.155 HD
ENDROOT
BRANCH   1   8
ATOM      5  C   UNL     1       0.731  -2.005  -1.247  0.00  0.00    -0.047 A 
ATOM      6  C   UNL     1      -0.443  -2.714  -1.073  0.00  0.00    +0.005 A 
ATOM      7  C   UNL     1      -0.425  -4.095  -1.086  0.00  0.00    +0.023 A 
ATOM      8  C   UNL     1       0.773  -4.771  -1.275  0.00  0.00    +0.033 A 
ATOM      9  C   UNL     1       1.951  -4.055  -1.450  0.00  0.00    +0.023 A 
ATOM     10  C   UNL     1       1.925  -2.674  -1.440  0.00  0.00    +0.005 A 
BRANCH   5  11
ATOM     11  C   UNL     1       0.708  -0.498  -1.232  0.00  0.00    +0.035 C 
BRANCH  11  13
ATOM     12  C   UNL     1       0.451   1.552  -2.637  0.00  0.00    +0.004 C 
ATOM     13  C   UNL     1       0.475   0.023  -2.652  0.00  0.00    +0.001 C 
ENDBRANCH  11  13
ENDBRANCH   5  11
ENDBRANCH   1   8
BRANCH   2  14
ATOM     14  C   UNL     1      -0.285  -8.359  -1.686  0.00  0.00    +0.214 C 
BRANCH  14  15
ATOM     15  N   UNL     1      -1.523  -8.862  -2.287  0.00  0.00    -0.215 N 
ATOM     16  C   UNL     1      -2.674  -9.046  -1.609  0.00  0.00    +0.248 C 
ATOM     17  O   UNL     1      -2.873  -8.834  -0.432  0.00  0.00    -0.273 OA
ATOM     18  C   UNL     1      -3.666  -9.572  -2.626  0.00  0.00    +0.122 C 
ATOM     19  C   UNL     1      -4.831  -8.595  -2.775  0.00  0.00    +0.047 C 
ATOM     20  C   UNL     1      -6.108  -9.348  -3.243  0.00  0.00    +0.072 C 
ATOM     21  S   UNL     1      -5.940 -10.892  -2.245  0.00  0.00    -0.158 S 
ATOM     22  C   UNL     1      -4.101 -10.994  -2.226  0.00  0.00    +0.104 C 
ATOM     23  N   UNL     1      -2.890  -9.630  -3.874  0.00  0.00    -0.284 N 
ATOM     24  C   UNL     1      -1.653  -9.191  -3.578  0.00  0.00    +0.310 C 
ATOM     25  O   UNL     1      -0.753  -9.105  -4.390  0.00  0.00    -0.252 OA
ATOM     26  H   UNL     1      -3.208  -9.923  -4.742  0.00  0.00    +0.151 HD
ENDBRANCH  14  15
ENDBRANCH   2  14
TORSDOF 5
