REMARK  Name = ZINC09144872
REMARK  9 active torsions:
REMARK  status: ('A' for Active; 'I' for Inactive)
REMARK    1  A    between atoms: C_1  and  C_2
REMARK    2  A    between atoms: C_2  and  C_35
REMARK    3  A    between atoms: C_3  and  N_24
REMARK    4  A    between atoms: N_5  and  C_18
REMARK    5  A    between atoms: N_8  and  C_9
REMARK    6  A    between atoms: C_9  and  C_10
REMARK    7  A    between atoms: C_10  and  C_11
REMARK    8  A    between atoms: N_24  and  O_34
REMARK    9  A    between atoms: N_27  and  C_28
REMARK                            x       y       z     vdW  Elec       q    Type
REMARK                         _______ _______ _______ _____ _____    ______ ____
ROOT
ATOM      1  C   UNL     1      -7.326   3.757  -0.946  0.00  0.00    +0.035 C 
ATOM      2  C   UNL     1      -6.135   3.917   0.001  0.00  0.00    +0.071 C 
ATOM      3  C   UNL     1      -5.031   2.898  -0.340  0.00  0.00    +0.224 C 
ATOM      4  N   UNL     1      -3.877   3.735  -0.700  0.00  0.00    -0.232 N 
ATOM      5  C   UNL     1      -4.218   5.026  -0.590  0.00  0.00    +0.311 C 
ATOM      6  O   UNL     1      -3.448   5.937  -0.825  0.00  0.00    -0.252 OA
ATOM      7  N   UNL     1      -5.485   5.221  -0.203  0.00  0.00    -0.276 N 
ATOM      8  C   UNL     1      -6.581   3.758   1.456  0.00  0.00    +0.035 C 
ENDROOT
BRANCH   4   9
ATOM      9  C   UNL     1      -2.620   3.259  -1.090  0.00  0.00    +0.040 A 
ATOM     10  C   UNL     1      -2.502   2.432  -2.199  0.00  0.00    +0.023 A 
ATOM     11  C   UNL     1      -1.261   1.959  -2.578  0.00  0.00    +0.002 A 
ATOM     12  C   UNL     1      -0.135   2.318  -1.861  0.00  0.00    +0.000 A 
ATOM     13  C   UNL     1      -0.247   3.147  -0.760  0.00  0.00    +0.002 A 
ATOM     14  C   UNL     1      -1.486   3.618  -0.373  0.00  0.00    +0.023 A 
ENDBRANCH   4   9
BRANCH   3  15
ATOM     15  N   UNL     1      -4.720   2.067   0.826  0.00  0.00    -0.144 N 
ATOM     16  C   UNL     1      -4.628   0.729   0.695  0.00  0.00    +0.331 C 
ATOM     17  O   UNL     1      -4.714   0.218  -0.406  0.00  0.00    -0.250 OA
ATOM     18  N   UNL     1      -4.440  -0.043   1.783  0.00  0.00    -0.268 N 
ATOM     19  H   UNL     1      -4.451   0.354   2.668  0.00  0.00    +0.156 HD
BRANCH  18  20
ATOM     20  C   UNL     1      -4.228  -1.419   1.637  0.00  0.00    +0.035 A 
ATOM     21  C   UNL     1      -3.550  -1.905   0.526  0.00  0.00    +0.023 A 
ATOM     22  C   UNL     1      -3.339  -3.263   0.387  0.00  0.00    +0.002 A 
ATOM     23  C   UNL     1      -3.811  -4.139   1.347  0.00  0.00    +0.000 A 
ATOM     24  C   UNL     1      -4.492  -3.659   2.451  0.00  0.00    +0.002 A 
ATOM     25  C   UNL     1      -4.701  -2.302   2.599  0.00  0.00    +0.023 A 
ENDBRANCH  18  20
BRANCH  15  26
ATOM     26  O   UNL     1      -4.515   2.670   2.090  0.00  0.00    -0.289 OA
ATOM     27  H   UNL     1      -4.389   2.039   2.812  0.00  0.00    +0.242 HD
ENDBRANCH  15  26
ENDBRANCH   3  15
BRANCH   7  28
ATOM     28  C   UNL     1      -6.121   6.526  -0.007  0.00  0.00    +0.115 C 
BRANCH  28  29
ATOM     29  C   UNL     1      -5.915   6.983   1.438  0.00  0.00    +0.057 C 
BRANCH  29  30
ATOM     30  C   UNL     1      -6.569   8.325   1.639  0.00  0.00    -0.011 A 
ATOM     31  C   UNL     1      -5.823   9.483   1.521  0.00  0.00    +0.006 A 
ATOM     32  C   UNL     1      -6.424  10.714   1.700  0.00  0.00    +0.000 A 
ATOM     33  C   UNL     1      -7.770  10.790   2.009  0.00  0.00    +0.003 A 
ATOM     34  C   UNL     1      -8.516   9.634   2.133  0.00  0.00    +0.038 A 
ATOM     35  C   UNL     1      -7.916   8.399   1.949  0.00  0.00    +0.127 A 
ATOM     36  F   UNL     1      -8.645   7.269   2.071  0.00  0.00    -0.205 F 
ENDBRANCH  29  30
ENDBRANCH  28  29
ENDBRANCH   7  28
TORSDOF 7
