REMARK  Name = ZINC09152473
REMARK  7 active torsions:
REMARK  status: ('A' for Active; 'I' for Inactive)
REMARK    1  A    between atoms: C_4  and  S_7
REMARK    2  A    between atoms: S_7  and  C_10
REMARK    3  A    between atoms: N_23  and  C_24
REMARK    4  A    between atoms: C_24  and  C_25
REMARK    5  A    between atoms: C_25  and  C_26
REMARK    6  A    between atoms: C_29  and  S_32
REMARK    7  A    between atoms: S_32  and  N_35
REMARK                            x       y       z     vdW  Elec       q    Type
REMARK                         _______ _______ _______ _____ _____    ______ ____
ROOT
ATOM      1  C   UNL     1       2.543   5.068   0.005  0.00  0.00    +0.249 A 
ATOM      2  C   UNL     1       2.305   3.705  -0.000  0.00  0.00    +0.204 A 
ATOM      3  N   UNL     1       1.168   2.987   0.007  0.00  0.00    -0.209 NA
ATOM      4  C   UNL     1       1.175   1.672  -0.000  0.00  0.00    +0.130 A 
ATOM      5  C   UNL     1       2.463   0.965  -0.010  0.00  0.00    +0.040 A 
ATOM      6  C   UNL     1       2.535  -0.428  -0.026  0.00  0.00    +0.013 A 
ATOM      7  C   UNL     1       3.767  -1.044  -0.042  0.00  0.00    +0.001 A 
ATOM      8  C   UNL     1       4.931  -0.290  -0.048  0.00  0.00    +0.002 A 
ATOM      9  C   UNL     1       4.876   1.089  -0.040  0.00  0.00    +0.028 A 
ATOM     10  C   UNL     1       3.645   1.729  -0.024  0.00  0.00    +0.080 A 
ATOM     11  N   UNL     1       3.539   3.108  -0.015  0.00  0.00    -0.192 N 
ATOM     12  N   UNL     1       4.482   4.143  -0.018  0.00  0.00    -0.057 NA
ATOM     13  N   UNL     1       3.856   5.267  -0.006  0.00  0.00    -0.108 NA
ATOM     14  N   UNL     1      -0.011   0.966   0.007  0.00  0.00    -0.328 N 
ATOM     15  H   UNL     1       0.002  -0.004   0.002  0.00  0.00    +0.147 HD
ENDROOT
BRANCH   1  16
ATOM     16  S   UNL     1       1.312   6.327   0.024  0.00  0.00    +0.047 S 
ATOM     17  O   UNL     1       1.913   7.491  -0.527  0.00  0.00    -0.163 OA
ATOM     18  O   UNL     1       0.132   5.750  -0.518  0.00  0.00    -0.163 OA
BRANCH  16  22
ATOM     19  C   UNL     1       0.418   7.261   4.362  0.00  0.00    +0.000 A 
ATOM     20  C   UNL     1       1.410   7.956   3.696  0.00  0.00    +0.002 A 
ATOM     21  C   UNL     1       1.683   7.670   2.371  0.00  0.00    +0.027 A 
ATOM     22  C   UNL     1       0.964   6.691   1.713  0.00  0.00    +0.095 A 
ATOM     23  C   UNL     1      -0.032   6.000   2.377  0.00  0.00    +0.027 A 
ATOM     24  C   UNL     1      -0.302   6.282   3.704  0.00  0.00    +0.002 A 
ENDBRANCH  16  22
ENDBRANCH   1  16
BRANCH  14  25
ATOM     25  C   UNL     1      -1.290   1.681   0.017  0.00  0.00    +0.107 C 
BRANCH  25  26
ATOM     26  C   UNL     1      -2.439   0.671   0.017  0.00  0.00    +0.054 C 
BRANCH  26  27
ATOM     27  C   UNL     1      -3.754   1.407   0.028  0.00  0.00    -0.046 A 
ATOM     28  C   UNL     1      -4.354   1.733   1.229  0.00  0.00    +0.005 A 
ATOM     29  C   UNL     1      -5.559   2.411   1.239  0.00  0.00    +0.029 A 
ATOM     30  C   UNL     1      -6.167   2.756   0.046  0.00  0.00    +0.105 A 
ATOM     31  C   UNL     1      -5.569   2.425  -1.155  0.00  0.00    +0.029 A 
ATOM     32  C   UNL     1      -4.363   1.751  -1.165  0.00  0.00    +0.005 A 
BRANCH  30  33
ATOM     33  S   UNL     1      -7.704   3.617   0.058  0.00  0.00    +0.056 S 
ATOM     34  O   UNL     1      -7.784   4.289   1.308  0.00  0.00    -0.153 OA
ATOM     35  O   UNL     1      -7.795   4.304  -1.183  0.00  0.00    -0.153 OA
BRANCH  33  36
ATOM     36  N   UNL     1      -8.905   2.477   0.057  0.00  0.00    -0.204 NA
ATOM     37  H   UNL     1      -8.678   1.534   0.050  0.00  0.00    +0.144 HD
ATOM     38  H   UNL     1      -9.835   2.751   0.062  0.00  0.00    +0.144 HD
ENDBRANCH  33  36
ENDBRANCH  30  33
ENDBRANCH  26  27
ENDBRANCH  25  26
ENDBRANCH  14  25
TORSDOF 7
