REMARK  Name = ZINC09135541
REMARK  12 active torsions:
REMARK  status: ('A' for Active; 'I' for Inactive)
REMARK    1  A    between atoms: C_1  and  C_2
REMARK    2  A    between atoms: C_3  and  C_13
REMARK    3  A    between atoms: C_4  and  C_12
REMARK    4  A    between atoms: C_7  and  C_8
REMARK    5  A    between atoms: C_8  and  O_10
REMARK    6  A    between atoms: O_10  and  C_11
REMARK    7  A    between atoms: C_13  and  C_15
REMARK    8  A    between atoms: N_19  and  C_29
REMARK    9  A    between atoms: C_20  and  C_22
REMARK   10  A    between atoms: C_29  and  C_30
REMARK   11  A    between atoms: C_30  and  C_31
REMARK   12  A    between atoms: C_31  and  N_32
REMARK                            x       y       z     vdW  Elec       q    Type
REMARK                         _______ _______ _______ _____ _____    ______ ____
ROOT
ATOM      1  C   UNL     1       0.252  -2.265  -3.430  0.00  0.00    +0.076 C 
ATOM      2  C   UNL     1       0.367  -2.310  -4.777  0.00  0.00    +0.249 C 
ATOM      3  C   UNL     1      -0.093  -3.628  -5.261  0.00  0.00    +0.288 C 
ATOM      4  O   UNL     1      -0.112  -3.976  -6.425  0.00  0.00    -0.266 OA
ATOM      5  N   UNL     1      -0.487  -4.386  -4.222  0.00  0.00    -0.283 N 
ATOM      6  C   UNL     1      -0.300  -3.602  -2.995  0.00  0.00    +0.145 C 
ATOM      7  O   UNL     1       0.831  -1.306  -5.558  0.00  0.00    -0.282 OA
ENDROOT
BRANCH   6   8
ATOM      8  C   UNL     1       0.678  -4.293  -2.080  0.00  0.00    -0.021 A 
ATOM      9  C   UNL     1       1.860  -4.801  -2.587  0.00  0.00    +0.006 A 
ATOM     10  C   UNL     1       2.757  -5.434  -1.748  0.00  0.00    +0.002 A 
ATOM     11  C   UNL     1       2.472  -5.562  -0.401  0.00  0.00    +0.020 A 
ATOM     12  C   UNL     1       1.290  -5.055   0.107  0.00  0.00    +0.041 A 
ATOM     13  C   UNL     1       0.395  -4.415  -0.732  0.00  0.00    +0.025 A 
ATOM     14 CL   UNL     1       0.932  -5.215   1.798  0.00  0.00    -0.084 Cl
ENDBRANCH   6   8
BRANCH   1  15
ATOM     15  C   UNL     1       0.602  -1.137  -2.559  0.00  0.00    +0.197 C 
ATOM     16  O   UNL     1       1.740  -1.019  -2.145  0.00  0.00    -0.287 OA
BRANCH  15  19
ATOM     17  C   UNL     1       1.080   1.500  -0.839  0.00  0.00    +0.047 C 
ATOM     18  C   UNL     1      -0.224   1.025  -1.424  0.00  0.00    -0.008 A 
ATOM     19  C   UNL     1      -0.425  -0.148  -2.186  0.00  0.00    +0.046 A 
ATOM     20  C   UNL     1      -1.769  -0.193  -2.516  0.00  0.00    +0.025 A 
ATOM     21  N   UNL     1      -2.370   0.887  -1.992  0.00  0.00    -0.352 N 
ATOM     22  H   UNL     1      -3.312   1.101  -2.074  0.00  0.00    +0.166 HD
ATOM     23  C   UNL     1      -1.436   1.642  -1.314  0.00  0.00    +0.128 A 
ATOM     24  C   UNL     1      -2.442  -1.270  -3.327  0.00  0.00    +0.064 C 
BRANCH  23  25
ATOM     25  C   UNL     1      -1.700   2.895  -0.599  0.00  0.00    +0.356 C 
ATOM     26  O   UNL     1      -0.792   3.477  -0.037  0.00  0.00    -0.243 OA
BRANCH  25  27
ATOM     27  O   UNL     1      -2.949   3.402  -0.565  0.00  0.00    -0.463 OA
ATOM     28  C   UNL     1      -3.133   4.626   0.149  0.00  0.00    +0.280 C 
ENDBRANCH  25  27
ENDBRANCH  23  25
ENDBRANCH  15  19
ENDBRANCH   1  15
BRANCH   5  29
ATOM     29  C   UNL     1      -1.007  -5.754  -4.300  0.00  0.00    +0.111 C 
BRANCH  29  30
ATOM     30  C   UNL     1       0.152  -6.747  -4.195  0.00  0.00    +0.040 C 
BRANCH  30  31
ATOM     31  C   UNL     1      -0.391  -8.175  -4.277  0.00  0.00    +0.124 C 
BRANCH  31  32
ATOM     32  N   UNL     1       0.719  -9.126  -4.177  0.00  0.00    -0.338 N 
ATOM     33  C   UNL     1       1.454  -9.629  -5.216  0.00  0.00    +0.104 A 
ATOM     34  C   UNL     1       2.367 -10.462  -4.681  0.00  0.00    +0.101 A 
ATOM     35  N   UNL     1       2.194 -10.466  -3.351  0.00  0.00    -0.352 N 
ATOM     36  C   UNL     1       1.212  -9.664  -3.041  0.00  0.00    +0.173 A 
ATOM     37  H   UNL     1       2.719 -10.982  -2.718  0.00  0.00    +0.166 HD
ENDBRANCH  31  32
ENDBRANCH  30  31
ENDBRANCH  29  30
ENDBRANCH   5  29
TORSDOF 9
