REMARK  Name = ZINC10061690
REMARK  8 active torsions:
REMARK  status: ('A' for Active; 'I' for Inactive)
REMARK    1  A    between atoms: C_1  and  N_45
REMARK    2  A    between atoms: C_2  and  N_45
REMARK    3  A    between atoms: C_3  and  C_4
REMARK    4  A    between atoms: C_3  and  N_45
REMARK    5  A    between atoms: C_4  and  C_5
REMARK    6  A    between atoms: C_5  and  N_6
REMARK    7  A    between atoms: C_17  and  C_19
REMARK    8  A    between atoms: C_19  and  C_20
REMARK                            x       y       z     vdW  Elec       q    Type
REMARK                         _______ _______ _______ _____ _____    ______ ____
ROOT
ATOM      1  N   UNL     1      -2.543  -2.147   1.683  0.00  0.00    -0.250 N 
ATOM      2  C   UNL     1      -3.245  -2.719   0.633  0.00  0.00    +0.168 A 
ATOM      3  N   UNL     1      -3.071  -2.557  -0.657  0.00  0.00    -0.224 NA
ATOM      4  C   UNL     1      -3.837  -3.184  -1.577  0.00  0.00    +0.080 A 
ATOM      5  C   UNL     1      -3.755  -3.098  -2.986  0.00  0.00    +0.032 A 
ATOM      6  C   UNL     1      -4.617  -3.806  -3.783  0.00  0.00    +0.040 A 
ATOM      7  C   UNL     1      -5.595  -4.630  -3.241  0.00  0.00    +0.125 A 
ATOM      8  C   UNL     1      -5.703  -4.738  -1.865  0.00  0.00    +0.055 A 
ATOM      9  C   UNL     1      -4.844  -4.031  -1.060  0.00  0.00    +0.043 A 
ATOM     10  S   UNL     1      -4.612  -3.869   0.694  0.00  0.00    -0.052 S 
ATOM     11  F   UNL     1      -6.432  -5.318  -4.048  0.00  0.00    -0.205 F 
ATOM     12  C   UNL     1      -1.528  -1.298   1.431  0.00  0.00    +0.226 C 
ATOM     13  O   UNL     1      -0.913  -0.798   2.349  0.00  0.00    -0.275 OA
ENDROOT
BRANCH   1  14
ATOM     14  C   UNL     1      -2.905  -2.467   3.066  0.00  0.00    +0.114 C 
BRANCH  14  15
ATOM     15  C   UNL     1      -3.954  -1.470   3.562  0.00  0.00    +0.001 C 
BRANCH  15  16
ATOM     16  C   UNL     1      -4.332  -1.804   5.007  0.00  0.00    -0.078 C 
BRANCH  16  19
ATOM     17  C   UNL     1      -6.602  -1.001   4.747  0.00  0.00    -0.097 C 
ATOM     18  C   UNL     1      -5.554  -0.984   6.930  0.00  0.00    -0.097 C 
ATOM     19  N   UNL     1      -5.330  -0.820   5.478  0.00  0.00    +0.376 N 
ATOM     20  H   UNL     1      -4.975   0.126   5.300  0.00  0.00    -0.083 HD
ENDBRANCH  16  19
ENDBRANCH  15  16
ENDBRANCH  14  15
ENDBRANCH   1  14
BRANCH  12  21
ATOM     21  C   UNL     1      -1.155  -0.969   0.008  0.00  0.00    +0.138 C 
BRANCH  21  22
ATOM     22  C   UNL     1       0.002  -0.004   0.002  0.00  0.00    -0.001 A 
ATOM     23  C   UNL     1       1.332  -0.266  -0.012  0.00  0.00    +0.011 A 
ATOM     24  C   UNL     1       2.223   0.790  -0.015  0.00  0.00    +0.008 A 
ATOM     25  C   UNL     1       1.742   2.057  -0.004  0.00  0.00    +0.045 A 
ATOM     26  S   UNL     1      -0.022   1.781   0.012  0.00  0.00    -0.101 S 
ENDBRANCH  21  22
ENDBRANCH  12  21
TORSDOF 6
