REMARK  Name = ZINC64727803
REMARK  7 active torsions:
REMARK  status: ('A' for Active; 'I' for Inactive)
REMARK    1  A    between atoms: C_4  and  C_7
REMARK    2  A    between atoms: C_7  and  C_9
REMARK    3  A    between atoms: C_7  and  N_14
REMARK    4  A    between atoms: C_15  and  C_17
REMARK    5  A    between atoms: C_17  and  N_18
REMARK    6  A    between atoms: C_21  and  C_26
REMARK    7  A    between atoms: C_26  and  C_27
REMARK                            x       y       z     vdW  Elec       q    Type
REMARK                         _______ _______ _______ _____ _____    ______ ____
ROOT
ATOM      1  N   UNL     1       6.012  -3.944   2.758  0.00  0.00    -0.216 N 
ATOM      2  C   UNL     1       6.829  -4.800   2.113  0.00  0.00    +0.244 C 
ATOM      3  O   UNL     1       6.599  -5.395   1.082  0.00  0.00    -0.273 OA
ATOM      4  C   UNL     1       8.095  -4.863   2.943  0.00  0.00    +0.165 C 
ATOM      5  N   UNL     1       7.819  -3.949   4.065  0.00  0.00    -0.287 N 
ATOM      6  C   UNL     1       6.582  -3.458   3.866  0.00  0.00    +0.310 C 
ATOM      7  O   UNL     1       6.042  -2.665   4.612  0.00  0.00    -0.252 OA
ATOM      8  H   UNL     1       8.414  -3.740   4.802  0.00  0.00    +0.151 HD
ENDROOT
BRANCH   1   9
ATOM      9  C   UNL     1       4.668  -3.585   2.299  0.00  0.00    +0.213 C 
BRANCH   9  11
ATOM     10  N   UNL     1       3.630  -1.873   0.845  0.00  0.00    -0.303 N 
ATOM     11  C   UNL     1       4.751  -2.385   1.391  0.00  0.00    +0.232 C 
ATOM     12  O   UNL     1       5.828  -1.880   1.151  0.00  0.00    -0.274 OA
ATOM     13  H   UNL     1       2.769  -2.277   1.038  0.00  0.00    +0.150 HD
BRANCH  10  14
ATOM     14  C   UNL     1       3.711  -0.707  -0.038  0.00  0.00    +0.140 C 
BRANCH  14  18
ATOM     15  C   UNL     1      -0.017   1.378   0.010  0.00  0.00    +0.000 A 
ATOM     16  C   UNL     1       1.171   2.086   0.002  0.00  0.00    +0.000 A 
ATOM     17  C   UNL     1       2.377   1.411  -0.013  0.00  0.00    +0.006 A 
ATOM     18  C   UNL     1       2.396   0.029  -0.020  0.00  0.00    -0.022 A 
ATOM     19  C   UNL     1       1.208  -0.679  -0.012  0.00  0.00    +0.006 A 
ATOM     20  C   UNL     1       0.002  -0.004   0.002  0.00  0.00    +0.000 A 
ENDBRANCH  14  18
BRANCH  14  21
ATOM     21  C   UNL     1       4.014  -1.161  -1.442  0.00  0.00    +0.014 A 
ATOM     22  C   UNL     1       4.843  -0.604  -2.359  0.00  0.00    +0.013 A 
ATOM     23  C   UNL     1       4.968  -1.200  -3.600  0.00  0.00    +0.008 A 
ATOM     24  C   UNL     1       4.257  -2.324  -3.864  0.00  0.00    +0.045 A 
ATOM     25  S   UNL     1       3.381  -2.575  -2.328  0.00  0.00    -0.099 S 
ENDBRANCH  14  21
ENDBRANCH  10  14
ENDBRANCH   9  11
ENDBRANCH   1   9
BRANCH   4  26
ATOM     26  C   UNL     1       8.336  -6.286   3.450  0.00  0.00    +0.065 C 
BRANCH  26  27
ATOM     27  C   UNL     1       9.661  -6.346   4.167  0.00  0.00    -0.039 C 
ATOM     28  C   UNL     1       9.871  -6.229   5.498  0.00  0.00    -0.001 A 
ATOM     29  C   UNL     1       8.965  -6.017   6.633  0.00  0.00    +0.010 A 
ATOM     30  C   UNL     1       9.483  -5.939   7.880  0.00  0.00    +0.001 A 
ATOM     31  C   UNL     1      10.860  -6.055   8.115  0.00  0.00    +0.002 A 
ATOM     32  C   UNL     1      11.755  -6.251   7.123  0.00  0.00    +0.026 A 
ATOM     33  C   UNL     1      11.321  -6.349   5.773  0.00  0.00    +0.043 A 
ATOM     34  N   UNL     1      11.981  -6.533   4.655  0.00  0.00    -0.380 N 
ATOM     35  C   UNL     1      11.023  -6.557   3.544  0.00  0.00    +0.144 C 
ATOM     36  H   UNL     1      12.942  -6.640   4.576  0.00  0.00    +0.160 HD
ENDBRANCH  26  27
ENDBRANCH   4  26
TORSDOF 7
