REMARK  Name = ZINC27249894
REMARK  11 active torsions:
REMARK  status: ('A' for Active; 'I' for Inactive)
REMARK    1  A    between atoms: C_1  and  C_2
REMARK    2  A    between atoms: C_2  and  C_3
REMARK    3  A    between atoms: C_3  and  C_4
REMARK    4  A    between atoms: C_4  and  C_5
REMARK    5  A    between atoms: C_4  and  C_13
REMARK    6  A    between atoms: C_4  and  O_29
REMARK    7  A    between atoms: C_8  and  O_11
REMARK    8  A    between atoms: O_11  and  C_12
REMARK    9  A    between atoms: C_13  and  C_15
REMARK   10  A    between atoms: C_13  and  C_22
REMARK   11  A    between atoms: C_15  and  N_16
REMARK                            x       y       z     vdW  Elec       q    Type
REMARK                         _______ _______ _______ _____ _____    ______ ____
ROOT
ATOM      1  C   UNL     1       2.237   4.337   0.584  0.00  0.00    +0.039 C 
ENDROOT
BRANCH   1   2
ATOM      2  C   UNL     1       2.111   3.461   1.804  0.00  0.00    -0.043 A 
ATOM      3  C   UNL     1       0.899   3.364   2.462  0.00  0.00    +0.005 A 
ATOM      4  C   UNL     1       0.780   2.556   3.577  0.00  0.00    +0.020 A 
ATOM      5  C   UNL     1       1.878   1.853   4.041  0.00  0.00    +0.041 A 
ATOM      6  C   UNL     1       3.092   1.954   3.385  0.00  0.00    +0.020 A 
ATOM      7  C   UNL     1       3.208   2.759   2.267  0.00  0.00    +0.005 A 
ATOM      8 CL   UNL     1       1.732   0.843   5.446  0.00  0.00    -0.084 Cl
ENDBRANCH   1   2
BRANCH   1   9
ATOM      9  C   UNL     1       1.363   3.778  -0.539  0.00  0.00    +0.096 C 
BRANCH   9  10
ATOM     10  C   UNL     1       1.354   2.272  -0.467  0.00  0.00    -0.015 A 
ATOM     11  C   UNL     1       0.246   1.567  -0.898  0.00  0.00    +0.010 A 
ATOM     12  C   UNL     1       0.235   0.187  -0.833  0.00  0.00    +0.046 A 
ATOM     13  C   UNL     1       1.338  -0.491  -0.334  0.00  0.00    +0.120 A 
ATOM     14  C   UNL     1       2.449   0.219   0.098  0.00  0.00    +0.046 A 
ATOM     15  C   UNL     1       2.455   1.599   0.030  0.00  0.00    +0.010 A 
BRANCH  13  16
ATOM     16  O   UNL     1       1.330  -1.848  -0.269  0.00  0.00    -0.495 OA
ATOM     17  C   UNL     1       2.500  -2.479   0.256  0.00  0.00    +0.277 C 
ENDBRANCH  13  16
ENDBRANCH   9  10
BRANCH   9  18
ATOM     18  O   UNL     1       0.029   4.269  -0.394  0.00  0.00    -0.383 OA
ATOM     19  H   UNL     1      -0.542   4.050   0.520  0.00  0.00    +0.211 HD
ENDBRANCH   9  18
BRANCH   9  20
ATOM     20  C   UNL     1       1.925   4.220  -1.892  0.00  0.00    +0.040 C 
BRANCH  20  22
ATOM     21  C   UNL     1       2.420   6.197  -3.338  0.00  0.00    +0.004 C 
ATOM     22  C   UNL     1       2.009   5.747  -1.934  0.00  0.00    -0.000 C 
ENDBRANCH  20  22
ENDBRANCH   9  20
ENDBRANCH   1   9
BRANCH   1  23
ATOM     23  C   UNL     1       1.781   5.757   0.927  0.00  0.00    -0.068 C 
BRANCH  23  24
ATOM     24  N   UNL     1       2.858   6.459   1.638  0.00  0.00    +0.380 N 
ATOM     25  C   UNL     1       2.952   6.005   3.031  0.00  0.00    -0.079 C 
ATOM     26  C   UNL     1       4.171   6.647   3.697  0.00  0.00    -0.019 C 
ATOM     27  C   UNL     1       4.031   8.171   3.646  0.00  0.00    -0.004 C 
ATOM     28  C   UNL     1       3.886   8.614   2.187  0.00  0.00    -0.019 C 
ATOM     29  C   UNL     1       2.675   7.914   1.565  0.00  0.00    -0.079 C 
ATOM     30  H   UNL     1       3.809   6.215   1.141  0.00  0.00    -0.082 HD
ENDBRANCH  23  24
ENDBRANCH   1  23
TORSDOF 9
