REMARK  Name = ZINC08951082
REMARK  8 active torsions:
REMARK  status: ('A' for Active; 'I' for Inactive)
REMARK    1  A    between atoms: C_1  and  C_2
REMARK    2  A    between atoms: C_7  and  S_16
REMARK    3  A    between atoms: S_16  and  C_17
REMARK    4  A    between atoms: C_17  and  C_19
REMARK    5  A    between atoms: C_17  and  C_20
REMARK    6  A    between atoms: N_22  and  C_23
REMARK    7  A    between atoms: C_28  and  O_29
REMARK    8  A    between atoms: O_29  and  C_30
REMARK                            x       y       z     vdW  Elec       q    Type
REMARK                         _______ _______ _______ _____ _____    ______ ____
ROOT
ATOM      1  S   UNL     1      -0.848   1.655   1.518  0.00  0.00    -0.073 S 
ENDROOT
BRANCH   1   8
ATOM      2  C   UNL     1      -7.202   0.285   4.241  0.00  0.00    +0.044 C 
ATOM      3  C   UNL     1      -5.884   0.476   3.536  0.00  0.00    -0.038 A 
ATOM      4  C   UNL     1      -5.632  -0.161   2.370  0.00  0.00    +0.052 A 
ATOM      5  C   UNL     1      -4.393   0.016   1.710  0.00  0.00    +0.162 A 
ATOM      6  N   UNL     1      -3.900  -0.486   0.593  0.00  0.00    -0.129 NA
ATOM      7  N   UNL     1      -2.715  -0.028   0.395  0.00  0.00    -0.122 NA
ATOM      8  C   UNL     1      -2.376   0.791   1.365  0.00  0.00    +0.197 A 
ATOM      9  N   UNL     1      -3.425   0.843   2.236  0.00  0.00    -0.270 N 
ATOM     10  C   UNL     1      -3.640   1.522   3.423  0.00  0.00    +0.058 A 
ATOM     11  C   UNL     1      -4.861   1.362   4.101  0.00  0.00    +0.003 A 
ATOM     12  C   UNL     1      -5.085   2.044   5.300  0.00  0.00    +0.030 A 
ATOM     13  C   UNL     1      -4.105   2.870   5.808  0.00  0.00    +0.042 A 
ATOM     14  C   UNL     1      -2.901   3.026   5.136  0.00  0.00    +0.022 A 
ATOM     15  C   UNL     1      -2.667   2.358   3.952  0.00  0.00    +0.028 A 
ATOM     16 CL   UNL     1      -4.379   3.721   7.297  0.00  0.00    -0.084 Cl
ENDBRANCH   1   8
BRANCH   1  17
ATOM     17  C   UNL     1      -0.008   1.075   0.024  0.00  0.00    +0.137 C 
ATOM     18  C   UNL     1      -0.759   1.577  -1.211  0.00  0.00    +0.029 C 
BRANCH  17  19
ATOM     19  C   UNL     1       1.403   1.603   0.003  0.00  0.00    +0.230 C 
ATOM     20  O   UNL     1       1.700   2.567   0.678  0.00  0.00    -0.274 OA
ATOM     21  N   UNL     1       2.336   1.006  -0.765  0.00  0.00    -0.282 N 
ATOM     22  H   UNL     1       2.116   0.198  -1.254  0.00  0.00    +0.155 HD
BRANCH  21  23
ATOM     23  C   UNL     1       3.623   1.552  -0.857  0.00  0.00    +0.077 A 
ATOM     24  C   UNL     1       4.194   2.174   0.243  0.00  0.00    +0.047 A 
ATOM     25  C   UNL     1       5.465   2.712   0.150  0.00  0.00    +0.043 A 
ATOM     26  C   UNL     1       6.168   2.632  -1.039  0.00  0.00    +0.024 A 
ATOM     27  C   UNL     1       5.604   2.013  -2.139  0.00  0.00    +0.049 A 
ATOM     28  C   UNL     1       4.334   1.467  -2.052  0.00  0.00    +0.141 A 
ATOM     29 CL   UNL     1       6.179   3.491   1.528  0.00  0.00    -0.083 Cl
BRANCH  28  30
ATOM     30  O   UNL     1       3.780   0.853  -3.132  0.00  0.00    -0.493 OA
ATOM     31  C   UNL     1       4.567   0.803  -4.323  0.00  0.00    +0.277 C 
ENDBRANCH  28  30
ENDBRANCH  21  23
ENDBRANCH  17  19
ENDBRANCH   1  17
TORSDOF 5
