REMARK  Name = ZINC40093378
REMARK  14 active torsions:
REMARK  status: ('A' for Active; 'I' for Inactive)
REMARK    1  A    between atoms: C_1  and  C_2
REMARK    2  A    between atoms: C_4  and  C_12
REMARK    3  A    between atoms: C_7  and  O_8
REMARK    4  A    between atoms: O_8  and  C_9
REMARK    5  A    between atoms: C_9  and  C_10
REMARK    6  A    between atoms: C_9  and  C_11
REMARK    7  A    between atoms: C_12  and  C_14
REMARK    8  A    between atoms: N_18  and  C_31
REMARK    9  A    between atoms: C_19  and  C_21
REMARK   10  A    between atoms: C_23  and  O_29
REMARK   11  A    between atoms: C_24  and  O_28
REMARK   12  A    between atoms: O_29  and  C_30
REMARK   13  A    between atoms: C_31  and  C_32
REMARK   14  A    between atoms: C_32  and  O_33
REMARK                            x       y       z     vdW  Elec       q    Type
REMARK                         _______ _______ _______ _____ _____    ______ ____
ROOT
ATOM      1  C   UNL     1      -0.073  -3.527  -3.564  0.00  0.00    +0.076 C 
ATOM      2  C   UNL     1       0.002  -3.898  -4.864  0.00  0.00    +0.249 C 
ATOM      3  C   UNL     1       0.331  -5.336  -4.940  0.00  0.00    +0.288 C 
ATOM      4  O   UNL     1       0.468  -5.967  -5.970  0.00  0.00    -0.266 OA
ATOM      5  N   UNL     1       0.458  -5.845  -3.701  0.00  0.00    -0.281 N 
ATOM      6  C   UNL     1       0.222  -4.759  -2.741  0.00  0.00    +0.145 C 
ATOM      7  O   UNL     1      -0.194  -3.081  -5.924  0.00  0.00    -0.282 OA
ENDROOT
BRANCH   6   8
ATOM      8  C   UNL     1      -0.957  -5.093  -1.865  0.00  0.00    -0.018 A 
ATOM      9  C   UNL     1      -0.935  -4.762  -0.523  0.00  0.00    +0.055 A 
ATOM     10  C   UNL     1      -2.018  -5.068   0.285  0.00  0.00    +0.163 A 
ATOM     11  C   UNL     1      -3.129  -5.707  -0.259  0.00  0.00    +0.173 A 
ATOM     12  C   UNL     1      -3.146  -6.035  -1.605  0.00  0.00    +0.063 A 
ATOM     13  C   UNL     1      -2.062  -5.723  -2.406  0.00  0.00    +0.025 A 
ATOM     14 BR   UNL     1      -4.652  -6.904  -2.348  0.00  0.00    -0.046 Br
BRANCH  11  15
ATOM     15  O   UNL     1      -4.195  -6.010   0.530  0.00  0.00    -0.503 OA
ATOM     16  H   UNL     1      -4.864  -5.313   0.572  0.00  0.00    +0.292 HD
ENDBRANCH  11  15
BRANCH  10  17
ATOM     17  O   UNL     1      -1.997  -4.744   1.605  0.00  0.00    -0.491 OA
ATOM     18  C   UNL     1      -0.876  -3.990   2.070  0.00  0.00    +0.277 C 
ENDBRANCH  10  17
ENDBRANCH   6   8
BRANCH   1  19
ATOM     19  C   UNL     1      -0.377  -2.187  -3.054  0.00  0.00    +0.195 C 
ATOM     20  O   UNL     1      -1.471  -1.692  -3.254  0.00  0.00    -0.287 OA
BRANCH  19  24
ATOM     21  C   UNL     1       0.926   1.806  -0.363  0.00  0.00    +0.047 C 
ATOM     22  C   UNL     1       1.275   0.485  -1.000  0.00  0.00    -0.008 A 
ATOM     23  C   UNL     1       0.319  -0.211  -1.706  0.00  0.00    +0.018 A 
ATOM     24  C   UNL     1       0.644  -1.436  -2.296  0.00  0.00    +0.023 A 
ATOM     25  C   UNL     1       1.938  -1.949  -2.167  0.00  0.00    +0.015 A 
ATOM     26  C   UNL     1       2.887  -1.247  -1.459  0.00  0.00    +0.046 A 
ATOM     27  C   UNL     1       2.562  -0.026  -0.878  0.00  0.00    +0.124 A 
BRANCH  27  28
ATOM     28  O   UNL     1       3.502   0.666  -0.187  0.00  0.00    -0.489 OA
BRANCH  28  29
ATOM     29  C   UNL     1       4.766   0.027   0.008  0.00  0.00    +0.167 C 
ATOM     30  C   UNL     1       5.659   0.284  -1.207  0.00  0.00    +0.051 C 
ATOM     31  C   UNL     1       5.435   0.593   1.262  0.00  0.00    +0.051 C 
ENDBRANCH  28  29
ENDBRANCH  27  28
ENDBRANCH  19  24
ENDBRANCH   1  19
BRANCH   5  32
ATOM     32  C   UNL     1       0.778  -7.235  -3.368  0.00  0.00    +0.137 C 
BRANCH  32  33
ATOM     33  C   UNL     1       2.296  -7.397  -3.262  0.00  0.00    +0.175 C 
BRANCH  33  34
ATOM     34  O   UNL     1       2.783  -6.623  -2.164  0.00  0.00    -0.393 OA
ATOM     35  H   UNL     1       3.740  -6.679  -2.037  0.00  0.00    +0.209 HD
ENDBRANCH  33  34
ENDBRANCH  32  33
ENDBRANCH   5  32
TORSDOF 10
