REMARK  Name = ZINC14975916
REMARK  6 active torsions:
REMARK  status: ('A' for Active; 'I' for Inactive)
REMARK    1  A    between atoms: C_1  and  C_2
REMARK    2  A    between atoms: C_5  and  S_8
REMARK    3  A    between atoms: S_8  and  N_11
REMARK    4  A    between atoms: C_13  and  C_20
REMARK    5  A    between atoms: C_20  and  C_21
REMARK    6  A    between atoms: C_21  and  N_40
REMARK                            x       y       z     vdW  Elec       q    Type
REMARK                         _______ _______ _______ _____ _____    ______ ____
ROOT
ATOM      1  N   UNL     1       1.564  -2.011  -0.023  0.00  0.00    -0.218 N 
ATOM      2  C   UNL     1       2.926  -2.139  -0.037  0.00  0.00    +0.116 A 
ATOM      3  C   UNL     1       3.499  -0.925  -0.036  0.00  0.00    -0.022 A 
ATOM      4  C   UNL     1       2.416   0.060  -0.021  0.00  0.00    +0.005 A 
ATOM      5  C   UNL     1       1.218  -0.678  -0.013  0.00  0.00    +0.072 A 
ATOM      6  C   UNL     1       0.002  -0.004   0.002  0.00  0.00    +0.028 A 
ATOM      7  C   UNL     1      -0.017   1.374   0.010  0.00  0.00    +0.002 A 
ATOM      8  C   UNL     1       1.167   2.098   0.002  0.00  0.00    +0.001 A 
ATOM      9  C   UNL     1       2.374   1.456  -0.013  0.00  0.00    +0.010 A 
ENDROOT
BRANCH   1  10
ATOM     10  S   UNL     1       0.490  -3.272  -0.020  0.00  0.00    +0.084 S 
ATOM     11  O   UNL     1      -0.465  -2.995  -1.035  0.00  0.00    -0.148 OA
ATOM     12  O   UNL     1       1.263  -4.464  -0.006  0.00  0.00    -0.148 OA
BRANCH  10  17
ATOM     13  C   UNL     1      -2.472  -3.077   5.234  0.00  0.00    +0.044 C 
ATOM     14  C   UNL     1      -1.733  -3.126   3.921  0.00  0.00    -0.050 A 
ATOM     15  C   UNL     1      -2.224  -2.442   2.825  0.00  0.00    +0.005 A 
ATOM     16  C   UNL     1      -1.545  -2.487   1.622  0.00  0.00    +0.029 A 
ATOM     17  C   UNL     1      -0.375  -3.215   1.514  0.00  0.00    +0.111 A 
ATOM     18  C   UNL     1       0.113  -3.904   2.609  0.00  0.00    +0.029 A 
ATOM     19  C   UNL     1      -0.563  -3.855   3.814  0.00  0.00    +0.005 A 
ENDBRANCH  10  17
ENDBRANCH   1  10
BRANCH   3  20
ATOM     20  C   UNL     1       4.978  -0.633  -0.048  0.00  0.00    +0.018 C 
BRANCH  20  21
ATOM     21  C   UNL     1       5.466  -0.418   1.386  0.00  0.00    -0.082 C 
BRANCH  21  24
ATOM     22  H   UNL     1       7.114   0.660   0.785  0.00  0.00    -0.090 HD
ATOM     23  H   UNL     1       7.254   0.014   2.311  0.00  0.00    -0.090 HD
ATOM     24  N   UNL     1       6.916  -0.154   1.365  0.00  0.00    +0.378 N 
ATOM     25  H   UNL     1       7.402  -0.970   0.975  0.00  0.00    -0.090 HD
ENDBRANCH  21  24
ENDBRANCH  20  21
ENDBRANCH   3  20
TORSDOF 5
