REMARK  Name = ZINC39869791
REMARK  4 active torsions:
REMARK  status: ('A' for Active; 'I' for Inactive)
REMARK    1  A    between atoms: C_1  and  C_2
REMARK    2  A    between atoms: C_6  and  O_26
REMARK    3  A    between atoms: C_7  and  N_8
REMARK    4  A    between atoms: C_14  and  C_15
REMARK                            x       y       z     vdW  Elec       q    Type
REMARK                         _______ _______ _______ _____ _____    ______ ____
ROOT
ATOM      1  N   UNL     1      -0.590   0.042   2.298  0.00  0.00    -0.293 N 
ATOM      2  C   UNL     1      -0.818  -0.610   3.481  0.00  0.00    +0.156 C 
ATOM      3  N   UNL     1      -1.037  -1.901   3.678  0.00  0.00    -0.154 NA
ATOM      4  C   UNL     1      -1.244  -2.406   4.874  0.00  0.00    +0.276 C 
ATOM      5  O   UNL     1      -1.444  -3.598   5.044  0.00  0.00    -0.267 OA
ATOM      6  C   UNL     1      -1.220  -1.449   6.005  0.00  0.00    +0.079 C 
ATOM      7  C   UNL     1      -1.398  -1.667   7.335  0.00  0.00    +0.029 C 
ATOM      8  S   UNL     1      -0.884   0.074   5.129  0.00  0.00    -0.051 S 
ATOM      9  H   UNL     1      -0.363   0.985   2.300  0.00  0.00    +0.154 HD
ENDROOT
BRANCH   7  10
ATOM     10  C   UNL     1      -1.471  -0.533   8.260  0.00  0.00    -0.016 A 
ATOM     11  C   UNL     1      -1.726   0.753   7.790  0.00  0.00    +0.008 A 
ATOM     12  C   UNL     1      -1.794   1.823   8.670  0.00  0.00    +0.001 A 
ATOM     13  C   UNL     1      -1.617   1.665  10.011  0.00  0.00    +0.008 A 
ATOM     14  C   UNL     1      -1.357   0.396  10.556  0.00  0.00    -0.017 A 
ATOM     15  C   UNL     1      -1.284  -0.729   9.698  0.00  0.00    -0.011 A 
ATOM     16  C   UNL     1      -1.031  -1.995  10.237  0.00  0.00    +0.009 A 
ATOM     17  C   UNL     1      -0.863  -2.133  11.583  0.00  0.00    +0.001 A 
ATOM     18  C   UNL     1      -0.940  -1.030  12.431  0.00  0.00    +0.001 A 
ATOM     19  C   UNL     1      -1.172   0.218  11.938  0.00  0.00    +0.008 A 
ENDBRANCH   7  10
BRANCH   1  26
ATOM     20  C   UNL     1      -2.595   0.838   0.444  0.00  0.00    +0.046 C 
ATOM     21  C   UNL     1      -1.648  -0.297   0.154  0.00  0.00    -0.026 A 
ATOM     22  C   UNL     1      -1.735  -0.982  -1.044  0.00  0.00    +0.005 A 
ATOM     23  C   UNL     1      -0.867  -2.023  -1.315  0.00  0.00    +0.004 A 
ATOM     24  C   UNL     1       0.092  -2.387  -0.388  0.00  0.00    +0.047 A 
ATOM     25  C   UNL     1       0.187  -1.706   0.815  0.00  0.00    +0.138 A 
ATOM     26  C   UNL     1      -0.684  -0.653   1.086  0.00  0.00    +0.078 A 
BRANCH  25  27
ATOM     27  O   UNL     1       1.130  -2.063   1.727  0.00  0.00    -0.505 OA
ATOM     28  H   UNL     1       1.972  -1.598   1.625  0.00  0.00    +0.292 HD
ENDBRANCH  25  27
ENDBRANCH   1  26
TORSDOF 3
