REMARK  Name = ZINC27659602
REMARK  7 active torsions:
REMARK  status: ('A' for Active; 'I' for Inactive)
REMARK    1  A    between atoms: C_1  and  C_2
REMARK    2  A    between atoms: C_2  and  C_4
REMARK    3  A    between atoms: C_2  and  S_17
REMARK    4  A    between atoms: N_6  and  C_7
REMARK    5  A    between atoms: C_10  and  N_14
REMARK    6  A    between atoms: S_17  and  C_18
REMARK    7  A    between atoms: C_22  and  C_24
REMARK                            x       y       z     vdW  Elec       q    Type
REMARK                         _______ _______ _______ _____ _____    ______ ____
ROOT
ATOM      1  C   UNL     1       4.361  -1.089  -1.218  0.00  0.00    +0.029 C 
ATOM      2  C   UNL     1       3.744  -0.964   0.176  0.00  0.00    +0.137 C 
ENDROOT
BRANCH   2   3
ATOM      3  C   UNL     1       2.427  -0.238   0.079  0.00  0.00    +0.230 C 
ATOM      4  O   UNL     1       1.388  -0.864   0.086  0.00  0.00    -0.274 OA
ATOM      5  N   UNL     1       2.403   1.106  -0.015  0.00  0.00    -0.283 N 
ATOM      6  H   UNL     1       3.345   1.668  -0.095  0.00  0.00    +0.155 HD
BRANCH   5   7
ATOM      7  C   UNL     1       1.179   1.786  -0.011  0.00  0.00    +0.052 A 
ATOM      8  C   UNL     1       0.064   1.215  -0.608  0.00  0.00    +0.027 A 
ATOM      9  C   UNL     1      -1.141   1.891  -0.607  0.00  0.00    +0.034 A 
ATOM     10  C   UNL     1      -1.239   3.132  -0.003  0.00  0.00    +0.128 A 
ATOM     11  C   UNL     1      -0.131   3.704   0.593  0.00  0.00    +0.054 A 
ATOM     12  C   UNL     1       1.079   3.034   0.591  0.00  0.00    +0.064 A 
ATOM     13 CL   UNL     1       2.471   3.753   1.341  0.00  0.00    -0.082 Cl
BRANCH  10  14
ATOM     14  N   UNL     1      -2.533   3.851  -0.001  0.00  0.00    +0.056 N 
ATOM     15  O   UNL     1      -2.620   4.946   0.527  0.00  0.00    -0.126 OA
ATOM     16  O   UNL     1      -3.510   3.349  -0.526  0.00  0.00    -0.126 OA
ENDBRANCH  10  14
ENDBRANCH   5   7
ENDBRANCH   2   3
BRANCH   2  17
ATOM     17  S   UNL     1       3.474  -2.615   0.867  0.00  0.00    -0.075 S 
BRANCH  17  18
ATOM     18  C   UNL     1       5.143  -3.164   1.008  0.00  0.00    +0.168 A 
ATOM     19  N   UNL     1       5.542  -4.373   1.490  0.00  0.00    -0.339 N 
ATOM     20  H   UNL     1       4.794  -5.102   1.835  0.00  0.00    +0.167 HD
ATOM     21  C   UNL     1       6.914  -4.406   1.428  0.00  0.00    +0.113 A 
ATOM     22  C   UNL     1       7.314  -3.214   0.920  0.00  0.00    +0.090 A 
ATOM     23  N   UNL     1       6.205  -2.473   0.672  0.00  0.00    -0.222 NA
BRANCH  22  24
ATOM     24  C   UNL     1       8.716  -2.795   0.677  0.00  0.00    +0.002 A 
ATOM     25  C   UNL     1       9.767  -3.658   0.984  0.00  0.00    +0.010 A 
ATOM     26  C   UNL     1      11.069  -3.266   0.750  0.00  0.00    +0.001 A 
ATOM     27  C   UNL     1      11.333  -2.014   0.225  0.00  0.00    +0.000 A 
ATOM     28  C   UNL     1      10.294  -1.151  -0.076  0.00  0.00    +0.001 A 
ATOM     29  C   UNL     1       8.988  -1.535   0.148  0.00  0.00    +0.010 A 
ENDBRANCH  22  24
ENDBRANCH  17  18
ENDBRANCH   2  17
TORSDOF 6
