REMARK  Name = ZINC08672808
REMARK  10 active torsions:
REMARK  status: ('A' for Active; 'I' for Inactive)
REMARK    1  A    between atoms: C_1  and  N_2
REMARK    2  A    between atoms: N_2  and  C_3
REMARK    3  A    between atoms: N_2  and  C_29
REMARK    4  A    between atoms: C_6  and  C_9
REMARK    5  A    between atoms: C_10  and  C_11
REMARK    6  A    between atoms: C_14  and  C_18
REMARK    7  A    between atoms: C_19  and  C_20
REMARK    8  A    between atoms: C_23  and  N_26
REMARK    9  A    between atoms: N_26  and  C_27
REMARK   10  A    between atoms: N_26  and  C_28
REMARK                            x       y       z     vdW  Elec       q    Type
REMARK                         _______ _______ _______ _____ _____    ______ ____
ROOT
ATOM      1  C   UNL     1       0.251  -2.922   7.312  0.00  0.00    +0.085 A 
ATOM      2  N   UNL     1       0.372  -4.246   7.288  0.00  0.00    -0.133 N 
ATOM      3  O   UNL     1       0.358  -4.920   6.043  0.00  0.00    -0.163 OA
ATOM      4  C   UNL     1       0.507  -4.949   8.408  0.00  0.00    +0.085 A 
ATOM      5  C   UNL     1       0.524  -4.311   9.652  0.00  0.00    +0.029 A 
ATOM      6  C   UNL     1       0.399  -2.933   9.710  0.00  0.00    +0.004 A 
ATOM      7  C   UNL     1       0.267  -2.228   8.526  0.00  0.00    +0.029 A 
ENDROOT
BRANCH   1   9
ATOM      8  C   UNL     1       0.090  -0.837   6.056  0.00  0.00    +0.010 C 
ATOM      9  C   UNL     1       0.105  -2.180   6.049  0.00  0.00    +0.030 C 
BRANCH   8  13
ATOM     10  C   UNL     1      -0.006   1.306   2.393  0.00  0.00    +0.029 A 
ATOM     11  C   UNL     1       0.011   1.997   3.601  0.00  0.00    +0.023 A 
ATOM     12  C   UNL     1       0.042   1.305   4.792  0.00  0.00    +0.010 A 
ATOM     13  C   UNL     1       0.057  -0.093   4.786  0.00  0.00    -0.025 A 
ATOM     14  C   UNL     1       0.040  -0.784   3.570  0.00  0.00    +0.010 A 
ATOM     15  C   UNL     1       0.004  -0.085   2.384  0.00  0.00    +0.023 A 
BRANCH  10  17
ATOM     16  C   UNL     1      -0.061   1.284  -0.082  0.00  0.00    +0.129 C 
ATOM     17  N   UNL     1      -0.037   2.010   1.190  0.00  0.00    -0.336 N 
ATOM     18  C   UNL     1      -0.047   3.475   1.198  0.00  0.00    +0.129 C 
ENDBRANCH  10  17
ENDBRANCH   8  13
ENDBRANCH   1   9
BRANCH   4  19
ATOM     19  C   UNL     1       0.638  -6.414   8.338  0.00  0.00    +0.030 C 
ATOM     20  C   UNL     1       0.670  -7.141   9.467  0.00  0.00    +0.010 C 
BRANCH  20  21
ATOM     21  C   UNL     1       0.689  -8.612   9.396  0.00  0.00    -0.025 A 
ATOM     22  C   UNL     1       0.679  -9.254   8.154  0.00  0.00    +0.010 A 
ATOM     23  C   UNL     1       0.697 -10.630   8.092  0.00  0.00    +0.023 A 
ATOM     24  C   UNL     1       0.725 -11.380   9.263  0.00  0.00    +0.029 A 
ATOM     25  C   UNL     1       0.735 -10.745  10.501  0.00  0.00    +0.023 A 
ATOM     26  C   UNL     1       0.723  -9.370  10.571  0.00  0.00    +0.010 A 
BRANCH  24  27
ATOM     27  N   UNL     1       0.743 -12.773   9.196  0.00  0.00    -0.336 N 
ATOM     28  C   UNL     1       0.853 -13.443   7.897  0.00  0.00    +0.129 C 
ATOM     29  C   UNL     1       0.651 -13.567  10.424  0.00  0.00    +0.129 C 
ENDBRANCH  24  27
ENDBRANCH  20  21
ENDBRANCH   4  19
TORSDOF 6
