REMARK  Name = ZINC04944150
REMARK  5 active torsions:
REMARK  status: ('A' for Active; 'I' for Inactive)
REMARK    1  A    between atoms: C_1  and  C_2
REMARK    2  A    between atoms: C_9  and  C_11
REMARK    3  A    between atoms: C_12  and  C_32
REMARK    4  A    between atoms: C_16  and  C_18
REMARK    5  A    between atoms: C_28  and  C_31
REMARK                            x       y       z     vdW  Elec       q    Type
REMARK                         _______ _______ _______ _____ _____    ______ ____
ROOT
ATOM      1  C   UNL     1       1.246   1.373   0.054  0.00  0.00    +0.043 C 
ATOM      2  C   UNL     1       1.825   2.419  -0.559  0.00  0.00    +0.014 C 
ATOM      3  N   UNL     1       1.105   3.205  -1.416  0.00  0.00    -0.321 N 
ATOM      4  C   UNL     1      -0.059   2.747  -1.973  0.00  0.00    +0.016 C 
ATOM      5  C   UNL     1      -0.720   1.708  -1.421  0.00  0.00    +0.024 C 
ATOM      6  C   UNL     1      -0.199   1.040  -0.173  0.00  0.00    +0.090 C 
ATOM      7  C   UNL     1      -1.908   1.218  -1.991  0.00  0.00    +0.162 C 
ATOM      8  O   UNL     1      -2.481   0.285  -1.465  0.00  0.00    -0.292 OA
ATOM      9  C   UNL     1      -2.482   1.828  -3.240  0.00  0.00    +0.083 C 
ATOM     10  C   UNL     1      -1.343   2.424  -4.074  0.00  0.00    -0.001 C 
ATOM     11  C   UNL     1      -0.584   3.433  -3.210  0.00  0.00    +0.055 C 
ATOM     12  C   UNL     1      -1.919   3.126  -5.305  0.00  0.00    +0.008 C 
ATOM     13  C   UNL     1       3.277   2.728  -0.302  0.00  0.00    +0.061 C 
ATOM     14  H   UNL     1       1.460   4.216  -1.664  0.00  0.00    +0.152 HD
ENDROOT
BRANCH   1  23
ATOM     15  C   UNL     1       5.760  -2.031   5.400  0.00  0.00    +0.045 C 
ATOM     16  C   UNL     1       4.835  -1.188   4.561  0.00  0.00    -0.032 A 
ATOM     17  C   UNL     1       4.247  -0.049   5.093  0.00  0.00    +0.008 A 
ATOM     18  C   UNL     1       3.408   0.700   4.287  0.00  0.00    +0.044 A 
ATOM     19  C   UNL     1       3.175   0.283   2.981  0.00  0.00    +0.125 A 
ATOM     20  N   UNL     1       3.756  -0.810   2.509  0.00  0.00    -0.240 NA
ATOM     21  C   UNL     1       4.564  -1.540   3.253  0.00  0.00    +0.116 A 
ATOM     22  N   UNL     1       2.329   1.024   2.160  0.00  0.00    -0.267 N 
ATOM     23  C   UNL     1       2.015   0.570   0.930  0.00  0.00    +0.248 C 
ATOM     24  O   UNL     1       2.393  -0.531   0.573  0.00  0.00    -0.270 OA
ATOM     25  H   UNL     1       1.917   1.980   2.515  0.00  0.00    +0.157 HD
ENDBRANCH   1  23
BRANCH   6  26
ATOM     26  C   UNL     1      -1.006   1.507   1.011  0.00  0.00    -0.033 A 
ATOM     27  C   UNL     1      -1.723   0.594   1.762  0.00  0.00    +0.005 A 
ATOM     28  C   UNL     1      -2.464   1.021   2.849  0.00  0.00    +0.003 A 
ATOM     29  C   UNL     1      -2.489   2.361   3.185  0.00  0.00    +0.038 A 
ATOM     30  C   UNL     1      -1.772   3.276   2.433  0.00  0.00    +0.124 A 
ATOM     31  C   UNL     1      -1.026   2.846   1.348  0.00  0.00    +0.043 A 
ATOM     32  F   UNL     1      -1.795   4.587   2.761  0.00  0.00    -0.205 F 
ENDBRANCH   6  26
TORSDOF 2
