REMARK  Name = ZINC07779855
REMARK  2 active torsions:
REMARK  status: ('A' for Active; 'I' for Inactive)
REMARK    1  A    between atoms: C_1  and  C_2
REMARK    2  A    between atoms: N_18  and  C_19
REMARK                            x       y       z     vdW  Elec       q    Type
REMARK                         _______ _______ _______ _____ _____    ______ ____
ROOT
ATOM      1  C   UNL     1       0.024   1.496  -0.004  0.00  0.00    +0.026 C 
ATOM      2  C   UNL     1       0.013  -0.034   0.004  0.00  0.00    +0.097 C 
ATOM      3  C   UNL     1      -1.410  -0.531   0.026  0.00  0.00    +0.048 C 
ATOM      4  C   UNL     1      -2.037  -0.819  -1.181  0.00  0.00    +0.022 C 
ATOM      5  C   UNL     1      -1.540  -0.592  -2.485  0.00  0.00    +0.121 C 
ATOM      6  N   UNL     1      -2.421  -0.995  -3.364  0.00  0.00    -0.254 NA
ATOM      7  C   UNL     1      -3.530  -1.503  -2.781  0.00  0.00    +0.072 A 
ATOM      8  C   UNL     1      -3.362  -1.432  -1.380  0.00  0.00    +0.010 A 
ATOM      9  C   UNL     1      -4.360  -1.895  -0.530  0.00  0.00    +0.011 A 
ATOM     10  C   UNL     1      -5.515  -2.429  -1.060  0.00  0.00    +0.001 A 
ATOM     11  C   UNL     1      -5.686  -2.505  -2.436  0.00  0.00    +0.002 A 
ATOM     12  C   UNL     1      -4.715  -2.044  -3.294  0.00  0.00    +0.028 A 
ATOM     13  N   UNL     1      -2.086  -0.706   1.155  0.00  0.00    -0.238 N 
ATOM     14  N   UNL     1      -1.621  -0.450   2.435  0.00  0.00    -0.160 NA
ATOM     15  C   UNL     1      -0.359  -0.394   2.751  0.00  0.00    +0.172 C 
ATOM     16  S   UNL     1       0.858  -0.644   1.494  0.00  0.00    -0.080 S 
ATOM     17  N   UNL     1       0.025  -0.141   4.054  0.00  0.00    -0.320 N 
ATOM     18  H   UNL     1      -2.991  -1.044   1.076  0.00  0.00    +0.174 HD
ATOM     19  H   UNL     1       0.967  -0.100   4.283  0.00  0.00    +0.148 HD
ENDROOT
BRANCH  17  20
ATOM     20  C   UNL     1      -0.991   0.066   5.090  0.00  0.00    +0.072 C 
ATOM     21  C   UNL     1      -1.429   1.532   5.089  0.00  0.00    +0.022 C 
ATOM     22  C   UNL     1      -2.489   1.748   6.170  0.00  0.00    +0.002 C 
ATOM     23  C   UNL     1      -1.903   1.392   7.538  0.00  0.00    +0.000 C 
ATOM     24  C   UNL     1      -1.465  -0.074   7.539  0.00  0.00    +0.002 C 
ATOM     25  C   UNL     1      -0.404  -0.290   6.457  0.00  0.00    +0.022 C 
ENDBRANCH  17  20
TORSDOF 1
