REMARK  Name = ZINC15018359
REMARK  8 active torsions:
REMARK  status: ('A' for Active; 'I' for Inactive)
REMARK    1  A    between atoms: C_1  and  C_2
REMARK    2  A    between atoms: C_2  and  C_3
REMARK    3  A    between atoms: C_6  and  N_9
REMARK    4  A    between atoms: N_11  and  C_24
REMARK    5  A    between atoms: C_15  and  C_16
REMARK    6  A    between atoms: C_20  and  O_22
REMARK    7  A    between atoms: C_27  and  C_30
REMARK    8  A    between atoms: C_30  and  C_31
REMARK                            x       y       z     vdW  Elec       q    Type
REMARK                         _______ _______ _______ _____ _____    ______ ____
ROOT
ATOM      1  N   UNL     1       3.652  -2.221  -0.035  0.00  0.00    -0.225 NA
ATOM      2  C   UNL     1       2.444  -2.737  -0.022  0.00  0.00    +0.173 C 
ATOM      3  N   UNL     1       1.234  -2.094  -0.190  0.00  0.00    -0.214 N 
ATOM      4  C   UNL     1       0.100  -2.773  -0.153  0.00  0.00    +0.263 C 
ATOM      5  O   UNL     1      -0.975  -2.224  -0.304  0.00  0.00    -0.269 OA
ATOM      6  C   UNL     1       0.199  -4.228   0.080  0.00  0.00    +0.078 C 
ATOM      7  C   UNL     1      -0.788  -5.155   0.164  0.00  0.00    +0.028 C 
ATOM      8  S   UNL     1       1.967  -4.441   0.220  0.00  0.00    -0.048 S 
ENDROOT
BRANCH   1  12
ATOM      9  C   UNL     1       6.949  -4.656   0.530  0.00  0.00    -0.047 A 
ATOM     10  C   UNL     1       6.958  -3.709  -0.478  0.00  0.00    +0.006 A 
ATOM     11  C   UNL     1       5.862  -2.893  -0.672  0.00  0.00    +0.028 A 
ATOM     12  C   UNL     1       4.742  -3.027   0.152  0.00  0.00    +0.067 A 
ATOM     13  C   UNL     1       4.742  -3.982   1.171  0.00  0.00    +0.028 A 
ATOM     14  C   UNL     1       5.843  -4.793   1.350  0.00  0.00    +0.006 A 
BRANCH   9  16
ATOM     15  C   UNL     1       9.114  -4.876   1.719  0.00  0.00    +0.009 C 
ATOM     16  C   UNL     1       8.150  -5.543   0.736  0.00  0.00    +0.032 C 
ENDBRANCH   9  16
ENDBRANCH   1  12
BRANCH   7  17
ATOM     17  C   UNL     1      -0.451  -6.584   0.237  0.00  0.00    -0.020 A 
ATOM     18  C   UNL     1      -1.335  -7.485   0.841  0.00  0.00    +0.008 A 
ATOM     19  C   UNL     1      -1.017  -8.825   0.902  0.00  0.00    +0.004 A 
ATOM     20  C   UNL     1       0.180  -9.281   0.378  0.00  0.00    +0.045 A 
ATOM     21  C   UNL     1       1.067  -8.395  -0.218  0.00  0.00    +0.117 A 
ATOM     22  C   UNL     1       0.757  -7.048  -0.292  0.00  0.00    +0.053 A 
BRANCH  21  23
ATOM     23  O   UNL     1       2.240  -8.851  -0.731  0.00  0.00    -0.507 OA
ATOM     24  H   UNL     1       2.972  -8.850  -0.099  0.00  0.00    +0.292 HD
ENDBRANCH  21  23
ENDBRANCH   7  17
BRANCH   3  25
ATOM     25  C   UNL     1       1.208  -0.711  -0.407  0.00  0.00    +0.044 A 
ATOM     26  C   UNL     1       1.575   0.161   0.610  0.00  0.00    +0.024 A 
ATOM     27  C   UNL     1       1.548   1.524   0.393  0.00  0.00    +0.005 A 
ATOM     28  C   UNL     1       1.157   2.022  -0.836  0.00  0.00    -0.048 A 
ATOM     29  C   UNL     1       0.792   1.157  -1.852  0.00  0.00    +0.005 A 
ATOM     30  C   UNL     1       0.816  -0.207  -1.640  0.00  0.00    +0.024 A 
BRANCH  28  31
ATOM     31  C   UNL     1       1.130   3.511  -1.070  0.00  0.00    +0.032 C 
ATOM     32  C   UNL     1       2.489   3.969  -1.603  0.00  0.00    +0.009 C 
ENDBRANCH  28  31
ENDBRANCH   3  25
TORSDOF 6
