REMARK  Name = ZINC19949773
REMARK  4 active torsions:
REMARK  status: ('A' for Active; 'I' for Inactive)
REMARK    1  A    between atoms: C_1  and  C_2
REMARK    2  A    between atoms: C_8  and  C_16
REMARK    3  A    between atoms: C_16  and  C_17
REMARK    4  A    between atoms: C_17  and  C_18
REMARK                            x       y       z     vdW  Elec       q    Type
REMARK                         _______ _______ _______ _____ _____    ______ ____
ROOT
ATOM      1  C   UNL     1      -2.431   8.024  -4.472  0.00  0.00    +0.044 C 
ATOM      2  C   UNL     1      -2.076   7.223  -3.245  0.00  0.00    -0.050 A 
ATOM      3  C   UNL     1      -1.970   7.865  -2.013  0.00  0.00    +0.005 A 
ATOM      4  C   UNL     1      -1.651   7.173  -0.885  0.00  0.00    +0.026 A 
ATOM      5  C   UNL     1      -1.424   5.787  -0.958  0.00  0.00    +0.047 A 
ATOM      6  C   UNL     1      -1.534   5.137  -2.213  0.00  0.00    +0.002 A 
ATOM      7  C   UNL     1      -1.863   5.883  -3.356  0.00  0.00    +0.013 A 
ATOM      8  C   UNL     1      -1.309   3.752  -2.276  0.00  0.00    -0.033 A 
ATOM      9  C   UNL     1      -0.991   3.082  -1.121  0.00  0.00    -0.024 A 
ATOM     10  C   UNL     1      -0.893   3.777   0.077  0.00  0.00    +0.020 A 
ATOM     11  N   UNL     1      -1.110   5.079   0.126  0.00  0.00    -0.358 N 
ATOM     12  C   UNL     1      -0.532   3.094   1.373  0.00  0.00    +0.053 C 
ATOM     13  C   UNL     1      -0.741   1.585   1.261  0.00  0.00    +0.006 C 
ATOM     14  C   UNL     1      -0.013   1.086   0.008  0.00  0.00    +0.005 C 
ATOM     15  C   UNL     1      -0.762   1.597  -1.221  0.00  0.00    +0.037 C 
ATOM     16  H   UNL     1      -1.022   5.577   1.102  0.00  0.00    +0.166 HD
ENDROOT
BRANCH   8  17
ATOM     17  C   UNL     1      -1.414   3.016  -3.587  0.00  0.00    +0.047 C 
BRANCH  17  18
ATOM     18  C   UNL     1      -2.850   2.528  -3.784  0.00  0.00    +0.130 C 
BRANCH  18  19
ATOM     19  C   UNL     1      -2.955   1.792  -5.095  0.00  0.00    +0.356 C 
ATOM     20  O   UNL     1      -1.981   1.671  -5.799  0.00  0.00    -0.246 OA
ATOM     21  O   UNL     1      -4.131   1.271  -5.479  0.00  0.00    -0.246 OA
ENDBRANCH  18  19
ENDBRANCH  17  18
ENDBRANCH   8  17
TORSDOF 3
