REMARK  Name = ZINC35969082
REMARK  5 active torsions:
REMARK  status: ('A' for Active; 'I' for Inactive)
REMARK    1  A    between atoms: C_1  and  N_2
REMARK    2  A    between atoms: N_2  and  C_3
REMARK    3  A    between atoms: N_2  and  C_23
REMARK    4  A    between atoms: C_3  and  C_4
REMARK    5  A    between atoms: C_12  and  N_13
REMARK                            x       y       z     vdW  Elec       q    Type
REMARK                         _______ _______ _______ _____ _____    ______ ____
ROOT
ATOM      1  C   UNL     1      -0.607  -0.478   2.494  0.00  0.00    +0.048 A 
ATOM      2  C   UNL     1      -0.031   0.528   3.185  0.00  0.00    +0.116 A 
ATOM      3  N   UNL     1      -0.778   0.718   4.320  0.00  0.00    -0.289 N 
ATOM      4  C   UNL     1      -1.802  -0.194   4.284  0.00  0.00    +0.117 A 
ATOM      5  N   UNL     1      -1.680  -0.901   3.168  0.00  0.00    -0.342 N 
ATOM      6  C   UNL     1      -2.740  -0.232   5.333  0.00  0.00    +0.045 A 
ATOM      7  C   UNL     1      -2.618   0.639   6.374  0.00  0.00    +0.007 A 
ATOM      8  C   UNL     1      -1.565   1.561   6.389  0.00  0.00    +0.042 A 
ATOM      9  C   UNL     1      -0.663   1.588   5.369  0.00  0.00    +0.107 A 
ATOM     10  H   UNL     1      -2.275  -1.615   2.888  0.00  0.00    +0.167 HD
ENDROOT
BRANCH   9  11
ATOM     11  N   UNL     1       0.374   2.502   5.393  0.00  0.00    -0.320 N 
ATOM     12  C   UNL     1       0.470   3.540   4.358  0.00  0.00    +0.088 C 
ATOM     13  C   UNL     1       0.759   4.903   5.010  0.00  0.00    -0.059 C 
ATOM     14  N   UNL     1       1.911   4.741   5.887  0.00  0.00    +0.384 N 
ATOM     15  C   UNL     1       2.408   5.969   6.511  0.00  0.00    -0.078 C 
ATOM     16  C   UNL     1       3.006   5.542   7.874  0.00  0.00    -0.020 C 
ATOM     17  C   UNL     1       2.708   4.022   7.984  0.00  0.00    -0.016 C 
ATOM     18  C   UNL     1       1.522   3.856   7.018  0.00  0.00    -0.051 C 
ATOM     19  C   UNL     1       1.391   2.446   6.463  0.00  0.00    +0.091 C 
ATOM     20  H   UNL     1       2.664   4.311   5.373  0.00  0.00    -0.081 HD
ENDBRANCH   9  11
BRANCH   1  21
ATOM     21  C   UNL     1      -0.124  -1.028   1.176  0.00  0.00    +0.139 C 
BRANCH  21  23
ATOM     22  C   UNL     1      -0.329   0.990  -0.147  0.00  0.00    +0.106 C 
ATOM     23  N   UNL     1      -0.842  -0.368   0.077  0.00  0.00    -0.291 NA
BRANCH  23  24
ATOM     24  C   UNL     1      -0.771  -1.168  -1.153  0.00  0.00    +0.106 C 
ATOM     25  C   UNL     1       0.694  -1.423  -1.504  0.00  0.00    +0.025 C 
ATOM     26  C   UNL     1       0.748  -2.430  -2.659  0.00  0.00    +0.007 C 
ATOM     27  C   UNL     1       0.304  -3.792  -2.129  0.00  0.00    +0.037 C 
ATOM     28  C   UNL     1      -1.004  -3.673  -1.395  0.00  0.00    -0.025 A 
ATOM     29  C   UNL     1      -1.498  -2.471  -0.941  0.00  0.00    +0.062 A 
ATOM     30  N   UNL     1      -2.656  -2.430  -0.294  0.00  0.00    -0.258 NA
ATOM     31  C   UNL     1      -3.372  -3.509  -0.062  0.00  0.00    +0.111 A 
ATOM     32  C   UNL     1      -2.937  -4.748  -0.492  0.00  0.00    +0.020 A 
ATOM     33  C   UNL     1      -1.735  -4.835  -1.170  0.00  0.00    +0.007 A 
ENDBRANCH  23  24
ENDBRANCH  21  23
ENDBRANCH   1  21
TORSDOF 4
