REMARK  Name = ZINC58603706
REMARK  10 active torsions:
REMARK  status: ('A' for Active; 'I' for Inactive)
REMARK    1  A    between atoms: C_1  and  C_2
REMARK    2  A    between atoms: C_5  and  N_9
REMARK    3  A    between atoms: C_6  and  C_8
REMARK    4  A    between atoms: C_13  and  C_15
REMARK    5  A    between atoms: C_15  and  C_17
REMARK    6  A    between atoms: C_15  and  S_18
REMARK    7  A    between atoms: S_18  and  C_19
REMARK    8  A    between atoms: C_22  and  C_25
REMARK    9  A    between atoms: N_23  and  C_24
REMARK   10  A    between atoms: C_25  and  C_26
REMARK                            x       y       z     vdW  Elec       q    Type
REMARK                         _______ _______ _______ _____ _____    ______ ____
ROOT
ATOM      1  C   UNL     1      -0.317  -8.357  -2.353  0.00  0.00    +0.137 C 
ATOM      2  C   UNL     1      -1.775  -8.777  -2.157  0.00  0.00    +0.029 C 
ENDROOT
BRANCH   1   7
ATOM      3  N   UNL     1       0.059  -4.170  -0.021  0.00  0.00    -0.269 N 
ATOM      4  C   UNL     1      -0.040  -4.839  -1.187  0.00  0.00    +0.310 C 
ATOM      5  O   UNL     1      -0.054  -4.229  -2.238  0.00  0.00    -0.252 OA
ATOM      6  N   UNL     1      -0.124  -6.184  -1.187  0.00  0.00    -0.239 N 
ATOM      7  C   UNL     1      -0.223  -6.853  -2.353  0.00  0.00    +0.234 C 
ATOM      8  O   UNL     1      -0.237  -6.244  -3.401  0.00  0.00    -0.274 OA
ATOM      9  H   UNL     1       0.135  -4.658   0.814  0.00  0.00    +0.156 HD
ATOM     10  H   UNL     1      -0.113  -6.671  -0.348  0.00  0.00    +0.159 HD
BRANCH   3  15
ATOM     11  C   UNL     1       0.025   1.503   0.005  0.00  0.00    +0.044 C 
ATOM     12  C   UNL     1       0.034  -0.004  -0.002  0.00  0.00    -0.050 A 
ATOM     13  C   UNL     1       0.632  -0.685  -1.046  0.00  0.00    +0.005 A 
ATOM     14  C   UNL     1       0.641  -2.066  -1.055  0.00  0.00    +0.024 A 
ATOM     15  C   UNL     1       0.051  -2.771  -0.014  0.00  0.00    +0.038 A 
ATOM     16  C   UNL     1      -0.548  -2.083   1.033  0.00  0.00    -0.029 A 
ATOM     17  C   UNL     1      -0.551  -0.702   1.039  0.00  0.00    +0.008 A 
ATOM     18  C   UNL     1      -1.191  -2.843   2.165  0.00  0.00    +0.045 C 
ENDBRANCH   3  15
ENDBRANCH   1   7
BRANCH   1  19
ATOM     19  S   UNL     1       0.290  -9.000  -3.937  0.00  0.00    -0.074 S 
BRANCH  19  20
ATOM     20  C   UNL     1       0.257 -10.749  -3.727  0.00  0.00    +0.192 A 
ATOM     21  N   UNL     1      -0.132 -11.400  -2.655  0.00  0.00    -0.122 NA
ATOM     22  N   UNL     1      -0.025 -12.666  -2.850  0.00  0.00    -0.134 NA
ATOM     23  C   UNL     1       0.435 -12.897  -4.047  0.00  0.00    +0.134 A 
ATOM     24  N   UNL     1       0.626 -11.685  -4.651  0.00  0.00    -0.309 N 
ATOM     25  C   UNL     1       1.125 -11.441  -6.007  0.00  0.00    +0.152 C 
BRANCH  23  26
ATOM     26  C   UNL     1       0.701 -14.250  -4.656  0.00  0.00    +0.081 C 
BRANCH  26  27
ATOM     27  C   UNL     1      -0.557 -14.743  -5.373  0.00  0.00    +0.019 C 
ATOM     28  C   UNL     1      -1.671 -15.007  -4.346  0.00  0.00    +0.028 C 
ATOM     29  C   UNL     1      -2.823 -15.800  -5.010  0.00  0.00    +0.166 C 
ATOM     30  S   UNL     1      -1.958 -16.737  -6.335  0.00  0.00    -0.031 S 
ATOM     31  O   UNL     1      -1.966 -18.119  -6.005  0.00  0.00    -0.174 OA
ATOM     32  O   UNL     1      -2.454 -16.316  -7.598  0.00  0.00    -0.174 OA
ATOM     33  C   UNL     1      -0.252 -16.078  -6.111  0.00  0.00    +0.170 C 
ENDBRANCH  26  27
ENDBRANCH  23  26
ENDBRANCH  19  20
ENDBRANCH   1  19
TORSDOF 6
