REMARK  Name = ZINC58492441
REMARK  5 active torsions:
REMARK  status: ('A' for Active; 'I' for Inactive)
REMARK    1  A    between atoms: C_1  and  C_2
REMARK    2  A    between atoms: C_5  and  N_9
REMARK    3  A    between atoms: C_6  and  C_8
REMARK    4  A    between atoms: C_22  and  S_23
REMARK    5  A    between atoms: S_23  and  C_24
REMARK                            x       y       z     vdW  Elec       q    Type
REMARK                         _______ _______ _______ _____ _____    ______ ____
ROOT
ATOM      1  N   UNL     1       0.059  -4.170  -0.021  0.00  0.00    -0.245 N 
ATOM      2  C   UNL     1      -1.105  -4.851  -0.024  0.00  0.00    +0.268 A 
ATOM      3  O   UNL     1      -2.167  -4.258  -0.021  0.00  0.00    -0.267 OA
ATOM      4  C   UNL     1      -1.071  -6.325  -0.033  0.00  0.00    +0.064 A 
ATOM      5  C   UNL     1      -2.245  -7.076  -0.037  0.00  0.00    +0.015 A 
ATOM      6  C   UNL     1      -2.173  -8.453  -0.046  0.00  0.00    +0.001 A 
ATOM      7  C   UNL     1      -0.942  -9.090  -0.050  0.00  0.00    +0.002 A 
ATOM      8  C   UNL     1       0.228  -8.357  -0.046  0.00  0.00    +0.027 A 
ATOM      9  C   UNL     1       0.176  -6.972  -0.037  0.00  0.00    +0.064 A 
ATOM     10  N   UNL     1       1.335  -6.207  -0.034  0.00  0.00    -0.255 N 
ATOM     11  C   UNL     1       1.275  -4.837  -0.031  0.00  0.00    +0.245 A 
ATOM     12  N   UNL     1       2.512  -4.402  -0.034  0.00  0.00    -0.109 NA
ATOM     13  N   UNL     1       3.330  -5.394  -0.044  0.00  0.00    -0.120 NA
ATOM     14  C   UNL     1       2.666  -6.525  -0.036  0.00  0.00    +0.198 A 
ENDROOT
BRANCH   1  19
ATOM     15  C   UNL     1      -0.018   1.503   0.010  0.00  0.00    +0.044 C 
ATOM     16  C   UNL     1       0.002  -0.004   0.002  0.00  0.00    -0.050 A 
ATOM     17  C   UNL     1       0.006  -0.688  -1.200  0.00  0.00    +0.005 A 
ATOM     18  C   UNL     1       0.025  -2.068  -1.212  0.00  0.00    +0.027 A 
ATOM     19  C   UNL     1       0.041  -2.771  -0.013  0.00  0.00    +0.056 A 
ATOM     20  C   UNL     1       0.037  -2.082   1.192  0.00  0.00    -0.026 A 
ATOM     21  C   UNL     1       0.023  -0.700   1.196  0.00  0.00    +0.008 A 
ATOM     22  C   UNL     1       0.053  -2.840   2.495  0.00  0.00    +0.046 C 
ENDBRANCH   1  19
BRANCH  14  23
ATOM     23  S   UNL     1       3.357  -8.146  -0.046  0.00  0.00    -0.073 S 
BRANCH  23  24
ATOM     24  C   UNL     1       5.148  -7.860  -0.046  0.00  0.00    +0.140 C 
ATOM     25  C   UNL     1       5.882  -9.198  -0.171  0.00  0.00    +0.024 C 
ATOM     26  C   UNL     1       5.128 -10.295   0.559  0.00  0.00    +0.003 C 
ATOM     27  C   UNL     1       5.094 -10.117   2.066  0.00  0.00    +0.019 C 
ATOM     28  C   UNL     1       4.266  -8.889   2.451  0.00  0.00    +0.104 C 
ATOM     29  N   UNL     1       5.138  -7.704   2.419  0.00  0.00    -0.314 N 
ATOM     30  C   UNL     1       5.558  -7.201   1.254  0.00  0.00    +0.226 C 
ATOM     31  O   UNL     1       6.272  -6.221   1.236  0.00  0.00    -0.275 OA
ATOM     32  H   UNL     1       5.408  -7.282   3.250  0.00  0.00    +0.149 HD
ENDBRANCH  23  24
ENDBRANCH  14  23
TORSDOF 3
