REMARK  Name = ZINC12847382
REMARK  9 active torsions:
REMARK  status: ('A' for Active; 'I' for Inactive)
REMARK    1  A    between atoms: C_1  and  C_2
REMARK    2  A    between atoms: C_2  and  C_4
REMARK    3  A    between atoms: C_2  and  O_22
REMARK    4  A    between atoms: N_6  and  C_7
REMARK    5  A    between atoms: C_10  and  S_13
REMARK    6  A    between atoms: S_13  and  N_16
REMARK    7  A    between atoms: O_22  and  C_23
REMARK    8  A    between atoms: C_23  and  C_25
REMARK    9  A    between atoms: N_30  and  C_32
REMARK                            x       y       z     vdW  Elec       q    Type
REMARK                         _______ _______ _______ _____ _____    ______ ____
ROOT
ATOM      1  C   UNL     1      -8.213   1.283  -1.076  0.00  0.00    +0.258 C 
ATOM      2  O   UNL     1      -7.712   1.608  -2.131  0.00  0.00    -0.271 OA
ATOM      3  N   UNL     1      -7.577   1.547   0.083  0.00  0.00    -0.282 N 
ATOM      4  H   UNL     1      -7.939   1.220   0.921  0.00  0.00    +0.155 HD
ENDROOT
BRANCH   3   5
ATOM      5  C   UNL     1      -6.393   2.293   0.076  0.00  0.00    +0.034 A 
ATOM      6  C   UNL     1      -6.211   3.301  -0.862  0.00  0.00    +0.025 A 
ATOM      7  C   UNL     1      -5.041   4.035  -0.866  0.00  0.00    +0.030 A 
ATOM      8  C   UNL     1      -4.051   3.767   0.062  0.00  0.00    +0.106 A 
ATOM      9  C   UNL     1      -4.228   2.760   0.994  0.00  0.00    +0.030 A 
ATOM     10  C   UNL     1      -5.397   2.026   1.006  0.00  0.00    +0.025 A 
BRANCH   8  11
ATOM     11  S   UNL     1      -2.560   4.705   0.053  0.00  0.00    +0.061 S 
ATOM     12  O   UNL     1      -2.411   5.218  -1.264  0.00  0.00    -0.153 OA
ATOM     13  O   UNL     1      -1.569   3.898   0.672  0.00  0.00    -0.153 OA
BRANCH  11  14
ATOM     14  N   UNL     1      -2.796   6.010   1.045  0.00  0.00    -0.177 NA
ATOM     15  C   UNL     1      -2.475   5.929   2.477  0.00  0.00    +0.109 C 
ATOM     16  C   UNL     1      -3.707   6.352   3.283  0.00  0.00    +0.017 C 
ATOM     17  C   UNL     1      -4.165   7.736   2.819  0.00  0.00    +0.003 C 
ATOM     18  C   UNL     1      -4.553   7.677   1.339  0.00  0.00    +0.017 C 
ATOM     19  C   UNL     1      -3.331   7.270   0.511  0.00  0.00    +0.109 C 
ENDBRANCH  11  14
ENDBRANCH   8  11
ENDBRANCH   3   5
BRANCH   1  21
ATOM     20  C   UNL     1      -9.397  -0.789  -0.400  0.00  0.00    +0.062 C 
ATOM     21  C   UNL     1      -9.548   0.583  -1.059  0.00  0.00    +0.259 C 
BRANCH  21  22
ATOM     22  O   UNL     1     -10.023   0.415  -2.421  0.00  0.00    -0.452 OA
BRANCH  22  23
ATOM     23  C   UNL     1     -11.353   0.406  -2.606  0.00  0.00    +0.313 C 
ATOM     24  O   UNL     1     -12.095   0.534  -1.661  0.00  0.00    -0.250 OA
BRANCH  23  25
ATOM     25  C   UNL     1     -11.920   0.237  -3.992  0.00  0.00    +0.124 C 
ATOM     26  C   UNL     1     -11.538   1.432  -4.896  0.00  0.00    +0.112 C 
ATOM     27  C   UNL     1     -12.706   2.384  -4.765  0.00  0.00    +0.217 C 
ATOM     28  O   UNL     1     -12.688   3.553  -5.087  0.00  0.00    -0.276 OA
ATOM     29  N   UNL     1     -13.767   1.746  -4.242  0.00  0.00    -0.298 N 
ATOM     30  C   UNL     1     -13.462   0.334  -3.974  0.00  0.00    +0.123 C 
BRANCH  29  31
ATOM     31  C   UNL     1     -15.062   2.376  -3.973  0.00  0.00    +0.076 C 
ATOM     32  C   UNL     1     -15.636   2.978  -5.272  0.00  0.00    +0.022 C 
ATOM     33  C   UNL     1     -16.322   4.289  -4.812  0.00  0.00    +0.002 C 
ATOM     34  C   UNL     1     -15.357   4.816  -3.722  0.00  0.00    +0.002 C 
ATOM     35  C   UNL     1     -14.884   3.545  -2.988  0.00  0.00    +0.022 C 
ENDBRANCH  29  31
ENDBRANCH  23  25
ENDBRANCH  22  23
ENDBRANCH  21  22
ENDBRANCH   1  21
TORSDOF 8
