REMARK  Name = ZINC41498443
REMARK  8 active torsions:
REMARK  status: ('A' for Active; 'I' for Inactive)
REMARK    1  A    between atoms: C_1  and  C_2
REMARK    2  A    between atoms: C_3  and  O_22
REMARK    3  A    between atoms: C_10  and  C_11
REMARK    4  A    between atoms: C_14  and  N_17
REMARK    5  A    between atoms: N_17  and  C_18
REMARK    6  A    between atoms: N_17  and  C_19
REMARK    7  A    between atoms: O_22  and  C_23
REMARK    8  A    between atoms: C_23  and  C_24
REMARK                            x       y       z     vdW  Elec       q    Type
REMARK                         _______ _______ _______ _____ _____    ______ ____
ROOT
ATOM      1  C   UNL     1       0.078   1.495   0.006  0.00  0.00    +0.051 C 
ATOM      2  C   UNL     1       0.089  -0.012   0.001  0.00  0.00    +0.034 A 
ATOM      3  C   UNL     1       0.110  -0.700  -1.202  0.00  0.00    +0.128 A 
ATOM      4  C   UNL     1       0.120  -2.092  -1.221  0.00  0.00    +0.047 A 
ATOM      5  C   UNL     1       0.110  -2.795  -0.049  0.00  0.00    +0.019 A 
ATOM      6  C   UNL     1       0.089  -2.115   1.169  0.00  0.00    +0.068 A 
ATOM      7  C   UNL     1       0.083  -0.711   1.201  0.00  0.00    +0.146 A 
ATOM      8  O   UNL     1       0.069  -0.285   2.483  0.00  0.00    -0.451 OA
ATOM      9  C   UNL     1       0.069  -1.319   3.357  0.00  0.00    +0.176 C 
ATOM     10  C   UNL     1       0.056  -1.224   4.712  0.00  0.00    +0.058 C 
ATOM     11  C   UNL     1       0.074  -2.562   2.574  0.00  0.00    +0.231 C 
ATOM     12  O   UNL     1       0.076  -3.708   2.992  0.00  0.00    -0.283 OA
ENDROOT
BRANCH  10  13
ATOM     13  C   UNL     1       0.157   0.089   5.357  0.00  0.00    -0.021 A 
ATOM     14  C   UNL     1       0.279   0.182   6.750  0.00  0.00    +0.010 A 
ATOM     15  C   UNL     1       0.373   1.407   7.345  0.00  0.00    +0.023 A 
ATOM     16  C   UNL     1       0.347   2.564   6.570  0.00  0.00    +0.029 A 
ATOM     17  C   UNL     1       0.225   2.478   5.186  0.00  0.00    +0.023 A 
ATOM     18  C   UNL     1       0.137   1.256   4.581  0.00  0.00    +0.010 A 
BRANCH  16  19
ATOM     19  N   UNL     1       0.442   3.810   7.182  0.00  0.00    -0.336 N 
ATOM     20  C   UNL     1       0.682   3.902   8.624  0.00  0.00    +0.129 C 
ATOM     21  C   UNL     1       0.303   5.031   6.383  0.00  0.00    +0.129 C 
ENDBRANCH  16  19
ENDBRANCH  10  13
BRANCH   3  22
ATOM     22  O   UNL     1       0.120  -0.011  -2.371  0.00  0.00    -0.482 OA
BRANCH  22  23
ATOM     23  C   UNL     1       0.142  -0.779  -3.576  0.00  0.00    +0.324 C 
BRANCH  23  24
ATOM     24  C   UNL     1       0.151   0.150  -4.763  0.00  0.00    +0.248 C 
ATOM     25  O   UNL     1       0.140   1.351  -4.594  0.00  0.00    -0.272 OA
ATOM     26  N   UNL     1       0.172  -0.354  -6.013  0.00  0.00    -0.327 N 
ATOM     27  H   UNL     1       0.180  -1.315  -6.148  0.00  0.00    +0.145 HD
ATOM     28  H   UNL     1       0.177   0.243  -6.777  0.00  0.00    +0.145 HD
ENDBRANCH  23  24
ENDBRANCH  22  23
ENDBRANCH   3  22
TORSDOF 5
