REMARK  Name = ZINC11691991
REMARK  6 active torsions:
REMARK  status: ('A' for Active; 'I' for Inactive)
REMARK    1  A    between atoms: C_4  and  C_7
REMARK    2  A    between atoms: C_7  and  C_8
REMARK    3  A    between atoms: C_13  and  C_14
REMARK    4  A    between atoms: C_13  and  N_62
REMARK    5  A    between atoms: N_16  and  C_17
REMARK    6  A    between atoms: C_18  and  C_29
REMARK                            x       y       z     vdW  Elec       q    Type
REMARK                         _______ _______ _______ _____ _____    ______ ____
ROOT
ATOM      1  C   UNL     1      -1.009   3.469  -0.940  0.00  0.00    +0.203 C 
ATOM      2  O   UNL     1      -0.545   4.035   0.027  0.00  0.00    -0.277 OA
ATOM      3  N   UNL     1      -1.708   4.166  -1.858  0.00  0.00    -0.257 N 
ATOM      4  H   UNL     1      -2.079   3.713  -2.632  0.00  0.00    +0.158 HD
ENDROOT
BRANCH   3   5
ATOM      5  C   UNL     1      -1.894   5.519  -1.698  0.00  0.00    +0.204 A 
ATOM      6  C   UNL     1      -2.610   6.213  -2.657  0.00  0.00    +0.087 A 
ATOM      7  C   UNL     1      -2.812   7.609  -2.495  0.00  0.00    +0.202 A 
ATOM      8  O   UNL     1      -3.440   8.259  -3.313  0.00  0.00    -0.286 OA
ATOM      9  C   UNL     1      -2.224   8.245  -1.299  0.00  0.00    +0.066 A 
ATOM     10  C   UNL     1      -2.367   9.612  -1.065  0.00  0.00    +0.035 A 
ATOM     11  C   UNL     1      -1.805  10.172   0.063  0.00  0.00    +0.042 A 
ATOM     12  C   UNL     1      -1.101   9.380   0.960  0.00  0.00    +0.023 A 
ATOM     13  C   UNL     1      -0.952   8.028   0.738  0.00  0.00    +0.048 A 
ATOM     14  C   UNL     1      -1.511   7.444  -0.393  0.00  0.00    +0.141 A 
ATOM     15  O   UNL     1      -1.373   6.122  -0.623  0.00  0.00    -0.440 OA
ATOM     16 CL   UNL     1      -1.980  11.873   0.363  0.00  0.00    -0.084 Cl
BRANCH   6  17
ATOM     17  C   UNL     1      -3.165   5.507  -3.836  0.00  0.00    -0.009 A 
ATOM     18  C   UNL     1      -2.309   4.932  -4.774  0.00  0.00    +0.009 A 
ATOM     19  C   UNL     1      -2.831   4.270  -5.867  0.00  0.00    +0.001 A 
ATOM     20  C   UNL     1      -4.202   4.188  -6.038  0.00  0.00    +0.000 A 
ATOM     21  C   UNL     1      -5.056   4.761  -5.113  0.00  0.00    +0.001 A 
ATOM     22  C   UNL     1      -4.545   5.420  -4.014  0.00  0.00    +0.009 A 
ENDBRANCH   6  17
ENDBRANCH   3   5
BRANCH   1  23
ATOM     23  C   UNL     1      -0.804   1.986  -1.115  0.00  0.00    +0.019 C 
BRANCH  23  29
ATOM     24  C   UNL     1       2.133   0.035   1.302  0.00  0.00    -0.010 C 
ATOM     25  C   UNL     1       0.704  -0.513   1.263  0.00  0.00    -0.015 C 
ATOM     26  C   UNL     1       0.002  -0.004   0.002  0.00  0.00    -0.078 C 
ATOM     27  C   UNL     1       1.344   2.014   0.000  0.00  0.00    -0.078 C 
ATOM     28  C   UNL     1       2.086   1.565   1.261  0.00  0.00    -0.015 C 
ATOM     29  N   UNL     1      -0.032   1.474   0.035  0.00  0.00    +0.385 N 
ATOM     30  H   UNL     1      -0.487   1.777   0.904  0.00  0.00    -0.081 HD
BRANCH  24  31
ATOM     31  C   UNL     1       2.821  -0.422   2.591  0.00  0.00    +0.038 C 
BRANCH  31  35
ATOM     32  C   UNL     1       6.910   0.813   2.538  0.00  0.00    +0.000 A 
ATOM     33  C   UNL     1       5.944   1.644   3.074  0.00  0.00    +0.000 A 
ATOM     34  C   UNL     1       4.620   1.244   3.091  0.00  0.00    +0.003 A 
ATOM     35  C   UNL     1       4.263   0.014   2.572  0.00  0.00    -0.047 A 
ATOM     36  C   UNL     1       5.230  -0.819   2.040  0.00  0.00    +0.003 A 
ATOM     37  C   UNL     1       6.553  -0.417   2.019  0.00  0.00    +0.000 A 
ENDBRANCH  31  35
ENDBRANCH  24  31
ENDBRANCH  23  29
ENDBRANCH   1  23
TORSDOF 6
