REMARK  Name = ZINC03269302
REMARK  8 active torsions:
REMARK  status: ('A' for Active; 'I' for Inactive)
REMARK    1  A    between atoms: C_1  and  C_2
REMARK    2  A    between atoms: C_2  and  N_3
REMARK    3  A    between atoms: C_9  and  S_16
REMARK    4  A    between atoms: N_13  and  C_14
REMARK    5  A    between atoms: C_14  and  C_15
REMARK    6  A    between atoms: S_16  and  C_17
REMARK    7  A    between atoms: C_17  and  C_18
REMARK    8  A    between atoms: N_20  and  C_21
REMARK                            x       y       z     vdW  Elec       q    Type
REMARK                         _______ _______ _______ _____ _____    ______ ____
ROOT
ATOM      1  N   UNL     1      -6.234  11.152   2.519  0.00  0.00    -0.314 N 
ATOM      2  C   UNL     1      -5.588   9.976   2.196  0.00  0.00    +0.221 A 
ATOM      3  N   UNL     1      -6.300   8.934   1.806  0.00  0.00    -0.177 NA
ATOM      4  C   UNL     1      -5.686   7.781   1.487  0.00  0.00    +0.262 A 
ATOM      5  N   UNL     1      -6.102   6.603   1.077  0.00  0.00    -0.107 NA
ATOM      6  N   UNL     1      -5.097   5.819   0.902  0.00  0.00    -0.120 NA
ATOM      7  C   UNL     1      -3.978   6.438   1.195  0.00  0.00    +0.200 A 
ATOM      8  N   UNL     1      -4.309   7.709   1.575  0.00  0.00    -0.226 N 
ATOM      9  C   UNL     1      -3.604   8.808   1.983  0.00  0.00    +0.207 A 
ATOM     10  N   UNL     1      -4.254   9.916   2.284  0.00  0.00    -0.182 NA
ATOM     11  N   UNL     1      -2.240   8.758   2.076  0.00  0.00    -0.315 N 
ATOM     12  H   UNL     1      -5.721  11.924   2.807  0.00  0.00    +0.149 HD
ATOM     13  H   UNL     1      -1.768   7.941   1.853  0.00  0.00    +0.149 HD
ENDROOT
BRANCH   1  15
ATOM     14  C   UNL     1      -8.152  12.636   2.839  0.00  0.00    +0.024 C 
ATOM     15  C   UNL     1      -7.694  11.235   2.428  0.00  0.00    +0.101 C 
ENDBRANCH   1  15
BRANCH  11  16
ATOM     16  C   UNL     1      -1.493   9.940   2.514  0.00  0.00    +0.101 C 
ATOM     17  C   UNL     1       0.003   9.620   2.531  0.00  0.00    +0.024 C 
ENDBRANCH  11  16
BRANCH   7  18
ATOM     18  S   UNL     1      -2.354   5.760   1.109  0.00  0.00    -0.076 S 
BRANCH  18  19
ATOM     19  C   UNL     1      -2.619   4.057   0.543  0.00  0.00    +0.173 C 
BRANCH  19  20
ATOM     20  C   UNL     1      -1.290   3.355   0.426  0.00  0.00    +0.228 C 
ATOM     21  O   UNL     1      -0.266   3.946   0.697  0.00  0.00    -0.275 OA
ATOM     22  N   UNL     1      -1.240   2.071   0.019  0.00  0.00    -0.280 N 
ATOM     23  H   UNL     1      -2.051   1.621  -0.267  0.00  0.00    +0.155 HD
BRANCH  22  24
ATOM     24  C   UNL     1      -0.017   1.385   0.011  0.00  0.00    +0.111 A 
ATOM     25  C   UNL     1       0.772   1.384  -1.133  0.00  0.00    +0.185 A 
ATOM     26  C   UNL     1       1.978   0.703  -1.141  0.00  0.00    +0.198 A 
ATOM     27  C   UNL     1       2.396   0.020  -0.010  0.00  0.00    +0.199 A 
ATOM     28  C   UNL     1       1.610   0.019   1.132  0.00  0.00    +0.198 A 
ATOM     29  C   UNL     1       0.405   0.700   1.144  0.00  0.00    +0.185 A 
ATOM     30  F   UNL     1      -0.361   0.699   2.257  0.00  0.00    -0.200 F 
ATOM     31  F   UNL     1       2.021  -0.647   2.233  0.00  0.00    -0.199 F 
ATOM     32  F   UNL     1       3.572  -0.645  -0.020  0.00  0.00    -0.199 F 
ATOM     33  F   UNL     1       2.746   0.702  -2.252  0.00  0.00    -0.199 F 
ATOM     34  F   UNL     1       0.364   2.049  -2.236  0.00  0.00    -0.200 F 
ENDBRANCH  22  24
ENDBRANCH  19  20
ENDBRANCH  18  19
ENDBRANCH   7  18
TORSDOF 6
