REMARK  Name = ZINC38551148
REMARK  3 active torsions:
REMARK  status: ('A' for Active; 'I' for Inactive)
REMARK    1  A    between atoms: C_1  and  C_2
REMARK    2  A    between atoms: N_19  and  C_20
REMARK    3  A    between atoms: C_20  and  C_21
REMARK                            x       y       z     vdW  Elec       q    Type
REMARK                         _______ _______ _______ _____ _____    ______ ____
ROOT
ATOM      1  C   UNL     1      -0.030   1.507   0.009  0.00  0.00    +0.047 C 
ATOM      2  C   UNL     1      -0.004   0.000   0.001  0.00  0.00    -0.006 A 
ATOM      3  C   UNL     1       0.001  -0.672  -1.195  0.00  0.00    +0.046 A 
ATOM      4  C   UNL     1       0.025  -2.058  -1.247  0.00  0.00    +0.021 A 
ATOM      5  C   UNL     1       0.044  -2.780  -0.067  0.00  0.00    +0.019 A 
ATOM      6  C   UNL     1       0.040  -2.116   1.133  0.00  0.00    +0.041 A 
ATOM      7  C   UNL     1       0.021  -0.705   1.226  0.00  0.00    +0.085 A 
ATOM      8  N   UNL     1       0.024  -0.200   2.479  0.00  0.00    -0.224 NA
ATOM      9  C   UNL     1       0.048  -0.965   3.547  0.00  0.00    +0.162 A 
ATOM     10  S   UNL     1       0.058  -2.607   2.841  0.00  0.00    -0.052 S 
ATOM     11  N   UNL     1       0.055  -0.594   4.877  0.00  0.00    -0.307 N 
ATOM     12  C   UNL     1       0.027   0.825   5.258  0.00  0.00    +0.126 C 
ATOM     13  C   UNL     1      -1.162   1.057   6.198  0.00  0.00    +0.128 C 
ATOM     14  N   UNL     1      -1.128   0.039   7.258  0.00  0.00    -0.283 N 
ATOM     15  C   UNL     1      -1.100  -1.380   6.877  0.00  0.00    +0.128 C 
ATOM     16  C   UNL     1       0.083  -1.612   5.936  0.00  0.00    +0.126 C 
ATOM     17  C   UNL     1      -1.121   0.401   8.556  0.00  0.00    +0.303 C 
ATOM     18  O   UNL     1      -1.048   1.576   8.859  0.00  0.00    -0.253 OA
ATOM     19  N   UNL     1      -1.196  -0.540   9.518  0.00  0.00    -0.296 N 
ATOM     20 CL   UNL     1      -0.024   0.233  -2.677  0.00  0.00    -0.083 Cl
ATOM     21  H   UNL     1      -1.182  -1.480   9.280  0.00  0.00    +0.151 HD
ENDROOT
BRANCH  19  22
ATOM     22  C   UNL     1      -1.300  -0.143  10.925  0.00  0.00    +0.132 C 
BRANCH  22  23
ATOM     23  C   UNL     1      -1.368  -1.374  11.791  0.00  0.00    -0.016 C 
ATOM     24  C   UNL     1      -0.510  -1.537  12.766  0.00  0.00    +0.005 C 
ENDBRANCH  22  23
ENDBRANCH  19  22
TORSDOF 2
