REMARK  Name = ZINC11880587
REMARK  9 active torsions:
REMARK  status: ('A' for Active; 'I' for Inactive)
REMARK    1  A    between atoms: C_1  and  C_2
REMARK    2  A    between atoms: C_2  and  C_3
REMARK    3  A    between atoms: C_3  and  C_20
REMARK    4  A    between atoms: N_6  and  C_10
REMARK    5  A    between atoms: C_10  and  C_11
REMARK    6  A    between atoms: C_25  and  C_26
REMARK    7  A    between atoms: C_25  and  N_65
REMARK    8  A    between atoms: C_29  and  O_32
REMARK    9  A    between atoms: O_32  and  C_33
REMARK                            x       y       z     vdW  Elec       q    Type
REMARK                         _______ _______ _______ _____ _____    ______ ____
ROOT
ATOM      1  C   UNL     1      -0.706  -6.689  -5.146  0.00  0.00    +0.115 C 
ATOM      2  C   UNL     1      -0.361  -8.159  -5.285  0.00  0.00    +0.247 C 
ATOM      3  O   UNL     1      -1.029  -9.105  -4.926  0.00  0.00    -0.273 OA
ATOM      4  N   UNL     1       0.842  -8.195  -5.891  0.00  0.00    -0.220 N 
ATOM      5  C   UNL     1       1.300  -6.965  -6.152  0.00  0.00    +0.310 C 
ATOM      6  O   UNL     1       2.365  -6.742  -6.694  0.00  0.00    -0.252 OA
ATOM      7  N   UNL     1       0.449  -6.001  -5.748  0.00  0.00    -0.285 N 
ATOM      8  H   UNL     1       0.571  -5.042  -5.835  0.00  0.00    +0.151 HD
ENDROOT
BRANCH   1   9
ATOM      9  C   UNL     1      -0.853  -6.307  -3.672  0.00  0.00    +0.018 C 
ATOM     10  C   UNL     1       0.441  -6.644  -2.925  0.00  0.00    -0.013 C 
ATOM     11  C   UNL     1       0.311  -6.204  -1.465  0.00  0.00    -0.078 C 
ATOM     12  C   UNL     1      -1.208  -4.418  -2.079  0.00  0.00    -0.078 C 
ATOM     13  C   UNL     1      -1.123  -4.804  -3.557  0.00  0.00    -0.013 C 
ATOM     14  N   UNL     1       0.076  -4.745  -1.423  0.00  0.00    +0.382 N 
ATOM     15  H   UNL     1       0.836  -4.270  -1.924  0.00  0.00    -0.081 HD
BRANCH  14  16
ATOM     16  C   UNL     1       0.060  -4.277  -0.021  0.00  0.00    -0.043 C 
BRANCH  16  17
ATOM     17  C   UNL     1       0.040  -2.770  -0.013  0.00  0.00    -0.064 A 
ATOM     18  C   UNL     1      -1.168  -2.096   0.002  0.00  0.00    +0.005 A 
ATOM     19  C   UNL     1      -1.189  -0.715   0.010  0.00  0.00    +0.046 A 
ATOM     20  C   UNL     1       0.002  -0.004   0.002  0.00  0.00    +0.120 A 
ATOM     21  C   UNL     1       1.212  -0.682  -0.019  0.00  0.00    +0.046 A 
ATOM     22  C   UNL     1       1.228  -2.064  -0.020  0.00  0.00    +0.005 A 
BRANCH  20  23
ATOM     23  O   UNL     1      -0.016   1.355   0.009  0.00  0.00    -0.495 OA
ATOM     24  C   UNL     1       1.248   2.021   0.001  0.00  0.00    +0.277 C 
ENDBRANCH  20  23
ENDBRANCH  16  17
ENDBRANCH  14  16
ENDBRANCH   1   9
BRANCH   1  26
ATOM     25  C   UNL     1      -1.815  -6.753  -7.384  0.00  0.00    +0.006 C 
ATOM     26  C   UNL     1      -1.988  -6.362  -5.915  0.00  0.00    +0.032 C 
ENDBRANCH   1  26
BRANCH   4  27
ATOM     27  C   UNL     1       1.559  -9.428  -6.224  0.00  0.00    +0.153 C 
BRANCH  27  28
ATOM     28  C   UNL     1       1.165  -9.881  -7.606  0.00  0.00    -0.026 A 
ATOM     29  C   UNL     1       1.880  -9.442  -8.705  0.00  0.00    +0.009 A 
ATOM     30  C   UNL     1       1.523  -9.855  -9.975  0.00  0.00    +0.050 A 
ATOM     31  C   UNL     1       0.447 -10.710 -10.149  0.00  0.00    +0.166 A 
ATOM     32  C   UNL     1      -0.273 -11.153  -9.042  0.00  0.00    +0.167 A 
ATOM     33  C   UNL     1       0.094 -10.739  -7.772  0.00  0.00    +0.054 A 
ATOM     34  O   UNL     1      -1.272 -11.976  -9.472  0.00  0.00    -0.453 OA
ATOM     35  C   UNL     1      -1.411 -11.710 -10.880  0.00  0.00    +0.466 C 
ATOM     36  O   UNL     1      -0.102 -11.257 -11.273  0.00  0.00    -0.453 OA
ENDBRANCH  27  28
ENDBRANCH   4  27
TORSDOF 7
