REMARK  Name = ZINC15320379
REMARK  4 active torsions:
REMARK  status: ('A' for Active; 'I' for Inactive)
REMARK    1  A    between atoms: C_1  and  C_2
REMARK    2  A    between atoms: N_10  and  C_13
REMARK    3  A    between atoms: N_27  and  C_30
REMARK    4  A    between atoms: C_30  and  C_31
REMARK                            x       y       z     vdW  Elec       q    Type
REMARK                         _______ _______ _______ _____ _____    ______ ____
ROOT
ATOM      1  C   UNL     1      -0.019   1.526   0.010  0.00  0.00    +0.025 C 
ATOM      2  C   UNL     1       0.002  -0.004   0.002  0.00  0.00    +0.064 C 
ATOM      3  C   UNL     1       0.780  -0.535  -1.199  0.00  0.00    +0.107 C 
ATOM      4  C   UNL     1       0.954  -2.014  -0.693  0.00  0.00    +0.123 C 
ATOM      5  C   UNL     1       1.337  -2.704  -1.901  0.00  0.00    +0.233 C 
ATOM      6  O   UNL     1       2.080  -3.656  -2.004  0.00  0.00    -0.274 OA
ATOM      7  N   UNL     1       0.676  -2.044  -2.909  0.00  0.00    -0.210 N 
ATOM      8  C   UNL     1       0.096  -0.861  -2.489  0.00  0.00    +0.232 C 
ATOM      9  O   UNL     1      -0.779  -0.226  -3.037  0.00  0.00    -0.274 OA
ATOM     10  C   UNL     1       1.266  -1.913   0.730  0.00  0.00    +0.136 C 
ATOM     11  N   UNL     1       0.820  -0.540   1.147  0.00  0.00    -0.296 NA
ATOM     12  C   UNL     1       0.568  -2.926   1.601  0.00  0.00    +0.004 A 
ATOM     13  C   UNL     1      -0.756  -3.268   1.770  0.00  0.00    +0.008 A 
ATOM     14  C   UNL     1      -1.104  -4.261   2.668  0.00  0.00    +0.000 A 
ATOM     15  C   UNL     1      -0.120  -4.908   3.394  0.00  0.00    +0.002 A 
ATOM     16  C   UNL     1       1.206  -4.569   3.227  0.00  0.00    +0.024 A 
ATOM     17  C   UNL     1       1.565  -3.570   2.324  0.00  0.00    +0.042 A 
ATOM     18  N   UNL     1       2.817  -3.055   1.983  0.00  0.00    -0.260 N 
ATOM     19  C   UNL     1       2.732  -2.083   1.058  0.00  0.00    +0.246 C 
ATOM     20  O   UNL     1       3.656  -1.462   0.578  0.00  0.00    -0.273 OA
ATOM     21  H   UNL     1       1.617   0.051   1.330  0.00  0.00    +0.123 HD
ENDROOT
BRANCH   7  22
ATOM     22  C   UNL     1       0.605  -2.511  -4.229  0.00  0.00    +0.044 A 
ATOM     23  C   UNL     1       1.220  -3.707  -4.577  0.00  0.00    +0.024 A 
ATOM     24  C   UNL     1       1.149  -4.165  -5.878  0.00  0.00    +0.002 A 
ATOM     25  C   UNL     1       0.466  -3.434  -6.833  0.00  0.00    +0.000 A 
ATOM     26  C   UNL     1      -0.147  -2.244  -6.489  0.00  0.00    +0.002 A 
ATOM     27  C   UNL     1      -0.084  -1.783  -5.188  0.00  0.00    +0.024 A 
ENDBRANCH   7  22
BRANCH  18  28
ATOM     28  C   UNL     1       4.078  -3.520   2.567  0.00  0.00    +0.210 C 
BRANCH  28  29
ATOM     29  C   UNL     1       4.629  -4.650   1.736  0.00  0.00    +0.238 C 
ATOM     30  O   UNL     1       4.028  -5.030   0.754  0.00  0.00    -0.274 OA
ATOM     31  N   UNL     1       5.790  -5.239   2.085  0.00  0.00    -0.270 N 
ATOM     32  C   UNL     1       6.427  -6.339   1.356  0.00  0.00    +0.118 C 
ATOM     33  C   UNL     1       7.711  -6.653   2.140  0.00  0.00    +0.056 C 
ATOM     34  C   UNL     1       7.702  -5.674   3.293  0.00  0.00    -0.024 A 
ATOM     35  C   UNL     1       6.567  -4.885   3.193  0.00  0.00    +0.040 A 
ATOM     36  C   UNL     1       6.343  -3.895   4.151  0.00  0.00    +0.024 A 
ATOM     37  C   UNL     1       7.243  -3.705   5.178  0.00  0.00    +0.002 A 
ATOM     38  C   UNL     1       8.375  -4.495   5.267  0.00  0.00    +0.000 A 
ATOM     39  C   UNL     1       8.599  -5.483   4.326  0.00  0.00    +0.005 A 
ENDBRANCH  28  29
ENDBRANCH  18  28
TORSDOF 3
