REMARK  Name = ZINC39606440
REMARK  9 active torsions:
REMARK  status: ('A' for Active; 'I' for Inactive)
REMARK    1  A    between atoms: C_1  and  C_2
REMARK    2  A    between atoms: C_2  and  C_3
REMARK    3  A    between atoms: C_3  and  C_5
REMARK    4  A    between atoms: C_3  and  C_6
REMARK    5  A    between atoms: C_6  and  N_7
REMARK    6  A    between atoms: C_8  and  C_10
REMARK    7  A    between atoms: C_21  and  C_23
REMARK    8  A    between atoms: C_28  and  O_29
REMARK    9  A    between atoms: O_29  and  C_30
REMARK                            x       y       z     vdW  Elec       q    Type
REMARK                         _______ _______ _______ _____ _____    ______ ____
ROOT
ATOM      1  C   UNL     1      -3.876  -4.443   0.376  0.00  0.00    +0.100 C 
ATOM      2  C   UNL     1      -4.880  -3.962  -0.696  0.00  0.00    +0.121 C 
ATOM      3  N   UNL     1      -5.004  -5.104  -1.632  0.00  0.00    -0.296 N 
ATOM      4  C   UNL     1      -5.001  -6.301  -0.756  0.00  0.00    +0.115 C 
ATOM      5  C   UNL     1      -3.961  -5.978   0.336  0.00  0.00    -0.004 C 
ATOM      6  C   UNL     1      -2.606  -6.573  -0.036  0.00  0.00    -0.010 C 
ATOM      7  C   UNL     1      -2.702  -8.101  -0.013  0.00  0.00    -0.082 C 
ATOM      8  N   UNL     1      -3.105  -8.549   1.325  0.00  0.00    +0.379 N 
ATOM      9  C   UNL     1      -4.449  -8.048   1.637  0.00  0.00    -0.082 C 
ATOM     10  C   UNL     1      -4.428  -6.518   1.685  0.00  0.00    -0.010 C 
ATOM     11  C   UNL     1      -5.099  -5.065  -2.976  0.00  0.00    +0.252 C 
ATOM     12  O   UNL     1      -5.292  -6.089  -3.602  0.00  0.00    -0.270 OA
ATOM     13  H   UNL     1      -3.108  -9.557   1.354  0.00  0.00    -0.086 HD
ATOM     14  H   UNL     1      -2.450  -8.197   2.007  0.00  0.00    -0.086 HD
ENDROOT
BRANCH  11  15
ATOM     15  C   UNL     1      -4.970  -3.779  -3.687  0.00  0.00    +0.099 A 
ATOM     16  C   UNL     1      -5.455  -2.597  -3.115  0.00  0.00    +0.020 A 
ATOM     17  C   UNL     1      -5.309  -1.417  -3.822  0.00  0.00    +0.021 A 
ATOM     18  C   UNL     1      -4.693  -1.438  -5.062  0.00  0.00    +0.114 A 
ATOM     19  N   UNL     1      -4.244  -2.563  -5.582  0.00  0.00    -0.220 NA
ATOM     20  C   UNL     1      -4.353  -3.718  -4.945  0.00  0.00    +0.233 A 
BRANCH  20  21
ATOM     21  O   UNL     1      -3.872  -4.848  -5.515  0.00  0.00    -0.437 OA
BRANCH  21  22
ATOM     22  C   UNL     1      -3.371  -4.764  -6.776  0.00  0.00    +0.130 A 
ATOM     23  C   UNL     1      -2.105  -4.236  -6.987  0.00  0.00    +0.048 A 
ATOM     24  C   UNL     1      -1.598  -4.152  -8.269  0.00  0.00    +0.023 A 
ATOM     25  C   UNL     1      -2.351  -4.594  -9.342  0.00  0.00    +0.041 A 
ATOM     26  C   UNL     1      -3.613  -5.121  -9.134  0.00  0.00    +0.023 A 
ATOM     27  C   UNL     1      -4.122  -5.212  -7.853  0.00  0.00    +0.048 A 
ATOM     28 CL   UNL     1      -1.711  -4.487 -10.952  0.00  0.00    -0.084 Cl
ENDBRANCH  21  22
ENDBRANCH  20  21
ENDBRANCH  11  15
BRANCH   1  30
ATOM     29  N   UNL     1      -1.583  -3.768   1.013  0.00  0.00    -0.315 N 
ATOM     30  C   UNL     1      -2.482  -3.986   0.032  0.00  0.00    +0.218 C 
ATOM     31  O   UNL     1      -2.168  -3.814  -1.127  0.00  0.00    -0.275 OA
ATOM     32  H   UNL     1      -1.834  -3.906   1.940  0.00  0.00    +0.149 HD
BRANCH  29  33
ATOM     33  C   UNL     1      -0.228  -3.324   0.679  0.00  0.00    +0.107 C 
BRANCH  33  34
ATOM     34  C   UNL     1       0.584  -3.152   1.965  0.00  0.00    +0.003 C 
ATOM     35  C   UNL     1      -0.019  -2.022   2.801  0.00  0.00    +0.009 C 
BRANCH  34  37
ATOM     36  C   UNL     1       2.871  -2.761   2.890  0.00  0.00    +0.004 C 
ATOM     37  C   UNL     1       2.032  -2.809   1.611  0.00  0.00    +0.001 C 
ENDBRANCH  34  37
ENDBRANCH  33  34
ENDBRANCH  29  33
ENDBRANCH   1  30
TORSDOF 7
