REMARK  Name = ZINC11828215
REMARK  9 active torsions:
REMARK  status: ('A' for Active; 'I' for Inactive)
REMARK    1  A    between atoms: C_1  and  C_2
REMARK    2  A    between atoms: C_5  and  O_9
REMARK    3  A    between atoms: C_6  and  C_8
REMARK    4  A    between atoms: O_9  and  C_10
REMARK    5  A    between atoms: C_10  and  C_11
REMARK    6  A    between atoms: C_11  and  O_12
REMARK    7  A    between atoms: O_12  and  C_13
REMARK    8  A    between atoms: C_18  and  C_19
REMARK    9  A    between atoms: N_20  and  O_21
REMARK                            x       y       z     vdW  Elec       q    Type
REMARK                         _______ _______ _______ _____ _____    ______ ____
ROOT
ATOM      1  O   UNL     1       3.456  -0.467   0.486  0.00  0.00    -0.488 OA
ENDROOT
BRANCH   1   2
ATOM      2  C   UNL     1       2.330   0.088  -0.032  0.00  0.00    +0.129 A 
ATOM      3  C   UNL     1       2.285   1.448  -0.298  0.00  0.00    +0.047 A 
ATOM      4  C   UNL     1       1.139   2.012  -0.826  0.00  0.00    +0.019 A 
ATOM      5  C   UNL     1       0.030   1.227  -1.092  0.00  0.00    +0.019 A 
ATOM      6  C   UNL     1       0.059  -0.128  -0.834  0.00  0.00    +0.028 A 
ATOM      7  C   UNL     1       1.211  -0.710  -0.301  0.00  0.00    +0.039 A 
ATOM      8 BR   UNL     1      -1.528   2.013  -1.821  0.00  0.00    -0.050 Br
BRANCH   7   9
ATOM      9  C   UNL     1       1.249  -2.158  -0.022  0.00  0.00    +0.164 C 
ATOM     10  N   UNL     1       0.146  -2.826   0.082  0.00  0.00    -0.095 NA
BRANCH  10  11
ATOM     11  O   UNL     1      -1.095  -2.145   0.098  0.00  0.00    -0.409 OA
ATOM     12  H   UNL     1      -2.033  -2.713   0.186  0.00  0.00    +0.328 HD
ENDBRANCH  10  11
ENDBRANCH   7   9
ENDBRANCH   1   2
BRANCH   1  13
ATOM     13  C   UNL     1       4.557   0.409   0.734  0.00  0.00    +0.270 C 
BRANCH  13  14
ATOM     14  C   UNL     1       5.725  -0.391   1.313  0.00  0.00    +0.270 C 
BRANCH  14  15
ATOM     15  O   UNL     1       6.195  -1.323   0.337  0.00  0.00    -0.488 OA
BRANCH  15  20
ATOM     16  C   UNL     1      10.516  -4.618   1.819  0.00  0.00    +0.044 C 
ATOM     17  C   UNL     1       9.360  -3.736   1.422  0.00  0.00    -0.050 A 
ATOM     18  C   UNL     1       8.857  -2.812   2.320  0.00  0.00    +0.007 A 
ATOM     19  C   UNL     1       7.797  -2.003   1.959  0.00  0.00    +0.046 A 
ATOM     20  C   UNL     1       7.238  -2.118   0.694  0.00  0.00    +0.124 A 
ATOM     21  C   UNL     1       7.741  -3.049  -0.203  0.00  0.00    -0.009 A 
ATOM     22  C   UNL     1       8.804  -3.852   0.162  0.00  0.00    +0.010 A 
ATOM     23  C   UNL     1       7.132  -3.180  -1.575  0.00  0.00    +0.047 C 
ENDBRANCH  15  20
ENDBRANCH  14  15
ENDBRANCH  13  14
ENDBRANCH   1  13
TORSDOF 7
