REMARK  Name = ZINC12094431
REMARK  12 active torsions:
REMARK  status: ('A' for Active; 'I' for Inactive)
REMARK    1  A    between atoms: C_1  and  C_2
REMARK    2  A    between atoms: C_2  and  C_3
REMARK    3  A    between atoms: C_2  and  C_4
REMARK    4  A    between atoms: C_2  and  O_27
REMARK    5  A    between atoms: C_5  and  C_6
REMARK    6  A    between atoms: C_9  and  C_11
REMARK    7  A    between atoms: C_11  and  N_59
REMARK    8  A    between atoms: C_15  and  C_17
REMARK    9  A    between atoms: C_15  and  C_25
REMARK   10  A    between atoms: C_17  and  C_18
REMARK   11  A    between atoms: C_18  and  C_19
REMARK   12  A    between atoms: C_25  and  O_26
REMARK                            x       y       z     vdW  Elec       q    Type
REMARK                         _______ _______ _______ _____ _____    ______ ____
ROOT
ATOM      1  C   UNL     1      -1.839   1.562   1.387  0.00  0.00    -0.078 C 
ATOM      2  C   UNL     1      -0.412   2.076   1.173  0.00  0.00    -0.018 C 
ATOM      3  C   UNL     1       0.189   1.395  -0.059  0.00  0.00    +0.005 C 
ATOM      4  C   UNL     1      -0.700   1.674  -1.274  0.00  0.00    -0.021 C 
ATOM      5  C   UNL     1      -2.117   1.172  -0.988  0.00  0.00    -0.069 C 
ATOM      6  N   UNL     1      -2.650   1.883   0.193  0.00  0.00    +0.383 N 
ATOM      7  H   UNL     1      -2.604   2.894   0.022  0.00  0.00    -0.081 HD
ENDROOT
BRANCH   6   8
ATOM      8  C   UNL     1      -4.058   1.499   0.421  0.00  0.00    -0.036 C 
BRANCH   8  12
ATOM      9  C   UNL     1      -5.140   2.510   4.340  0.00  0.00    +0.062 A 
ATOM     10  C   UNL     1      -5.378   3.476   3.396  0.00  0.00    +0.025 A 
ATOM     11  C   UNL     1      -5.047   3.214   2.085  0.00  0.00    +0.010 A 
ATOM     12  C   UNL     1      -4.498   2.013   1.768  0.00  0.00    -0.026 A 
ATOM     13  S   UNL     1      -4.439   1.197   3.355  0.00  0.00    -0.087 S 
BRANCH   9  15
ATOM     14  C   UNL     1      -5.601   2.573   6.905  0.00  0.00    -0.062 C 
ATOM     15  C   UNL     1      -5.393   2.545   5.749  0.00  0.00    -0.056 C 
BRANCH  14  17
ATOM     16  C   UNL     1      -5.421   1.284   8.982  0.00  0.00    +0.055 C 
ATOM     17  C   UNL     1      -5.861   2.608   8.353  0.00  0.00    +0.121 C 
ATOM     18  C   UNL     1      -5.075   3.759   8.985  0.00  0.00    +0.055 C 
BRANCH  17  19
ATOM     19  O   UNL     1      -7.258   2.804   8.581  0.00  0.00    -0.377 OA
ATOM     20  H   UNL     1      -7.503   2.837   9.516  0.00  0.00    +0.211 HD
ENDBRANCH  17  19
ENDBRANCH  14  17
ENDBRANCH   9  15
ENDBRANCH   8  12
ENDBRANCH   6   8
BRANCH   4  21
ATOM     21  C   UNL     1      -0.138   0.947  -2.497  0.00  0.00    +0.012 C 
BRANCH  21  22
ATOM     22  C   UNL     1      -1.017   1.241  -3.714  0.00  0.00    +0.035 C 
BRANCH  22  23
ATOM     23  C   UNL     1      -0.473   0.512  -4.915  0.00  0.00    -0.047 A 
ATOM     24  C   UNL     1       0.456   1.127  -5.734  0.00  0.00    +0.003 A 
ATOM     25  C   UNL     1       0.959   0.456  -6.833  0.00  0.00    +0.000 A 
ATOM     26  C   UNL     1       0.527  -0.826  -7.119  0.00  0.00    +0.000 A 
ATOM     27  C   UNL     1      -0.406  -1.438  -6.303  0.00  0.00    +0.000 A 
ATOM     28  C   UNL     1      -0.905  -0.770  -5.201  0.00  0.00    +0.003 A 
ENDBRANCH  22  23
ENDBRANCH  21  22
ENDBRANCH   4  21
BRANCH   4  29
ATOM     29  C   UNL     1      -0.736   3.179  -1.546  0.00  0.00    +0.161 C 
BRANCH  29  30
ATOM     30  O   UNL     1       0.581   3.639  -1.853  0.00  0.00    -0.395 OA
ATOM     31  H   UNL     1       0.634   4.587  -2.037  0.00  0.00    +0.209 HD
ENDBRANCH  29  30
ENDBRANCH   4  29
TORSDOF 10
