REMARK  Name = ZINC12139951
REMARK  7 active torsions:
REMARK  status: ('A' for Active; 'I' for Inactive)
REMARK    1  A    between atoms: C_1  and  N_2
REMARK    2  A    between atoms: C_6  and  C_23
REMARK    3  A    between atoms: C_8  and  C_16
REMARK    4  A    between atoms: C_10  and  C_11
REMARK    5  A    between atoms: C_10  and  O_15
REMARK    6  A    between atoms: C_16  and  C_18
REMARK    7  A    between atoms: C_27  and  O_29
REMARK                            x       y       z     vdW  Elec       q    Type
REMARK                         _______ _______ _______ _____ _____    ______ ____
ROOT
ATOM      1  C   UNL     1      -2.609   3.570   0.067  0.00  0.00    +0.137 C 
ATOM      2  N   UNL     1      -1.284   2.945   0.041  0.00  0.00    -0.253 N 
ATOM      3  C   UNL     1      -1.189   1.607   0.017  0.00  0.00    +0.305 C 
ATOM      4  O   UNL     1      -2.212   0.949   0.007  0.00  0.00    -0.253 OA
ATOM      5  N   UNL     1      -0.011   0.966   0.007  0.00  0.00    -0.292 N 
ATOM      6  C   UNL     1       1.255   1.700  -0.001  0.00  0.00    +0.120 C 
ATOM      7  C   UNL     1       1.062   3.043   0.711  0.00  0.00    +0.145 C 
ATOM      8  C   UNL     1      -0.091   3.793   0.034  0.00  0.00    +0.245 C 
ATOM      9  H   UNL     1       0.002  -0.004   0.002  0.00  0.00    +0.151 HD
ENDROOT
BRANCH   6  10
ATOM     10  C   UNL     1       2.309   0.896   0.716  0.00  0.00    -0.023 A 
ATOM     11  C   UNL     1       1.985   0.209   1.872  0.00  0.00    +0.006 A 
ATOM     12  C   UNL     1       2.948  -0.534   2.530  0.00  0.00    +0.004 A 
ATOM     13  C   UNL     1       4.239  -0.583   2.039  0.00  0.00    +0.045 A 
ATOM     14  C   UNL     1       4.567   0.109   0.882  0.00  0.00    +0.117 A 
ATOM     15  C   UNL     1       3.597   0.850   0.222  0.00  0.00    +0.051 A 
BRANCH  14  16
ATOM     16  O   UNL     1       5.835   0.062   0.398  0.00  0.00    -0.507 OA
ATOM     17  H   UNL     1       6.414   0.756   0.741  0.00  0.00    +0.292 HD
ENDBRANCH  14  16
ENDBRANCH   6  10
BRANCH   8  18
ATOM     18  C   UNL     1       0.293   4.125  -1.409  0.00  0.00    +0.436 C 
ATOM     19  F   UNL     1       0.552   2.941  -2.107  0.00  0.00    -0.166 F 
ATOM     20  F   UNL     1      -0.760   4.809  -2.026  0.00  0.00    -0.166 F 
ATOM     21  F   UNL     1       1.438   4.929  -1.414  0.00  0.00    -0.166 F 
ENDBRANCH   8  18
BRANCH   8  22
ATOM     22  O   UNL     1      -0.359   5.002   0.748  0.00  0.00    -0.364 OA
ATOM     23  H   UNL     1      -1.079   5.528   0.374  0.00  0.00    +0.212 HD
ENDBRANCH   8  22
BRANCH   7  24
ATOM     24  C   UNL     1       0.728   2.804   2.161  0.00  0.00    +0.180 C 
ATOM     25  O   UNL     1      -0.430   2.688   2.506  0.00  0.00    -0.291 OA
BRANCH  24  26
ATOM     26  C   UNL     1       1.763   2.716   3.119  0.00  0.00    +0.055 A 
ATOM     27  C   UNL     1       1.672   2.509   4.491  0.00  0.00    +0.019 A 
ATOM     28  C   UNL     1       2.848   2.461   5.192  0.00  0.00    +0.008 A 
ATOM     29  C   UNL     1       4.025   2.628   4.530  0.00  0.00    +0.046 A 
ATOM     30  S   UNL     1       3.526   2.851   2.885  0.00  0.00    -0.094 S 
ENDBRANCH  24  26
ENDBRANCH   7  24
TORSDOF 6
