REMARK  Name = ZINC04082801
REMARK  11 active torsions:
REMARK  status: ('A' for Active; 'I' for Inactive)
REMARK    1  A    between atoms: C_1  and  C_2
REMARK    2  A    between atoms: C_2  and  C_3
REMARK    3  A    between atoms: C_3  and  C_4
REMARK    4  A    between atoms: C_4  and  O_5
REMARK    5  A    between atoms: O_5  and  C_6
REMARK    6  A    between atoms: C_11  and  C_12
REMARK    7  A    between atoms: C_17  and  C_22
REMARK    8  A    between atoms: C_25  and  O_30
REMARK    9  A    between atoms: C_26  and  O_28
REMARK   10  A    between atoms: O_28  and  C_29
REMARK   11  A    between atoms: O_30  and  C_31
REMARK                            x       y       z     vdW  Elec       q    Type
REMARK                         _______ _______ _______ _____ _____    ______ ____
ROOT
ATOM      1  C   UNL     1      -2.450   0.946   0.076  0.00  0.00    +0.139 C 
ATOM      2  C   UNL     1      -1.173   1.743  -0.043  0.00  0.00    +0.037 C 
ATOM      3  C   UNL     1      -1.079   3.083  -0.057  0.00  0.00    +0.017 C 
ATOM      4  C   UNL     1       0.277   3.759  -0.176  0.00  0.00    +0.059 C 
ATOM      5  C   UNL     1       1.347   2.906   0.504  0.00  0.00    +0.032 C 
ATOM      6  C   UNL     1       1.367   1.540  -0.193  0.00  0.00    +0.088 C 
ATOM      7  C   UNL     1      -0.007   0.945  -0.117  0.00  0.00    +0.163 C 
ATOM      8  O   UNL     1      -0.123  -0.265  -0.125  0.00  0.00    -0.292 OA
ATOM      9  N   UNL     1      -2.134   3.934   0.012  0.00  0.00    -0.316 N 
ATOM     10  C   UNL     1      -3.181   3.829   0.920  0.00  0.00    +0.052 A 
ATOM     11  C   UNL     1      -3.416   4.784   1.894  0.00  0.00    +0.025 A 
ATOM     12  C   UNL     1      -4.506   4.641   2.736  0.00  0.00    +0.002 A 
ATOM     13  C   UNL     1      -5.354   3.557   2.602  0.00  0.00    +0.002 A 
ATOM     14  C   UNL     1      -5.110   2.592   1.639  0.00  0.00    +0.025 A 
ATOM     15  C   UNL     1      -4.008   2.721   0.810  0.00  0.00    +0.049 A 
ATOM     16  N   UNL     1      -3.659   1.722  -0.097  0.00  0.00    -0.331 N 
ATOM     17  H   UNL     1      -2.159   4.670  -0.619  0.00  0.00    +0.152 HD
ATOM     18  H   UNL     1      -4.237   1.543  -0.856  0.00  0.00    +0.147 HD
ENDROOT
BRANCH   1  24
ATOM     19  C   UNL     1      -3.275  -0.821   1.652  0.00  0.00    +0.126 A 
ATOM     20  C   UNL     1      -3.307  -1.414   2.906  0.00  0.00    +0.046 A 
ATOM     21  C   UNL     1      -2.554  -0.886   3.937  0.00  0.00    +0.004 A 
ATOM     22  C   UNL     1      -1.769   0.231   3.720  0.00  0.00    +0.001 A 
ATOM     23  C   UNL     1      -1.731   0.820   2.470  0.00  0.00    +0.009 A 
ATOM     24  C   UNL     1      -2.487   0.300   1.437  0.00  0.00    +0.019 A 
BRANCH  19  25
ATOM     25  O   UNL     1      -4.015  -1.338   0.636  0.00  0.00    -0.492 OA
BRANCH  25  26
ATOM     26  C   UNL     1      -4.803  -2.493   0.930  0.00  0.00    +0.229 C 
BRANCH  26  27
ATOM     27  C   UNL     1      -5.560  -2.927  -0.327  0.00  0.00    +0.041 C 
BRANCH  27  29
ATOM     28  C   UNL     1      -7.161  -4.598  -1.269  0.00  0.00    +0.004 C 
ATOM     29  C   UNL     1      -6.404  -4.164  -0.012  0.00  0.00    -0.000 C 
ENDBRANCH  27  29
ENDBRANCH  26  27
ENDBRANCH  25  26
ENDBRANCH  19  25
ENDBRANCH   1  24
BRANCH   5  30
ATOM     30  C   UNL     1       2.692   3.570   0.368  0.00  0.00    -0.040 A 
ATOM     31  C   UNL     1       3.200   3.848  -0.887  0.00  0.00    +0.008 A 
ATOM     32  C   UNL     1       4.434   4.458  -1.018  0.00  0.00    +0.049 A 
ATOM     33  C   UNL     1       5.165   4.791   0.112  0.00  0.00    +0.161 A 
ATOM     34  C   UNL     1       4.654   4.510   1.375  0.00  0.00    +0.162 A 
ATOM     35  C   UNL     1       3.414   3.904   1.499  0.00  0.00    +0.053 A 
BRANCH  34  36
ATOM     36  O   UNL     1       5.368   4.835   2.486  0.00  0.00    -0.491 OA
ATOM     37  C   UNL     1       4.781   4.517   3.750  0.00  0.00    +0.277 C 
ENDBRANCH  34  36
BRANCH  33  38
ATOM     38  O   UNL     1       6.379   5.391  -0.015  0.00  0.00    -0.491 OA
ATOM     39  C   UNL     1       6.840   5.649  -1.343  0.00  0.00    +0.277 C 
ENDBRANCH  33  38
ENDBRANCH   5  30
TORSDOF 8
