REMARK  Name = ZINC35729390
REMARK  7 active torsions:
REMARK  status: ('A' for Active; 'I' for Inactive)
REMARK    1  A    between atoms: C_4  and  C_7
REMARK    2  A    between atoms: C_7  and  C_8
REMARK    3  A    between atoms: C_8  and  C_10
REMARK    4  A    between atoms: C_8  and  N_27
REMARK    5  A    between atoms: C_16  and  C_18
REMARK    6  A    between atoms: C_28  and  C_30
REMARK    7  A    between atoms: C_33  and  C_35
REMARK                            x       y       z     vdW  Elec       q    Type
REMARK                         _______ _______ _______ _____ _____    ______ ____
ROOT
ATOM      1  C   UNL     1       4.171  -0.963   1.399  0.00  0.00    +0.163 C 
ENDROOT
BRANCH   1   2
ATOM      2  C   UNL     1       5.422  -1.804   1.383  0.00  0.00    +0.239 C 
ATOM      3  O   UNL     1       6.446  -1.378   1.874  0.00  0.00    -0.273 OA
ATOM      4  N   UNL     1       5.402  -3.031   0.824  0.00  0.00    -0.262 N 
ATOM      5  C   UNL     1       6.555  -3.807   0.810  0.00  0.00    +0.188 A 
ATOM      6  N   UNL     1       7.765  -3.544   1.287  0.00  0.00    -0.125 NA
ATOM      7  N   UNL     1       8.713  -4.370   1.191  0.00  0.00    -0.140 NA
ATOM      8  C   UNL     1       8.557  -5.551   0.605  0.00  0.00    +0.134 A 
ATOM      9  S   UNL     1       6.829  -5.448   0.149  0.00  0.00    -0.030 S 
ATOM     10  H   UNL     1       4.583  -3.372   0.432  0.00  0.00    +0.157 HD
BRANCH   8  11
ATOM     11  C   UNL     1       9.531  -6.643   0.394  0.00  0.00    +0.013 A 
ATOM     12  C   UNL     1       9.142  -7.811  -0.262  0.00  0.00    +0.014 A 
ATOM     13  C   UNL     1      10.052  -8.829  -0.458  0.00  0.00    +0.050 A 
ATOM     14  C   UNL     1      11.356  -8.695  -0.005  0.00  0.00    +0.166 A 
ATOM     15  C   UNL     1      11.752  -7.530   0.651  0.00  0.00    +0.167 A 
ATOM     16  C   UNL     1      10.845  -6.505   0.846  0.00  0.00    +0.060 A 
ATOM     17  O   UNL     1      13.069  -7.648   0.992  0.00  0.00    -0.453 OA
ATOM     18  C   UNL     1      13.365  -9.054   0.903  0.00  0.00    +0.466 C 
ATOM     19  O   UNL     1      12.426  -9.540  -0.074  0.00  0.00    -0.453 OA
ENDBRANCH   8  11
ENDBRANCH   1   2
BRANCH   1  20
ATOM     20  N   UNL     1       4.451   0.315   2.057  0.00  0.00    -0.303 N 
ATOM     21  C   UNL     1       3.451   1.007   2.638  0.00  0.00    +0.217 C 
ATOM     22  O   UNL     1       2.319   0.571   2.616  0.00  0.00    -0.275 OA
ATOM     23  H   UNL     1       5.356   0.664   2.075  0.00  0.00    +0.149 HD
BRANCH  21  24
ATOM     24  C   UNL     1       3.739   2.322   3.316  0.00  0.00    +0.083 C 
ATOM     25  C   UNL     1       3.186   3.590   2.661  0.00  0.00    +0.022 C 
ATOM     26  C   UNL     1       2.561   3.060   3.955  0.00  0.00    +0.032 C 
BRANCH  26  27
ATOM     27  C   UNL     1       2.827   3.831   5.222  0.00  0.00    -0.044 A 
ATOM     28  C   UNL     1       3.745   4.864   5.223  0.00  0.00    +0.004 A 
ATOM     29  C   UNL     1       3.989   5.571   6.385  0.00  0.00    +0.000 A 
ATOM     30  C   UNL     1       3.316   5.244   7.547  0.00  0.00    +0.000 A 
ATOM     31  C   UNL     1       2.398   4.211   7.547  0.00  0.00    +0.000 A 
ATOM     32  C   UNL     1       2.150   3.507   6.383  0.00  0.00    +0.004 A 
ENDBRANCH  26  27
ENDBRANCH  21  24
ENDBRANCH   1  20
BRANCH   1  33
ATOM     33  C   UNL     1       3.711  -0.707  -0.038  0.00  0.00    +0.067 C 
BRANCH  33  37
ATOM     34  C   UNL     1      -0.017   1.378   0.010  0.00  0.00    +0.000 A 
ATOM     35  C   UNL     1       1.171   2.086   0.002  0.00  0.00    +0.000 A 
ATOM     36  C   UNL     1       2.377   1.411  -0.013  0.00  0.00    +0.004 A 
ATOM     37  C   UNL     1       2.396   0.029  -0.020  0.00  0.00    -0.045 A 
ATOM     38  C   UNL     1       1.208  -0.679  -0.012  0.00  0.00    +0.004 A 
ATOM     39  C   UNL     1       0.002  -0.004   0.002  0.00  0.00    +0.000 A 
ENDBRANCH  33  37
ENDBRANCH   1  33
TORSDOF 7
