REMARK  Name = ZINC26804294
REMARK  6 active torsions:
REMARK  status: ('A' for Active; 'I' for Inactive)
REMARK    1  A    between atoms: C_1  and  O_2
REMARK    2  A    between atoms: O_2  and  C_3
REMARK    3  A    between atoms: C_3  and  C_5
REMARK    4  A    between atoms: C_5  and  N_15
REMARK    5  A    between atoms: C_6  and  C_7
REMARK    6  A    between atoms: C_16  and  C_18
REMARK                            x       y       z     vdW  Elec       q    Type
REMARK                         _______ _______ _______ _____ _____    ______ ____
ROOT
ATOM      1  C   UNL     1      -3.721   2.196   0.178  0.00  0.00    +0.119 C 
ATOM      2  C   UNL     1      -4.899   1.527   0.133  0.00  0.00    +0.040 C 
ENDROOT
BRANCH   2   3
ATOM      3  C   UNL     1      -4.917   0.062   0.252  0.00  0.00    -0.005 A 
ATOM      4  C   UNL     1      -3.828  -0.694  -0.195  0.00  0.00    +0.011 A 
ATOM      5  C   UNL     1      -3.852  -2.067  -0.080  0.00  0.00    +0.020 A 
ATOM      6  C   UNL     1      -4.951  -2.700   0.478  0.00  0.00    +0.042 A 
ATOM      7  C   UNL     1      -6.033  -1.960   0.924  0.00  0.00    +0.040 A 
ATOM      8  C   UNL     1      -6.022  -0.584   0.820  0.00  0.00    +0.050 A 
ATOM      9 CL   UNL     1      -7.376   0.344   1.385  0.00  0.00    -0.083 Cl
ATOM     10 CL   UNL     1      -4.972  -4.430   0.619  0.00  0.00    -0.083 Cl
ENDBRANCH   2   3
BRANCH   1  11
ATOM     11  N   UNL     1      -2.539   1.511   0.478  0.00  0.00    -0.276 N 
ATOM     12  C   UNL     1      -1.500   1.552  -0.379  0.00  0.00    +0.250 C 
ATOM     13  O   UNL     1      -1.620   2.109  -1.454  0.00  0.00    -0.270 OA
ATOM     14  H   UNL     1      -2.458   0.939   1.414  0.00  0.00    +0.155 HD
BRANCH  12  15
ATOM     15  C   UNL     1      -0.216   0.920  -0.015  0.00  0.00    +0.055 A 
ATOM     16  C   UNL     1      -0.075   0.280   1.219  0.00  0.00    +0.016 A 
ATOM     17  C   UNL     1       1.124  -0.313   1.551  0.00  0.00    +0.021 A 
ATOM     18  C   UNL     1       2.189  -0.274   0.666  0.00  0.00    +0.042 A 
ATOM     19  C   UNL     1       2.057   0.359  -0.558  0.00  0.00    +0.040 A 
ATOM     20  C   UNL     1       0.861   0.956  -0.904  0.00  0.00    +0.054 A 
ATOM     21 CL   UNL     1       0.696   1.749  -2.439  0.00  0.00    -0.083 Cl
ATOM     22 CL   UNL     1       3.696  -1.023   1.093  0.00  0.00    -0.083 Cl
ENDBRANCH  12  15
ENDBRANCH   1  11
BRANCH   1  23
ATOM     23  C   UNL     1      -3.686   3.639  -0.087  0.00  0.00    +0.353 C 
ATOM     24  O   UNL     1      -4.702   4.222  -0.413  0.00  0.00    -0.244 OA
BRANCH  23  26
ATOM     25  C   UNL     1      -2.567   5.743  -0.248  0.00  0.00    +0.280 C 
ATOM     26  O   UNL     1      -2.527   4.318   0.030  0.00  0.00    -0.464 OA
ENDBRANCH  23  26
ENDBRANCH   1  23
TORSDOF 5
