REMARK  Name = ZINC05041951
REMARK  7 active torsions:
REMARK  status: ('A' for Active; 'I' for Inactive)
REMARK    1  A    between atoms: C_1  and  C_2
REMARK    2  A    between atoms: C_2  and  O_3
REMARK    3  A    between atoms: O_3  and  C_4
REMARK    4  A    between atoms: C_7  and  C_10
REMARK    5  A    between atoms: C_10  and  C_12
REMARK    6  A    between atoms: C_10  and  N_13
REMARK    7  A    between atoms: N_16  and  C_17
REMARK                            x       y       z     vdW  Elec       q    Type
REMARK                         _______ _______ _______ _____ _____    ______ ____
ROOT
ATOM      1  N   UNL     1       1.178  -0.662  -0.013  0.00  0.00    -0.293 N 
ATOM      2  C   UNL     1       0.002  -0.004   0.002  0.00  0.00    +0.300 C 
ATOM      3  O   UNL     1      -1.042  -0.626   0.009  0.00  0.00    -0.253 OA
ATOM      4  N   UNL     1      -0.016   1.344   0.009  0.00  0.00    -0.294 N 
ATOM      5  H   UNL     1       2.012  -0.166  -0.018  0.00  0.00    +0.151 HD
ATOM      6  H   UNL     1       0.817   1.840   0.004  0.00  0.00    +0.151 HD
ENDROOT
BRANCH   4   7
ATOM      7  C   UNL     1      -1.295   2.059   0.019  0.00  0.00    +0.037 C 
ATOM      8  C   UNL     1      -2.098   1.685  -1.228  0.00  0.00    +0.029 C 
ATOM      9  C   UNL     1      -3.433   2.432  -1.218  0.00  0.00    -0.008 C 
ATOM     10  C   UNL     1      -3.174   3.940  -1.211  0.00  0.00    +0.007 C 
ATOM     11  C   UNL     1      -2.371   4.314   0.037  0.00  0.00    -0.008 C 
ATOM     12  C   UNL     1      -1.036   3.567   0.026  0.00  0.00    +0.029 C 
ATOM     13  C   UNL     1      -3.162   3.926   1.288  0.00  0.00    +0.007 C 
ATOM     14  C   UNL     1      -3.421   2.418   1.281  0.00  0.00    -0.008 C 
ATOM     15  C   UNL     1      -4.224   2.045   0.033  0.00  0.00    +0.007 C 
ATOM     16  C   UNL     1      -2.086   1.671   1.270  0.00  0.00    +0.029 C 
ENDBRANCH   4   7
BRANCH   1  17
ATOM     17  C   UNL     1       1.198  -2.127  -0.021  0.00  0.00    +0.102 C 
ATOM     18  C   UNL     1       1.093  -2.646   1.415  0.00  0.00    +0.033 C 
BRANCH  17  22
ATOM     19  C   UNL     1       4.852  -3.492  -1.766  0.00  0.00    +0.121 A 
ATOM     20  C   UNL     1       3.660  -4.142  -2.051  0.00  0.00    +0.046 A 
ATOM     21  C   UNL     1       2.481  -3.699  -1.486  0.00  0.00    +0.009 A 
ATOM     22  C   UNL     1       2.487  -2.608  -0.636  0.00  0.00    -0.027 A 
ATOM     23  C   UNL     1       3.672  -1.955  -0.355  0.00  0.00    +0.009 A 
ATOM     24  C   UNL     1       4.856  -2.398  -0.913  0.00  0.00    +0.046 A 
BRANCH  19  25
ATOM     25  O   UNL     1       6.014  -3.926  -2.322  0.00  0.00    -0.492 OA
BRANCH  25  27
ATOM     26  C   UNL     1       8.400  -3.838  -2.699  0.00  0.00    +0.048 C 
ATOM     27  C   UNL     1       7.203  -3.208  -1.984  0.00  0.00    +0.225 C 
ENDBRANCH  25  27
ENDBRANCH  19  25
ENDBRANCH  17  22
ENDBRANCH   1  17
TORSDOF 5
