REMARK  Name = ZINC04998967
REMARK  5 active torsions:
REMARK  status: ('A' for Active; 'I' for Inactive)
REMARK    1  A    between atoms: C_1  and  C_2
REMARK    2  A    between atoms: C_6  and  C_7
REMARK    3  A    between atoms: C_12  and  C_17
REMARK    4  A    between atoms: C_22  and  S_24
REMARK    5  A    between atoms: S_24  and  C_25
REMARK                            x       y       z     vdW  Elec       q    Type
REMARK                         _______ _______ _______ _____ _____    ______ ____
ROOT
ATOM      1  C   UNL     1       0.030  -0.179   2.581  0.00  0.00    +0.182 C 
ATOM      2  C   UNL     1      -1.195  -0.687   3.308  0.00  0.00    +0.041 C 
ATOM      3  C   UNL     1      -1.124  -1.664   4.237  0.00  0.00    +0.020 C 
ATOM      4  C   UNL     1      -2.368  -2.164   4.935  0.00  0.00    +0.055 C 
ATOM      5  C   UNL     1      -3.381  -1.024   5.059  0.00  0.00    -0.001 C 
ATOM      6  C   UNL     1      -3.705  -0.511   3.652  0.00  0.00    +0.083 C 
ATOM      7  C   UNL     1      -2.428  -0.095   2.978  0.00  0.00    +0.163 C 
ATOM      8  O   UNL     1      -2.460   0.773   2.127  0.00  0.00    -0.292 OA
ATOM      9  C   UNL     1      -4.657  -1.539   5.728  0.00  0.00    +0.008 C 
ATOM     10  N   UNL     1       0.072  -2.241   4.592  0.00  0.00    -0.287 N 
ATOM     11  C   UNL     1       1.241  -1.610   4.199  0.00  0.00    +0.219 A 
ATOM     12  N   UNL     1       1.236  -0.637   3.258  0.00  0.00    -0.219 N 
ATOM     13  N   UNL     1       2.559  -0.222   3.112  0.00  0.00    -0.141 NA
ATOM     14  C   UNL     1       3.277  -0.947   3.942  0.00  0.00    +0.210 A 
ATOM     15  N   UNL     1       2.471  -1.786   4.597  0.00  0.00    -0.187 NA
ATOM     16  H   UNL     1       0.096  -3.065   5.103  0.00  0.00    +0.155 HD
ENDROOT
BRANCH   1  22
ATOM     17  C   UNL     1      -0.018   1.503   0.010  0.00  0.00    +0.044 C 
ATOM     18  C   UNL     1       0.002  -0.004   0.002  0.00  0.00    -0.038 A 
ATOM     19  C   UNL     1       0.006  -0.699  -1.193  0.00  0.00    +0.011 A 
ATOM     20  C   UNL     1       0.024  -2.054  -1.165  0.00  0.00    +0.046 A 
ATOM     21  S   UNL     1       0.037  -2.387   0.589  0.00  0.00    -0.099 S 
ATOM     22  C   UNL     1       0.023  -0.698   1.166  0.00  0.00    +0.022 A 
ENDBRANCH   1  22
BRANCH  14  23
ATOM     23  S   UNL     1       5.022  -0.829   4.156  0.00  0.00    -0.088 S 
ATOM     24  C   UNL     1       5.394  -2.075   5.421  0.00  0.00    +0.093 C 
ENDBRANCH  14  23
TORSDOF 2
