REMARK  Name = ZINC21732753
REMARK  5 active torsions:
REMARK  status: ('A' for Active; 'I' for Inactive)
REMARK    1  A    between atoms: C_1  and  C_2
REMARK    2  A    between atoms: C_2  and  C_22
REMARK    3  A    between atoms: N_5  and  C_9
REMARK    4  A    between atoms: C_9  and  C_10
REMARK    5  A    between atoms: C_13  and  C_16
REMARK                            x       y       z     vdW  Elec       q    Type
REMARK                         _______ _______ _______ _____ _____    ______ ____
ROOT
ATOM      1  C   UNL     1      -5.444   4.196  -3.643  0.00  0.00    +0.050 C 
ATOM      2  C   UNL     1      -3.961   3.920  -3.392  0.00  0.00    +0.168 C 
ATOM      3  C   UNL     1      -3.762   3.260  -2.042  0.00  0.00    +0.254 C 
ATOM      4  O   UNL     1      -4.202   2.191  -1.677  0.00  0.00    -0.272 OA
ATOM      5  N   UNL     1      -2.994   4.109  -1.331  0.00  0.00    -0.219 N 
ATOM      6  C   UNL     1      -2.687   5.204  -2.035  0.00  0.00    +0.310 C 
ATOM      7  O   UNL     1      -2.007   6.116  -1.605  0.00  0.00    -0.252 OA
ATOM      8  N   UNL     1      -3.211   5.182  -3.274  0.00  0.00    -0.279 N 
ATOM      9  H   UNL     1      -3.174   5.881  -4.123  0.00  0.00    +0.152 HD
ENDROOT
BRANCH   2  10
ATOM     10  C   UNL     1      -3.390   3.061  -4.491  0.00  0.00    +0.137 A 
ATOM     11  C   UNL     1      -2.883   3.506  -5.654  0.00  0.00    +0.047 A 
ATOM     12  C   UNL     1      -2.462   2.368  -6.380  0.00  0.00    +0.041 A 
ATOM     13  C   UNL     1      -2.744   1.295  -5.620  0.00  0.00    +0.195 A 
ATOM     14  O   UNL     1      -3.306   1.720  -4.477  0.00  0.00    -0.465 OA
ENDBRANCH   2  10
BRANCH   5  15
ATOM     15  C   UNL     1      -2.554   3.865   0.045  0.00  0.00    +0.153 C 
BRANCH  15  16
ATOM     16  C   UNL     1      -1.236   3.134   0.030  0.00  0.00    -0.030 A 
ATOM     17  C   UNL     1      -1.216   1.751   0.017  0.00  0.00    +0.006 A 
ATOM     18  C   UNL     1      -0.013   1.076   0.008  0.00  0.00    +0.009 A 
ATOM     19  C   UNL     1       1.184   1.790   0.000  0.00  0.00    -0.018 A 
ATOM     20  C   UNL     1       1.157   3.183   0.008  0.00  0.00    +0.009 A 
ATOM     21  C   UNL     1      -0.052   3.848   0.022  0.00  0.00    +0.006 A 
BRANCH  19  22
ATOM     22  C   UNL     1       2.481   1.070  -0.015  0.00  0.00    -0.018 A 
ATOM     23  C   UNL     1       2.507  -0.323  -0.016  0.00  0.00    +0.008 A 
ATOM     24  C   UNL     1       3.717  -0.988  -0.035  0.00  0.00    +0.001 A 
ATOM     25  C   UNL     1       4.901  -0.274  -0.043  0.00  0.00    +0.000 A 
ATOM     26  C   UNL     1       4.881   1.109  -0.036  0.00  0.00    +0.001 A 
ATOM     27  C   UNL     1       3.677   1.784  -0.022  0.00  0.00    +0.008 A 
ENDBRANCH  19  22
ENDBRANCH  15  16
ENDBRANCH   5  15
TORSDOF 4
