REMARK  Name = ZINC01873501
REMARK  8 active torsions:
REMARK  status: ('A' for Active; 'I' for Inactive)
REMARK    1  A    between atoms: C_1  and  O_2
REMARK    2  A    between atoms: O_2  and  C_3
REMARK    3  A    between atoms: C_6  and  C_10
REMARK    4  A    between atoms: N_11  and  N_12
REMARK    5  A    between atoms: C_13  and  C_15
REMARK    6  A    between atoms: C_15  and  S_16
REMARK    7  A    between atoms: S_16  and  C_17
REMARK    8  A    between atoms: N_30  and  C_31
REMARK                            x       y       z     vdW  Elec       q    Type
REMARK                         _______ _______ _______ _____ _____    ______ ____
ROOT
ATOM      1  C   UNL     1      -9.135  -9.246  -0.619  0.00  0.00    +0.178 A 
ATOM      2  N   UNL     1     -10.177  -8.439  -0.634  0.00  0.00    -0.215 NA
ATOM      3  C   UNL     1     -11.292  -8.756   0.014  0.00  0.00    +0.117 A 
ATOM      4  C   UNL     1     -11.420  -9.951   0.741  0.00  0.00    +0.076 A 
ATOM      5  C   UNL     1     -12.709 -10.162   1.403  0.00  0.00    -0.023 A 
ATOM      6  C   UNL     1     -13.639  -9.197   1.253  0.00  0.00    -0.004 A 
ATOM      7  S   UNL     1     -12.867  -7.968   0.235  0.00  0.00    -0.073 S 
ATOM      8  C   UNL     1     -15.024  -9.174   1.824  0.00  0.00    +0.043 C 
ATOM      9  C   UNL     1     -15.372 -10.589   2.309  0.00  0.00    +0.005 C 
ATOM     10  C   UNL     1     -14.202 -11.124   3.141  0.00  0.00    +0.005 C 
ATOM     11  C   UNL     1     -13.006 -11.409   2.231  0.00  0.00    +0.037 C 
ATOM     12  C   UNL     1     -10.275 -10.809   0.740  0.00  0.00    +0.268 A 
ATOM     13  O   UNL     1     -10.295 -11.867   1.343  0.00  0.00    -0.267 OA
ATOM     14  N   UNL     1      -9.177 -10.432   0.059  0.00  0.00    -0.255 N 
ENDROOT
BRANCH  14  15
ATOM     15  C   UNL     1      -8.053 -11.269   0.050  0.00  0.00    +0.052 A 
ATOM     16  C   UNL     1      -7.911 -12.232  -0.940  0.00  0.00    +0.026 A 
ATOM     17  C   UNL     1      -6.802 -13.055  -0.947  0.00  0.00    +0.002 A 
ATOM     18  C   UNL     1      -5.834 -12.921   0.031  0.00  0.00    +0.000 A 
ATOM     19  C   UNL     1      -5.972 -11.963   1.018  0.00  0.00    +0.002 A 
ATOM     20  C   UNL     1      -7.076 -11.133   1.027  0.00  0.00    +0.026 A 
ENDBRANCH  14  15
BRANCH   1  21
ATOM     21  S   UNL     1      -7.672  -8.793  -1.490  0.00  0.00    -0.078 S 
BRANCH  21  22
ATOM     22  C   UNL     1      -8.076  -7.181  -2.217  0.00  0.00    +0.174 C 
BRANCH  22  24
ATOM     23  N   UNL     1      -6.963  -5.485  -3.633  0.00  0.00    -0.206 N 
ATOM     24  C   UNL     1      -6.893  -6.673  -3.001  0.00  0.00    +0.242 C 
ATOM     25  O   UNL     1      -5.877  -7.334  -3.063  0.00  0.00    -0.273 OA
ATOM     26  H   UNL     1      -7.775  -4.956  -3.583  0.00  0.00    +0.177 HD
BRANCH  23  28
ATOM     27  C   UNL     1      -5.931  -3.868  -4.970  0.00  0.00    +0.138 C 
ATOM     28  N   UNL     1      -5.864  -5.012  -4.361  0.00  0.00    -0.188 NA
BRANCH  27  32
ATOM     29  C   UNL     1      -2.599  -2.436  -7.177  0.00  0.00    +0.134 A 
ATOM     30  C   UNL     1      -3.761  -1.678  -7.107  0.00  0.00    +0.047 A 
ATOM     31  C   UNL     1      -4.845  -2.139  -6.392  0.00  0.00    +0.013 A 
ATOM     32  C   UNL     1      -4.774  -3.371  -5.736  0.00  0.00    -0.004 A 
ATOM     33  C   UNL     1      -3.603  -4.130  -5.809  0.00  0.00    +0.028 A 
ATOM     34  C   UNL     1      -2.526  -3.664  -6.531  0.00  0.00    +0.060 A 
ATOM     35 BR   UNL     1      -0.943  -4.694  -6.637  0.00  0.00    -0.046 Br
BRANCH  29  37
ATOM     36  C   UNL     1      -1.676  -0.707  -8.522  0.00  0.00    +0.277 C 
ATOM     37  O   UNL     1      -1.533  -1.977  -7.883  0.00  0.00    -0.494 OA
ENDBRANCH  29  37
ENDBRANCH  27  32
ENDBRANCH  23  28
ENDBRANCH  22  24
ENDBRANCH  21  22
ENDBRANCH   1  21
TORSDOF 7
