REMARK  Name = ZINC05191886
REMARK  7 active torsions:
REMARK  status: ('A' for Active; 'I' for Inactive)
REMARK    1  A    between atoms: C_1  and  C_2
REMARK    2  A    between atoms: C_2  and  O_3
REMARK    3  A    between atoms: O_3  and  C_4
REMARK    4  A    between atoms: C_7  and  N_10
REMARK    5  A    between atoms: C_12  and  N_17
REMARK    6  A    between atoms: C_21  and  C_29
REMARK    7  A    between atoms: C_26  and  C_28
REMARK                            x       y       z     vdW  Elec       q    Type
REMARK                         _______ _______ _______ _____ _____    ______ ____
ROOT
ATOM      1  N   UNL     1       3.474   2.218  -0.064  0.00  0.00    -0.270 N 
ATOM      2  C   UNL     1       3.600   3.677  -0.172  0.00  0.00    +0.136 C 
ATOM      3  C   UNL     1       5.075   3.936  -0.552  0.00  0.00    +0.101 C 
ATOM      4  C   UNL     1       5.772   2.676   0.011  0.00  0.00    +0.120 C 
ATOM      5  C   UNL     1       4.678   1.631   0.050  0.00  0.00    +0.222 C 
ATOM      6  O   UNL     1       4.861   0.438   0.167  0.00  0.00    -0.275 OA
ENDROOT
BRANCH   3   7
ATOM      7  N   UNL     1       5.579   5.148   0.099  0.00  0.00    -0.294 N 
ATOM      8  C   UNL     1       6.605   5.829  -0.448  0.00  0.00    +0.303 C 
ATOM      9  O   UNL     1       7.052   5.493  -1.527  0.00  0.00    -0.253 OA
ATOM     10  N   UNL     1       7.137   6.883   0.203  0.00  0.00    -0.280 N 
ATOM     11  C   UNL     1       8.170   7.712  -0.433  0.00  0.00    +0.075 C 
ATOM     12  C   UNL     1       7.718   9.179  -0.386  0.00  0.00    +0.022 C 
ATOM     13  C   UNL     1       7.407   9.565   1.062  0.00  0.00    +0.004 C 
ATOM     14  C   UNL     1       6.266   8.692   1.590  0.00  0.00    +0.022 C 
ATOM     15  C   UNL     1       6.698   7.222   1.563  0.00  0.00    +0.075 C 
ATOM     16  C   UNL     1       7.852   7.006   2.543  0.00  0.00    +0.028 C 
ATOM     17  C   UNL     1       8.353   7.276  -1.888  0.00  0.00    +0.028 C 
ATOM     18  H   UNL     1       5.173   5.461   0.923  0.00  0.00    +0.151 HD
ENDBRANCH   3   7
BRANCH   1  22
ATOM     19  C   UNL     1      -0.153   0.161  -0.094  0.00  0.00    +0.121 A 
ATOM     20  C   UNL     1       1.043  -0.542  -0.091  0.00  0.00    +0.047 A 
ATOM     21  C   UNL     1       2.245   0.139  -0.082  0.00  0.00    +0.027 A 
ATOM     22  C   UNL     1       2.256   1.527  -0.075  0.00  0.00    +0.037 A 
ATOM     23  C   UNL     1       1.058   2.230  -0.077  0.00  0.00    +0.027 A 
ATOM     24  C   UNL     1      -0.142   1.548  -0.087  0.00  0.00    +0.047 A 
BRANCH  19  25
ATOM     25  O   UNL     1      -1.335  -0.509  -0.104  0.00  0.00    -0.492 OA
BRANCH  25  27
ATOM     26  C   UNL     1      -3.748  -0.645  -0.117  0.00  0.00    +0.048 C 
ATOM     27  C   UNL     1      -2.528   0.278  -0.106  0.00  0.00    +0.225 C 
ENDBRANCH  25  27
ENDBRANCH  19  25
ENDBRANCH   1  22
TORSDOF 4
