REMARK  Name = ZINC09576870
REMARK  5 active torsions:
REMARK  status: ('A' for Active; 'I' for Inactive)
REMARK    1  A    between atoms: C_1  and  O_2
REMARK    2  A    between atoms: O_2  and  C_3
REMARK    3  A    between atoms: C_8  and  C_9
REMARK    4  A    between atoms: N_21  and  C_22
REMARK    5  A    between atoms: C_22  and  C_23
REMARK                            x       y       z     vdW  Elec       q    Type
REMARK                         _______ _______ _______ _____ _____    ______ ____
ROOT
ATOM      1  C   UNL     1      -1.267  -0.765   0.010  0.00  0.00    +0.003 A 
ATOM      2  C   UNL     1      -2.159  -0.698  -1.067  0.00  0.00    +0.029 A 
ATOM      3  C   UNL     1      -3.331  -1.425  -1.018  0.00  0.00    +0.114 A 
ATOM      4  N   UNL     1      -3.636  -2.183   0.019  0.00  0.00    -0.237 NA
ATOM      5  C   UNL     1      -2.835  -2.288   1.066  0.00  0.00    +0.151 A 
ATOM      6  C   UNL     1      -1.617  -1.586   1.095  0.00  0.00    +0.090 A 
ATOM      7  C   UNL     1      -0.750  -1.732   2.272  0.00  0.00    +0.264 A 
ATOM      8  O   UNL     1       0.310  -1.140   2.343  0.00  0.00    -0.267 OA
ATOM      9  N   UNL     1      -1.161  -2.541   3.273  0.00  0.00    -0.274 N 
ATOM     10  H   UNL     1      -0.586  -2.654   4.082  0.00  0.00    +0.173 HD
ATOM     11  C   UNL     1      -2.331  -3.196   3.198  0.00  0.00    +0.331 A 
ATOM     12  O   UNL     1      -2.657  -3.912   4.125  0.00  0.00    -0.246 OA
ATOM     13  N   UNL     1      -3.163  -3.085   2.148  0.00  0.00    -0.273 N 
ENDROOT
BRANCH   1  19
ATOM     14  C   UNL     1       1.228  -0.680  -0.013  0.00  0.00    +0.128 A 
ATOM     15  C   UNL     1       2.411   0.042  -0.021  0.00  0.00    +0.046 A 
ATOM     16  C   UNL     1       2.380   1.423  -0.013  0.00  0.00    +0.004 A 
ATOM     17  C   UNL     1       1.169   2.095   0.002  0.00  0.00    +0.001 A 
ATOM     18  C   UNL     1      -0.017   1.391   0.010  0.00  0.00    +0.012 A 
ATOM     19  C   UNL     1       0.002  -0.004   0.002  0.00  0.00    +0.025 A 
BRANCH  14  21
ATOM     20  C   UNL     1       2.544  -2.658  -0.037  0.00  0.00    +0.277 C 
ATOM     21  O   UNL     1       1.257  -2.038  -0.021  0.00  0.00    -0.495 OA
ENDBRANCH  14  21
ENDBRANCH   1  19
BRANCH  13  22
ATOM     22  C   UNL     1      -4.423  -3.833   2.142  0.00  0.00    +0.163 C 
BRANCH  22  23
ATOM     23  C   UNL     1      -4.199  -5.190   1.527  0.00  0.00    -0.028 A 
ATOM     24  C   UNL     1      -4.361  -5.367   0.166  0.00  0.00    +0.005 A 
ATOM     25  C   UNL     1      -4.151  -6.612  -0.399  0.00  0.00    +0.000 A 
ATOM     26  C   UNL     1      -3.789  -7.681   0.399  0.00  0.00    +0.000 A 
ATOM     27  C   UNL     1      -3.632  -7.504   1.761  0.00  0.00    +0.000 A 
ATOM     28  C   UNL     1      -3.837  -6.259   2.325  0.00  0.00    +0.005 A 
ENDBRANCH  22  23
ENDBRANCH  13  22
TORSDOF 4
