REMARK  Name = ZINC06865866
REMARK  7 active torsions:
REMARK  status: ('A' for Active; 'I' for Inactive)
REMARK    1  A    between atoms: C_1  and  C_2
REMARK    2  A    between atoms: C_5  and  S_9
REMARK    3  A    between atoms: C_7  and  C_8
REMARK    4  A    between atoms: S_9  and  N_12
REMARK    5  A    between atoms: N_12  and  C_13
REMARK    6  A    between atoms: C_18  and  O_19
REMARK    7  A    between atoms: O_19  and  C_20
REMARK                            x       y       z     vdW  Elec       q    Type
REMARK                         _______ _______ _______ _____ _____    ______ ____
ROOT
ATOM      1  C   UNL     1      -1.201   7.318   0.009  0.00  0.00    +0.092 A 
ATOM      2  C   UNL     1      -2.374   8.050   0.116  0.00  0.00    +0.048 A 
ATOM      3  C   UNL     1      -3.593   7.399   0.174  0.00  0.00    +0.043 A 
ATOM      4  C   UNL     1      -3.645   6.017   0.119  0.00  0.00    +0.024 A 
ATOM      5  C   UNL     1      -2.479   5.282   0.006  0.00  0.00    +0.049 A 
ATOM      6  C   UNL     1      -1.255   5.927  -0.052  0.00  0.00    +0.151 A 
ATOM      7 CL   UNL     1      -5.060   8.316   0.316  0.00  0.00    -0.083 Cl
ENDROOT
BRANCH   1   8
ATOM      8  N   UNL     1       0.034   7.975  -0.042  0.00  0.00    -0.213 N 
ATOM      9  H   UNL     1       0.749   7.620  -0.593  0.00  0.00    +0.174 HD
BRANCH   8  10
ATOM     10  S   UNL     1       0.274   9.357   0.837  0.00  0.00    +0.072 S 
ATOM     11  O   UNL     1       1.639   9.713   0.670  0.00  0.00    -0.150 OA
ATOM     12  O   UNL     1      -0.789  10.240   0.504  0.00  0.00    -0.150 OA
BRANCH  10  17
ATOM     13  C   UNL     1      -0.436   7.918   6.653  0.00  0.00    +0.044 C 
ATOM     14  C   UNL     1      -0.259   8.278   5.201  0.00  0.00    -0.047 A 
ATOM     15  C   UNL     1      -1.345   8.697   4.455  0.00  0.00    +0.005 A 
ATOM     16  C   UNL     1      -1.181   9.031   3.123  0.00  0.00    +0.029 A 
ATOM     17  C   UNL     1       0.067   8.937   2.535  0.00  0.00    +0.109 A 
ATOM     18  C   UNL     1       1.152   8.519   3.281  0.00  0.00    +0.032 A 
ATOM     19  C   UNL     1       0.990   8.190   4.614  0.00  0.00    -0.046 A 
ATOM     20  C   UNL     1       2.174   7.734   5.428  0.00  0.00    +0.044 C 
ENDBRANCH  10  17
ENDBRANCH   8  10
ENDBRANCH   1   8
BRANCH   6  21
ATOM     21  O   UNL     1      -0.108   5.205  -0.162  0.00  0.00    -0.454 OA
BRANCH  21  22
ATOM     22  C   UNL     1       0.466   5.103  -1.390  0.00  0.00    +0.129 A 
ATOM     23  C   UNL     1       1.699   4.483  -1.531  0.00  0.00    +0.046 A 
ATOM     24  C   UNL     1       2.281   4.381  -2.780  0.00  0.00    +0.004 A 
ATOM     25  C   UNL     1       1.635   4.897  -3.888  0.00  0.00    +0.000 A 
ATOM     26  C   UNL     1       0.409   5.520  -3.750  0.00  0.00    +0.004 A 
ATOM     27  C   UNL     1      -0.180   5.619  -2.504  0.00  0.00    +0.046 A 
ENDBRANCH  21  22
ENDBRANCH   6  21
TORSDOF 5
