REMARK  Name = ZINC10000206
REMARK  9 active torsions:
REMARK  status: ('A' for Active; 'I' for Inactive)
REMARK    1  A    between atoms: C_1  and  C_2
REMARK    2  A    between atoms: C_2  and  C_3
REMARK    3  A    between atoms: C_2  and  C_4
REMARK    4  A    between atoms: C_4  and  C_6
REMARK    5  A    between atoms: C_4  and  N_20
REMARK    6  A    between atoms: N_8  and  N_9
REMARK    7  A    between atoms: C_10  and  C_11
REMARK    8  A    between atoms: C_14  and  N_17
REMARK    9  A    between atoms: C_21  and  C_23
REMARK                            x       y       z     vdW  Elec       q    Type
REMARK                         _______ _______ _______ _____ _____    ______ ____
ROOT
ATOM      1  C   UNL     1       1.220   2.053   0.127  0.00  0.00    +0.163 C 
ENDROOT
BRANCH   1   2
ATOM      2  C   UNL     1      -0.233   1.665   0.214  0.00  0.00    +0.253 C 
ATOM      3  O   UNL     1      -0.552   0.495   0.179  0.00  0.00    -0.272 OA
ATOM      4  N   UNL     1      -1.180   2.618   0.324  0.00  0.00    -0.205 N 
ATOM      5  H   UNL     1      -0.932   3.554   0.278  0.00  0.00    +0.177 HD
BRANCH   4   6
ATOM      6  N   UNL     1      -2.521   2.255   0.505  0.00  0.00    -0.188 NA
ATOM      7  C   UNL     1      -3.432   3.173   0.611  0.00  0.00    +0.138 C 
BRANCH   7   8
ATOM      8  C   UNL     1      -4.844   2.791   0.802  0.00  0.00    -0.005 A 
ATOM      9  C   UNL     1      -5.205   1.443   0.862  0.00  0.00    +0.012 A 
ATOM     10  C   UNL     1      -6.527   1.094   1.045  0.00  0.00    +0.033 A 
ATOM     11  C   UNL     1      -7.496   2.075   1.158  0.00  0.00    +0.126 A 
ATOM     12  C   UNL     1      -7.146   3.412   1.094  0.00  0.00    +0.033 A 
ATOM     13  C   UNL     1      -5.828   3.776   0.916  0.00  0.00    +0.012 A 
BRANCH  11  14
ATOM     14  N   UNL     1      -8.913   1.692   1.349  0.00  0.00    +0.056 N 
ATOM     15  O   UNL     1      -9.768   2.554   1.449  0.00  0.00    -0.126 OA
ATOM     16  O   UNL     1      -9.223   0.516   1.406  0.00  0.00    -0.126 OA
ENDBRANCH  11  14
ENDBRANCH   7   8
ENDBRANCH   4   6
ENDBRANCH   1   2
BRANCH   1  17
ATOM     17  N   UNL     1       2.055   0.892   0.445  0.00  0.00    -0.300 N 
ATOM     18  C   UNL     1       3.303   1.070   0.923  0.00  0.00    +0.245 C 
ATOM     19  O   UNL     1       3.736   2.194   1.089  0.00  0.00    -0.270 OA
ATOM     20  H   UNL     1       1.710  -0.005   0.313  0.00  0.00    +0.150 HD
BRANCH  18  21
ATOM     21  C   UNL     1       4.146  -0.101   1.244  0.00  0.00    +0.038 A 
ATOM     22  C   UNL     1       3.650  -1.393   1.059  0.00  0.00    +0.014 A 
ATOM     23  C   UNL     1       4.442  -2.482   1.355  0.00  0.00    +0.022 A 
ATOM     24  C   UNL     1       5.724  -2.296   1.846  0.00  0.00    +0.059 A 
ATOM     25  C   UNL     1       6.221  -1.017   2.037  0.00  0.00    +0.060 A 
ATOM     26  C   UNL     1       5.439   0.081   1.738  0.00  0.00    +0.034 A 
ATOM     27 CL   UNL     1       7.829  -0.794   2.651  0.00  0.00    -0.082 Cl
ATOM     28 CL   UNL     1       6.713  -3.673   2.224  0.00  0.00    -0.082 Cl
ENDBRANCH  18  21
ENDBRANCH   1  17
BRANCH   1  30
ATOM     29  C   UNL     1       2.978   3.043  -1.347  0.00  0.00    +0.009 C 
ATOM     30  C   UNL     1       1.536   2.535  -1.290  0.00  0.00    +0.012 C 
ATOM     31  C   UNL     1       1.365   1.374  -2.273  0.00  0.00    +0.009 C 
ENDBRANCH   1  30
TORSDOF 7
