REMARK  Name = ZINC40173184
REMARK  12 active torsions:
REMARK  status: ('A' for Active; 'I' for Inactive)
REMARK    1  A    between atoms: C_1  and  C_2
REMARK    2  A    between atoms: C_2  and  C_3
REMARK    3  A    between atoms: C_3  and  C_5
REMARK    4  A    between atoms: C_3  and  N_20
REMARK    5  A    between atoms: N_7  and  C_8
REMARK    6  A    between atoms: C_11  and  S_14
REMARK    7  A    between atoms: S_14  and  N_17
REMARK    8  A    between atoms: N_17  and  C_18
REMARK    9  A    between atoms: N_17  and  C_19
REMARK   10  A    between atoms: C_24  and  S_25
REMARK   11  A    between atoms: S_25  and  C_26
REMARK   12  A    between atoms: C_26  and  C_27
REMARK                            x       y       z     vdW  Elec       q    Type
REMARK                         _______ _______ _______ _____ _____    ______ ____
ROOT
ATOM      1  C   UNL     1      -1.296  -0.551  -0.075  0.00  0.00    +0.178 C 
ENDROOT
BRANCH   1   2
ATOM      2  N   UNL     1      -1.789  -0.186  -1.406  0.00  0.00    -0.279 N 
ATOM      3  C   UNL     1      -1.218  -0.534  -2.597  0.00  0.00    +0.216 A 
ATOM      4  N   UNL     1      -1.944  -0.022  -3.560  0.00  0.00    -0.113 NA
ATOM      5  N   UNL     1      -3.011   0.673  -2.975  0.00  0.00    -0.121 NA
ATOM      6  C   UNL     1      -2.903   0.559  -1.673  0.00  0.00    +0.194 A 
ATOM      7  N   UNL     1      -0.068  -1.297  -2.759  0.00  0.00    -0.328 N 
ATOM      8  H   UNL     1       0.404  -1.633  -1.982  0.00  0.00    +0.145 HD
ATOM      9  H   UNL     1       0.262  -1.493  -3.650  0.00  0.00    +0.145 HD
BRANCH   6  10
ATOM     10  S   UNL     1      -3.999   1.249  -0.479  0.00  0.00    -0.081 S 
BRANCH  10  11
ATOM     11  C   UNL     1      -5.250   2.106  -1.474  0.00  0.00    +0.114 C 
BRANCH  11  12
ATOM     12  C   UNL     1      -6.263   2.749  -0.563  0.00  0.00    -0.019 A 
ATOM     13  C   UNL     1      -7.386   2.044  -0.170  0.00  0.00    +0.006 A 
ATOM     14  C   UNL     1      -8.315   2.633   0.666  0.00  0.00    +0.000 A 
ATOM     15  C   UNL     1      -8.123   3.929   1.110  0.00  0.00    +0.001 A 
ATOM     16  C   UNL     1      -7.002   4.635   0.718  0.00  0.00    +0.020 A 
ATOM     17  C   UNL     1      -6.068   4.043  -0.115  0.00  0.00    +0.045 A 
ATOM     18 CL   UNL     1      -4.656   4.927  -0.602  0.00  0.00    -0.083 Cl
ENDBRANCH  11  12
ENDBRANCH  10  11
ENDBRANCH   6  10
ENDBRANCH   1   2
BRANCH   1  19
ATOM     19  C   UNL     1      -1.264  -2.053   0.053  0.00  0.00    +0.240 C 
ATOM     20  O   UNL     1      -1.617  -2.748  -0.876  0.00  0.00    -0.273 OA
ATOM     21  N   UNL     1      -0.842  -2.622   1.199  0.00  0.00    -0.284 N 
ATOM     22  H   UNL     1      -0.488  -2.070   1.914  0.00  0.00    +0.155 HD
BRANCH  21  23
ATOM     23  C   UNL     1      -0.915  -4.010   1.359  0.00  0.00    +0.034 A 
ATOM     24  C   UNL     1       0.044  -4.676   2.111  0.00  0.00    +0.025 A 
ATOM     25  C   UNL     1      -0.031  -6.046   2.267  0.00  0.00    +0.030 A 
ATOM     26  C   UNL     1      -1.060  -6.755   1.675  0.00  0.00    +0.106 A 
ATOM     27  C   UNL     1      -2.017  -6.096   0.926  0.00  0.00    +0.030 A 
ATOM     28  C   UNL     1      -1.951  -4.725   0.771  0.00  0.00    +0.025 A 
BRANCH  26  29
ATOM     29  S   UNL     1      -1.152  -8.503   1.877  0.00  0.00    +0.060 S 
ATOM     30  O   UNL     1      -1.898  -9.000   0.774  0.00  0.00    -0.153 OA
ATOM     31  O   UNL     1       0.166  -8.949   2.167  0.00  0.00    -0.153 OA
BRANCH  29  32
ATOM     32  N   UNL     1      -2.059  -8.793   3.231  0.00  0.00    -0.183 NA
ATOM     33  C   UNL     1      -3.512  -8.948   3.121  0.00  0.00    +0.131 C 
ATOM     34  C   UNL     1      -1.409  -8.895   4.540  0.00  0.00    +0.131 C 
ENDBRANCH  29  32
ENDBRANCH  26  29
ENDBRANCH  21  23
ENDBRANCH   1  19
BRANCH   1  36
ATOM     35  C   UNL     1       0.062   1.537   0.112  0.00  0.00    +0.006 C 
ATOM     36  C   UNL     1       0.115   0.008   0.118  0.00  0.00    +0.031 C 
ENDBRANCH   1  36
TORSDOF 9
