REMARK  Name = ZINC63140031
REMARK  7 active torsions:
REMARK  status: ('A' for Active; 'I' for Inactive)
REMARK    1  A    between atoms: C_1  and  C_2
REMARK    2  A    between atoms: C_5  and  C_8
REMARK    3  A    between atoms: C_8  and  N_9
REMARK    4  A    between atoms: C_29  and  C_31
REMARK    5  A    between atoms: C_34  and  C_37
REMARK    6  A    between atoms: C_37  and  C_38
REMARK    7  A    between atoms: C_37  and  C_39
REMARK                            x       y       z     vdW  Elec       q    Type
REMARK                         _______ _______ _______ _____ _____    ______ ____
ROOT
ATOM      1  N   UNL     1       1.437  -4.774  -0.032  0.00  0.00    -0.287 N 
ATOM      2  C   UNL     1       2.083  -4.980  -1.317  0.00  0.00    +0.204 C 
ATOM      3  C   UNL     1       3.488  -5.461  -1.172  0.00  0.00    +0.234 C 
ATOM      4  O   UNL     1       4.120  -5.668  -2.186  0.00  0.00    -0.274 OA
ATOM      5  N   UNL     1       4.101  -5.680  -0.003  0.00  0.00    -0.279 N 
ATOM      6  C   UNL     1       3.450  -5.450   1.283  0.00  0.00    +0.167 C 
ATOM      7  C   UNL     1       2.042  -4.976   1.138  0.00  0.00    +0.237 C 
ATOM      8  O   UNL     1       1.407  -4.764   2.149  0.00  0.00    -0.274 OA
ATOM      9  C   UNL     1       4.256  -4.426   2.103  0.00  0.00    +0.065 C 
ATOM     10  C   UNL     1       5.703  -4.841   2.007  0.00  0.00    -0.034 C 
ATOM     11  C   UNL     1       6.625  -5.042   2.940  0.00  0.00    -0.001 A 
ATOM     12  C   UNL     1       6.609  -4.828   4.396  0.00  0.00    +0.010 A 
ATOM     13  C   UNL     1       7.743  -5.167   5.064  0.00  0.00    +0.001 A 
ATOM     14  C   UNL     1       8.877  -5.692   4.438  0.00  0.00    +0.002 A 
ATOM     15  C   UNL     1       8.983  -5.913   3.103  0.00  0.00    +0.026 A 
ATOM     16  C   UNL     1       7.857  -5.587   2.293  0.00  0.00    +0.043 A 
ATOM     17  N   UNL     1       7.694  -5.673   1.005  0.00  0.00    -0.375 N 
ATOM     18  C   UNL     1       6.373  -5.140   0.671  0.00  0.00    +0.131 C 
ATOM     19  C   UNL     1       5.495  -6.177  -0.035  0.00  0.00    +0.133 C 
ATOM     20  H   UNL     1       8.339  -6.028   0.374  0.00  0.00    +0.160 HD
ENDROOT
BRANCH  19  21
ATOM     21  C   UNL     1       5.946  -6.341  -1.464  0.00  0.00    -0.025 A 
ATOM     22  C   UNL     1       6.473  -5.263  -2.150  0.00  0.00    +0.006 A 
ATOM     23  C   UNL     1       6.886  -5.413  -3.461  0.00  0.00    +0.004 A 
ATOM     24  C   UNL     1       6.774  -6.641  -4.085  0.00  0.00    -0.045 A 
ATOM     25  C   UNL     1       6.248  -7.720  -3.398  0.00  0.00    +0.004 A 
ATOM     26  C   UNL     1       5.838  -7.570  -2.086  0.00  0.00    +0.006 A 
BRANCH  24  27
ATOM     27  C   UNL     1       7.224  -6.805  -5.513  0.00  0.00    +0.013 C 
ATOM     28  C   UNL     1       8.328  -7.861  -5.582  0.00  0.00    +0.012 C 
ATOM     29  C   UNL     1       6.039  -7.249  -6.374  0.00  0.00    +0.012 C 
ENDBRANCH  24  27
ENDBRANCH  19  21
BRANCH   1  30
ATOM     30  C   UNL     1       0.046  -4.313  -0.021  0.00  0.00    +0.143 C 
BRANCH  30  35
ATOM     31  C   UNL     1      -0.071   1.465  -0.002  0.00  0.00    +0.044 C 
ATOM     32  C   UNL     1      -0.040  -0.042  -0.007  0.00  0.00    -0.050 A 
ATOM     33  C   UNL     1      -0.033  -0.729  -1.206  0.00  0.00    +0.003 A 
ATOM     34  C   UNL     1      -0.005  -2.111  -1.211  0.00  0.00    +0.005 A 
ATOM     35  C   UNL     1       0.017  -2.806  -0.016  0.00  0.00    -0.030 A 
ATOM     36  C   UNL     1       0.010  -2.119   1.183  0.00  0.00    +0.005 A 
ATOM     37  C   UNL     1      -0.014  -0.737   1.188  0.00  0.00    +0.003 A 
ENDBRANCH  30  35
ENDBRANCH   1  30
TORSDOF 4
