REMARK  Name = ZINC52627088
REMARK  5 active torsions:
REMARK  status: ('A' for Active; 'I' for Inactive)
REMARK    1  A    between atoms: C_1  and  C_2
REMARK    2  A    between atoms: C_10  and  O_36
REMARK    3  A    between atoms: C_21  and  C_26
REMARK    4  A    between atoms: N_28  and  C_29
REMARK    5  A    between atoms: C_29  and  C_30
REMARK                            x       y       z     vdW  Elec       q    Type
REMARK                         _______ _______ _______ _____ _____    ______ ____
ROOT
ATOM      1  C   UNL     1      -0.019   1.526   0.010  0.00  0.00    +0.014 C 
ATOM      2  C   UNL     1       0.002  -0.004   0.002  0.00  0.00    -0.001 C 
ATOM      3  C   UNL     1      -1.416  -0.405   0.245  0.00  0.00    +0.010 C 
ATOM      4  C   UNL     1      -1.926   0.409   1.454  0.00  0.00    +0.009 C 
ATOM      5  C   UNL     1      -1.012   0.222   2.657  0.00  0.00    +0.023 C 
ATOM      6  C   UNL     1      -1.490   1.000   3.848  0.00  0.00    -0.041 A 
ATOM      7  C   UNL     1      -2.859   1.150   4.027  0.00  0.00    +0.008 A 
ATOM      8  C   UNL     1      -3.353   1.846   5.109  0.00  0.00    +0.046 A 
ATOM      9  C   UNL     1      -2.475   2.400   6.029  0.00  0.00    +0.117 A 
ATOM     10  C   UNL     1      -1.111   2.253   5.848  0.00  0.00    +0.049 A 
ATOM     11  C   UNL     1      -0.613   1.557   4.755  0.00  0.00    -0.040 A 
ATOM     12  C   UNL     1       0.883   1.457   4.612  0.00  0.00    +0.036 C 
ATOM     13  C   UNL     1       1.270   0.372   3.608  0.00  0.00    +0.009 C 
ATOM     14  C   UNL     1       0.442   0.600   2.343  0.00  0.00    +0.001 C 
ATOM     15  C   UNL     1       0.884  -0.354   1.228  0.00  0.00    +0.005 C 
ATOM     16  C   UNL     1       2.299  -0.156   0.651  0.00  0.00    +0.039 C 
ATOM     17  C   UNL     1       2.149  -0.872  -0.681  0.00  0.00    -0.011 C 
ATOM     18  C   UNL     1       2.491  -1.709  -1.652  0.00  0.00    +0.149 C 
ATOM     19  N   UNL     1       1.361  -2.148  -2.288  0.00  0.00    -0.149 NA
ATOM     20  N   UNL     1       0.356  -1.453  -2.055  0.00  0.00    -0.179 NA
ATOM     21  C   UNL     1       0.786  -0.360  -1.205  0.00  0.00    +0.162 C 
ENDROOT
BRANCH  18  22
ATOM     22  C   UNL     1       3.873  -2.105  -1.993  0.00  0.00    +0.264 C 
ATOM     23  O   UNL     1       4.808  -1.653  -1.361  0.00  0.00    -0.268 OA
ATOM     24  N   UNL     1       4.097  -2.967  -3.005  0.00  0.00    -0.306 N 
ATOM     25  H   UNL     1       3.351  -3.328  -3.509  0.00  0.00    +0.149 HD
BRANCH  24  26
ATOM     26  C   UNL     1       5.468  -3.359  -3.343  0.00  0.00    +0.141 C 
BRANCH  26  27
ATOM     27  C   UNL     1       5.443  -4.323  -4.501  0.00  0.00    -0.012 A 
ATOM     28  C   UNL     1       5.352  -5.689  -4.276  0.00  0.00    +0.008 A 
ATOM     29  C   UNL     1       5.333  -6.538  -5.371  0.00  0.00    +0.020 A 
ATOM     30  C   UNL     1       5.404  -5.999  -6.643  0.00  0.00    +0.111 A 
ATOM     31  N   UNL     1       5.490  -4.696  -6.819  0.00  0.00    -0.263 NA
ATOM     32  C   UNL     1       5.505  -3.857  -5.801  0.00  0.00    +0.115 A 
ENDBRANCH  26  27
ENDBRANCH  24  26
ENDBRANCH  18  22
BRANCH   9  33
ATOM     33  O   UNL     1      -2.952   3.083   7.103  0.00  0.00    -0.507 OA
ATOM     34  H   UNL     1      -3.108   2.532   7.882  0.00  0.00    +0.292 HD
ENDBRANCH   9  33
TORSDOF 4
