REMARK  Name = ZINC01244345
REMARK  13 active torsions:
REMARK  status: ('A' for Active; 'I' for Inactive)
REMARK    1  A    between atoms: C_1  and  C_2
REMARK    2  A    between atoms: C_2  and  C_3
REMARK    3  A    between atoms: C_2  and  C_4
REMARK    4  A    between atoms: C_7  and  N_10
REMARK    5  A    between atoms: C_11  and  C_13
REMARK    6  A    between atoms: C_13  and  S_14
REMARK    7  A    between atoms: S_14  and  C_15
REMARK    8  A    between atoms: C_16  and  C_37
REMARK    9  A    between atoms: C_17  and  C_29
REMARK   10  A    between atoms: C_22  and  C_26
REMARK   11  A    between atoms: C_22  and  C_27
REMARK   12  A    between atoms: C_32  and  O_35
REMARK   13  A    between atoms: O_35  and  C_36
REMARK                            x       y       z     vdW  Elec       q    Type
REMARK                         _______ _______ _______ _____ _____    ______ ____
ROOT
ATOM      1  C   UNL     1      -9.265  -4.419  -2.483  0.00  0.00    +0.112 C 
ATOM      2  C   UNL     1      -9.839  -5.138  -3.518  0.00  0.00    +0.073 C 
ATOM      3  C   UNL     1     -11.312  -5.482  -3.390  0.00  0.00    +0.097 C 
ATOM      4  C   UNL     1     -11.999  -4.995  -2.129  0.00  0.00    +0.029 C 
ATOM      5  C   UNL     1     -13.301  -5.256  -1.930  0.00  0.00    +0.162 C 
ATOM      6  C   UNL     1     -14.013  -4.785  -0.689  0.00  0.00    +0.086 C 
ATOM      7  C   UNL     1     -13.013  -4.706   0.468  0.00  0.00    -0.023 C 
ATOM      8  C   UNL     1     -11.871  -3.767   0.072  0.00  0.00    +0.062 C 
ATOM      9  C   UNL     1     -11.229  -4.274  -1.198  0.00  0.00    +0.050 C 
ATOM     10  N   UNL     1      -9.958  -4.038  -1.408  0.00  0.00    -0.244 NA
ATOM     11  C   UNL     1     -12.453  -6.100   0.758  0.00  0.00    +0.011 C 
ATOM     12  C   UNL     1     -13.714  -4.163   1.715  0.00  0.00    +0.011 C 
ATOM     13  O   UNL     1     -13.984  -5.953  -2.859  0.00  0.00    -0.292 OA
ENDROOT
BRANCH   3  14
ATOM     14  C   UNL     1     -12.037  -4.894  -4.574  0.00  0.00    -0.034 A 
ATOM     15  C   UNL     1     -12.006  -3.530  -4.793  0.00  0.00    +0.008 A 
ATOM     16  C   UNL     1     -12.670  -2.988  -5.877  0.00  0.00    +0.046 A 
ATOM     17  C   UNL     1     -13.368  -3.815  -6.745  0.00  0.00    +0.120 A 
ATOM     18  C   UNL     1     -13.398  -5.184  -6.523  0.00  0.00    +0.046 A 
ATOM     19  C   UNL     1     -12.728  -5.721  -5.441  0.00  0.00    +0.008 A 
BRANCH  17  20
ATOM     20  O   UNL     1     -14.022  -3.284  -7.812  0.00  0.00    -0.495 OA
ATOM     21  C   UNL     1     -14.720  -4.196  -8.663  0.00  0.00    +0.277 C 
ENDBRANCH  17  20
ENDBRANCH   3  14
BRANCH   2  22
ATOM     22  C   UNL     1      -9.075  -5.541  -4.660  0.00  0.00    +0.098 C 
ATOM     23  N   UNL     1      -8.470  -5.860  -5.566  0.00  0.00    -0.191 NA
ENDBRANCH   2  22
BRANCH   1  24
ATOM     24  S   UNL     1      -7.557  -3.997  -2.587  0.00  0.00    -0.096 S 
BRANCH  24  25
ATOM     25  C   UNL     1      -7.236  -3.087  -1.052  0.00  0.00    +0.172 C 
BRANCH  25  27
ATOM     26  N   UNL     1      -5.320  -1.968   0.042  0.00  0.00    -0.285 N 
ATOM     27  C   UNL     1      -5.790  -2.663  -1.013  0.00  0.00    +0.227 C 
ATOM     28  O   UNL     1      -5.050  -2.946  -1.931  0.00  0.00    -0.275 OA
ATOM     29  H   UNL     1      -5.891  -1.807   0.810  0.00  0.00    +0.155 HD
BRANCH  26  33
ATOM     30  C   UNL     1      -1.418  -0.509   0.005  0.00  0.00    -0.045 A 
ATOM     31  C   UNL     1      -2.137  -0.586  -1.174  0.00  0.00    +0.006 A 
ATOM     32  C   UNL     1      -3.431  -1.069  -1.165  0.00  0.00    +0.023 A 
ATOM     33  C   UNL     1      -4.010  -1.478   0.030  0.00  0.00    +0.033 A 
ATOM     34  C   UNL     1      -3.284  -1.400   1.212  0.00  0.00    +0.023 A 
ATOM     35  C   UNL     1      -1.989  -0.920   1.195  0.00  0.00    +0.006 A 
BRANCH  30  37
ATOM     36  C   UNL     1       0.857  -0.856  -0.919  0.00  0.00    +0.012 C 
ATOM     37  C   UNL     1      -0.007   0.019  -0.009  0.00  0.00    +0.013 C 
ATOM     38  C   UNL     1      -0.005   1.457  -0.532  0.00  0.00    +0.012 C 
ENDBRANCH  30  37
ENDBRANCH  26  33
ENDBRANCH  25  27
ENDBRANCH  24  25
ENDBRANCH   1  24
TORSDOF 8
