REMARK  Name = ZINC23778300
REMARK  11 active torsions:
REMARK  status: ('A' for Active; 'I' for Inactive)
REMARK    1  A    between atoms: C_1  and  C_2
REMARK    2  A    between atoms: C_2  and  C_3
REMARK    3  A    between atoms: C_3  and  N_4
REMARK    4  A    between atoms: N_4  and  C_5
REMARK    5  A    between atoms: N_4  and  C_16
REMARK    6  A    between atoms: C_5  and  C_6
REMARK    7  A    between atoms: C_9  and  C_11
REMARK    8  A    between atoms: C_16  and  C_17
REMARK    9  A    between atoms: N_19  and  C_20
REMARK   10  A    between atoms: C_21  and  C_31
REMARK   11  A    between atoms: C_26  and  C_30
REMARK                            x       y       z     vdW  Elec       q    Type
REMARK                         _______ _______ _______ _____ _____    ______ ____
ROOT
ATOM      1  C   UNL     1       3.066  -7.398  -3.470  0.00  0.00    +0.020 C 
ENDROOT
BRANCH   1   2
ATOM      2  C   UNL     1       2.947  -5.943  -3.096  0.00  0.00    +0.201 C 
ATOM      3  O   UNL     1       2.792  -5.105  -3.959  0.00  0.00    -0.278 OA
ATOM      4  N   UNL     1       3.015  -5.572  -1.802  0.00  0.00    -0.281 N 
ATOM      5  H   UNL     1       3.156  -6.332  -1.019  0.00  0.00    +0.155 HD
BRANCH   4   6
ATOM      6  C   UNL     1       2.906  -4.232  -1.457  0.00  0.00    +0.090 A 
ATOM      7  C   UNL     1       2.950  -3.661  -0.194  0.00  0.00    +0.084 A 
ATOM      8  C   UNL     1       2.811  -2.218  -0.104  0.00  0.00    -0.018 A 
ATOM      9  C   UNL     1       2.650  -1.581  -1.284  0.00  0.00    -0.004 A 
ATOM     10  S   UNL     1       2.683  -2.867  -2.500  0.00  0.00    -0.077 S 
ATOM     11  C   UNL     1       2.481  -0.108  -1.500  0.00  0.00    +0.046 C 
ATOM     12  C   UNL     1       2.142   0.542  -0.151  0.00  0.00    -0.009 C 
ATOM     13  C   UNL     1       3.124   0.028   0.905  0.00  0.00    +0.008 C 
ATOM     14  C   UNL     1       2.839  -1.444   1.209  0.00  0.00    +0.037 C 
ATOM     15  C   UNL     1       2.266   2.063  -0.269  0.00  0.00    +0.008 C 
BRANCH   7  16
ATOM     16  C   UNL     1       3.126  -4.465   0.978  0.00  0.00    +0.102 C 
ATOM     17  N   UNL     1       3.265  -5.102   1.908  0.00  0.00    -0.191 NA
ENDBRANCH   7  16
ENDBRANCH   4   6
ENDBRANCH   1   2
BRANCH   1  18
ATOM     18  N   UNL     1       2.962  -7.538  -4.929  0.00  0.00    +0.391 N 
ATOM     19  H   UNL     1       3.686  -6.848  -5.387  0.00  0.00    -0.080 HD
BRANCH  18  20
ATOM     20  C   UNL     1       1.621  -7.164  -5.400  0.00  0.00    -0.078 C 
BRANCH  20  22
ATOM     21  C   UNL     1      -0.818  -7.679  -5.232  0.00  0.00    +0.002 C 
ATOM     22  C   UNL     1       0.579  -8.072  -4.745  0.00  0.00    -0.022 C 
ENDBRANCH  20  22
ENDBRANCH  18  20
BRANCH  18  23
ATOM     23  C   UNL     1       3.306  -8.902  -5.353  0.00  0.00    +0.021 C 
BRANCH  23  24
ATOM     24  C   UNL     1       3.563  -8.917  -6.837  0.00  0.00    +0.202 A 
ATOM     25  N   UNL     1       4.709  -8.706  -7.421  0.00  0.00    -0.114 NA
ATOM     26  N   UNL     1       4.566  -8.798  -8.697  0.00  0.00    -0.107 NA
ATOM     27  C   UNL     1       3.309  -9.064  -8.974  0.00  0.00    +0.255 A 
ATOM     28  O   UNL     1       2.650  -9.145  -7.799  0.00  0.00    -0.422 OA
BRANCH  27  29
ATOM     29  C   UNL     1       2.729  -9.242 -10.313  0.00  0.00    +0.076 A 
ATOM     30  C   UNL     1       3.346  -9.167 -11.548  0.00  0.00    +0.021 A 
ATOM     31  C   UNL     1       2.586  -9.378 -12.674  0.00  0.00    +0.008 A 
ATOM     32  C   UNL     1       1.259  -9.640 -12.541  0.00  0.00    +0.046 A 
ATOM     33  S   UNL     1       1.041  -9.604 -10.770  0.00  0.00    -0.092 S 
ENDBRANCH  27  29
ENDBRANCH  23  24
ENDBRANCH  18  23
ENDBRANCH   1  18
TORSDOF 9
