REMARK  Name = ZINC14921554
REMARK  7 active torsions:
REMARK  status: ('A' for Active; 'I' for Inactive)
REMARK    1  A    between atoms: C_1  and  C_2
REMARK    2  A    between atoms: N_13  and  N_14
REMARK    3  A    between atoms: C_15  and  C_17
REMARK    4  A    between atoms: C_17  and  O_18
REMARK    5  A    between atoms: O_18  and  C_19
REMARK    6  A    between atoms: C_22  and  O_26
REMARK    7  A    between atoms: O_26  and  C_27
REMARK                            x       y       z     vdW  Elec       q    Type
REMARK                         _______ _______ _______ _____ _____    ______ ____
ROOT
ATOM      1  N   UNL     1       1.179   5.851   0.021  0.00  0.00    -0.203 N 
ATOM      2  C   UNL     1       2.028   6.898   0.018  0.00  0.00    +0.270 C 
ATOM      3  O   UNL     1       3.225   6.707   0.005  0.00  0.00    -0.270 OA
ATOM      4  H   UNL     1       0.221   6.003   0.031  0.00  0.00    +0.177 HD
ENDROOT
BRANCH   1  17
ATOM      5  C   UNL     1       3.710  -0.741  -0.037  0.00  0.00    +0.044 C 
ATOM      6  C   UNL     1       2.404   0.013  -0.021  0.00  0.00    -0.049 A 
ATOM      7  C   UNL     1       2.405   1.393  -0.014  0.00  0.00    +0.015 A 
ATOM      8  C   UNL     1       1.198   2.084   0.002  0.00  0.00    +0.030 A 
ATOM      9  C   UNL     1      -0.017   1.387   0.010  0.00  0.00    +0.057 A 
ATOM     10  C   UNL     1       0.002  -0.004   0.002  0.00  0.00    +0.040 A 
ATOM     11  C   UNL     1       1.206  -0.681  -0.013  0.00  0.00    +0.020 A 
ATOM     12 BR   UNL     1      -1.623  -0.970   0.012  0.00  0.00    -0.048 Br
ATOM     13  N   UNL     1      -1.069   2.297   0.019  0.00  0.00    -0.279 N 
ATOM     14  C   UNL     1      -0.622   3.564   0.026  0.00  0.00    +0.269 C 
ATOM     15  O   UNL     1      -1.312   4.566   0.038  0.00  0.00    -0.268 OA
ATOM     16  C   UNL     1       0.854   3.525   0.012  0.00  0.00    +0.153 C 
ATOM     17  N   UNL     1       1.680   4.543   0.009  0.00  0.00    -0.174 NA
ATOM     18  H   UNL     1      -2.006   2.048   0.022  0.00  0.00    +0.155 HD
ENDBRANCH   1  17
BRANCH   2  19
ATOM     19  C   UNL     1       1.489   8.305   0.030  0.00  0.00    +0.326 C 
BRANCH  19  20
ATOM     20  O   UNL     1       2.577   9.232   0.024  0.00  0.00    -0.482 OA
BRANCH  20  21
ATOM     21  C   UNL     1       2.261  10.554   0.034  0.00  0.00    +0.135 A 
ATOM     22  C   UNL     1       0.932  10.950   0.043  0.00  0.00    +0.050 A 
ATOM     23  C   UNL     1       0.612  12.294   0.058  0.00  0.00    +0.049 A 
ATOM     24  C   UNL     1       1.619  13.248   0.053  0.00  0.00    +0.121 A 
ATOM     25  C   UNL     1       2.948  12.853   0.038  0.00  0.00    +0.064 A 
ATOM     26  C   UNL     1       3.269  11.508   0.029  0.00  0.00    +0.063 A 
ATOM     27 BR   UNL     1       5.082  10.969   0.008  0.00  0.00    -0.046 Br
BRANCH  24  28
ATOM     28  O   UNL     1       1.302  14.570   0.063  0.00  0.00    -0.495 OA
ATOM     29  C   UNL     1      -0.087  14.905   0.078  0.00  0.00    +0.277 C 
ENDBRANCH  24  28
ENDBRANCH  20  21
ENDBRANCH  19  20
ENDBRANCH   2  19
TORSDOF 5
