REMARK  Name = ZINC39992297
REMARK  8 active torsions:
REMARK  status: ('A' for Active; 'I' for Inactive)
REMARK    1  A    between atoms: C_1  and  C_2
REMARK    2  A    between atoms: C_2  and  C_3
REMARK    3  A    between atoms: C_3  and  N_4
REMARK    4  A    between atoms: C_5  and  C_7
REMARK    5  A    between atoms: C_11  and  N_12
REMARK    6  A    between atoms: C_13  and  C_15
REMARK    7  A    between atoms: C_15  and  C_25
REMARK    8  A    between atoms: C_16  and  C_17
REMARK                            x       y       z     vdW  Elec       q    Type
REMARK                         _______ _______ _______ _____ _____    ______ ____
ROOT
ATOM      1  C   UNL     1       1.056  -4.049  -1.690  0.00  0.00    +0.069 A 
ATOM      2  C   UNL     1      -0.137  -4.799  -2.041  0.00  0.00    -0.023 A 
ATOM      3  C   UNL     1      -0.044  -6.126  -1.805  0.00  0.00    -0.004 A 
ATOM      4  S   UNL     1       1.579  -6.352  -1.141  0.00  0.00    -0.077 S 
ATOM      5  C   UNL     1       2.126  -4.764  -1.173  0.00  0.00    +0.085 A 
ATOM      6  C   UNL     1      -1.098  -7.160  -2.058  0.00  0.00    +0.043 C 
ATOM      7  C   UNL     1      -2.438  -6.441  -2.273  0.00  0.00    +0.005 C 
ATOM      8  C   UNL     1      -2.232  -5.298  -3.271  0.00  0.00    +0.005 C 
ATOM      9  C   UNL     1      -1.401  -4.186  -2.625  0.00  0.00    +0.037 C 
ENDROOT
BRANCH   1  11
ATOM     10  N   UNL     1       0.748  -1.768  -0.888  0.00  0.00    -0.311 N 
ATOM     11  C   UNL     1       1.129  -2.597  -1.880  0.00  0.00    +0.247 C 
ATOM     12  O   UNL     1       1.533  -2.141  -2.933  0.00  0.00    -0.270 OA
ATOM     13  H   UNL     1       0.426  -2.131  -0.048  0.00  0.00    +0.149 HD
BRANCH  10  14
ATOM     14  C   UNL     1       0.821  -0.317  -1.078  0.00  0.00    +0.104 C 
BRANCH  14  16
ATOM     15  C   UNL     1       0.410   1.904  -0.009  0.00  0.00    +0.005 C 
ATOM     16  C   UNL     1       0.335   0.388   0.190  0.00  0.00    +0.015 C 
ENDBRANCH  14  16
ENDBRANCH  10  14
ENDBRANCH   1  11
BRANCH   5  17
ATOM     17  N   UNL     1       3.360  -4.280  -0.772  0.00  0.00    -0.275 N 
ATOM     18  C   UNL     1       4.291  -5.126  -0.289  0.00  0.00    +0.259 C 
ATOM     19  O   UNL     1       4.048  -6.315  -0.204  0.00  0.00    -0.269 OA
ATOM     20  H   UNL     1       3.554  -3.332  -0.840  0.00  0.00    +0.156 HD
BRANCH  18  21
ATOM     21  C   UNL     1       5.603  -4.612   0.137  0.00  0.00    +0.114 C 
ATOM     22  C   UNL     1       6.553  -5.476   0.630  0.00  0.00    +0.032 C 
BRANCH  22  23
ATOM     23  C   UNL     1       7.793  -4.948   1.210  0.00  0.00    -0.022 A 
ATOM     24  C   UNL     1       7.782  -3.734   1.910  0.00  0.00    +0.009 A 
ATOM     25  C   UNL     1       8.951  -3.245   2.452  0.00  0.00    +0.022 A 
ATOM     26  C   UNL     1      10.135  -3.950   2.306  0.00  0.00    +0.059 A 
ATOM     27  C   UNL     1      10.155  -5.152   1.615  0.00  0.00    +0.060 A 
ATOM     28  C   UNL     1       8.993  -5.658   1.071  0.00  0.00    +0.029 A 
ATOM     29 CL   UNL     1      11.645  -6.026   1.439  0.00  0.00    -0.082 Cl
ATOM     30 CL   UNL     1      11.602  -3.324   2.992  0.00  0.00    -0.082 Cl
ENDBRANCH  22  23
BRANCH  21  31
ATOM     31  C   UNL     1       5.889  -3.212   0.037  0.00  0.00    +0.104 C 
ATOM     32  N   UNL     1       6.117  -2.102  -0.042  0.00  0.00    -0.191 NA
ENDBRANCH  21  31
ENDBRANCH  18  21
ENDBRANCH   5  17
TORSDOF 7
