REMARK  Name = ZINC08843351
REMARK  7 active torsions:
REMARK  status: ('A' for Active; 'I' for Inactive)
REMARK    1  A    between atoms: C_1  and  C_2
REMARK    2  A    between atoms: C_4  and  C_15
REMARK    3  A    between atoms: C_5  and  C_14
REMARK    4  A    between atoms: N_6  and  C_7
REMARK    5  A    between atoms: C_10  and  O_13
REMARK    6  A    between atoms: N_16  and  N_17
REMARK    7  A    between atoms: C_18  and  C_20
REMARK                            x       y       z     vdW  Elec       q    Type
REMARK                         _______ _______ _______ _____ _____    ______ ____
ROOT
ATOM      1  C   UNL     1       0.184   1.030   0.257  0.00  0.00    +0.140 C 
ATOM      2  N   UNL     1       0.208  -0.238  -0.018  0.00  0.00    -0.187 NA
ENDROOT
BRANCH   1   6
ATOM      3  C   UNL     1      -4.737   1.916   1.286  0.00  0.00    +0.064 C 
ATOM      4  C   UNL     1      -3.281   2.083   0.933  0.00  0.00    +0.022 A 
ATOM      5  C   UNL     1      -2.380   1.088   0.838  0.00  0.00    +0.032 A 
ATOM      6  C   UNL     1      -1.104   1.713   0.475  0.00  0.00    +0.016 A 
ATOM      7  C   UNL     1      -1.347   3.054   0.386  0.00  0.00    +0.030 A 
ATOM      8  N   UNL     1      -2.662   3.268   0.658  0.00  0.00    -0.317 N 
ATOM      9  C   UNL     1      -0.332   4.114   0.042  0.00  0.00    +0.064 C 
BRANCH   8  10
ATOM     10  C   UNL     1      -3.289   4.523   0.661  0.00  0.00    +0.047 A 
ATOM     11  C   UNL     1      -3.396   5.249  -0.517  0.00  0.00    +0.030 A 
ATOM     12  C   UNL     1      -4.017   6.482  -0.514  0.00  0.00    +0.047 A 
ATOM     13  C   UNL     1      -4.525   7.001   0.668  0.00  0.00    +0.117 A 
ATOM     14  C   UNL     1      -4.413   6.278   1.847  0.00  0.00    +0.047 A 
ATOM     15  C   UNL     1      -3.797   5.043   1.844  0.00  0.00    +0.030 A 
BRANCH  13  16
ATOM     16  O   UNL     1      -5.131   8.217   0.671  0.00  0.00    -0.507 OA
ATOM     17  H   UNL     1      -4.530   8.956   0.836  0.00  0.00    +0.292 HD
ENDBRANCH  13  16
ENDBRANCH   8  10
ENDBRANCH   1   6
BRANCH   2  18
ATOM     18  N   UNL     1      -0.985  -0.916  -0.305  0.00  0.00    -0.200 N 
ATOM     19  C   UNL     1      -0.977  -2.253  -0.471  0.00  0.00    +0.299 C 
ATOM     20  O   UNL     1       0.066  -2.873  -0.373  0.00  0.00    -0.265 OA
ATOM     21  H   UNL     1      -1.816  -0.422  -0.383  0.00  0.00    +0.178 HD
BRANCH  19  22
ATOM     22  C   UNL     1      -2.227  -2.963  -0.772  0.00  0.00    +0.192 A 
ATOM     23  C   UNL     1      -2.339  -4.304  -0.959  0.00  0.00    +0.063 A 
ATOM     24  C   UNL     1      -3.754  -4.559  -1.230  0.00  0.00    +0.022 A 
ATOM     25  C   UNL     1      -4.502  -5.707  -1.500  0.00  0.00    +0.027 A 
ATOM     26  C   UNL     1      -5.848  -5.604  -1.714  0.00  0.00    +0.019 A 
ATOM     27  C   UNL     1      -6.475  -4.365  -1.665  0.00  0.00    +0.019 A 
ATOM     28  C   UNL     1      -5.754  -3.221  -1.400  0.00  0.00    +0.048 A 
ATOM     29  C   UNL     1      -4.384  -3.302  -1.178  0.00  0.00    +0.136 A 
ATOM     30  O   UNL     1      -3.439  -2.383  -0.898  0.00  0.00    -0.450 OA
ATOM     31 BR   UNL     1      -6.863  -7.156  -2.081  0.00  0.00    -0.050 Br
ENDBRANCH  19  22
ENDBRANCH   2  18
TORSDOF 5
