REMARK  Name = ZINC34740592
REMARK  14 active torsions:
REMARK  status: ('A' for Active; 'I' for Inactive)
REMARK    1  A    between atoms: C_1  and  C_2
REMARK    2  A    between atoms: C_2  and  C_3
REMARK    3  A    between atoms: C_2  and  C_4
REMARK    4  A    between atoms: C_4  and  N_5
REMARK    5  A    between atoms: C_7  and  C_20
REMARK    6  A    between atoms: C_9  and  C_12
REMARK    7  A    between atoms: C_17  and  O_18
REMARK    8  A    between atoms: O_18  and  C_19
REMARK    9  A    between atoms: C_20  and  N_21
REMARK   10  A    between atoms: N_21  and  C_22
REMARK   11  A    between atoms: C_22  and  C_23
REMARK   12  A    between atoms: C_23  and  C_24
REMARK   13  A    between atoms: C_23  and  C_25
REMARK   14  A    between atoms: C_26  and  C_28
REMARK                            x       y       z     vdW  Elec       q    Type
REMARK                         _______ _______ _______ _____ _____    ______ ____
ROOT
ATOM      1  N   UNL     1      -0.227   0.547   2.694  0.00  0.00    +0.380 N 
ATOM      2  C   UNL     1       0.315  -0.020   3.955  0.00  0.00    -0.073 C 
ATOM      3  C   UNL     1      -0.911  -0.145   4.885  0.00  0.00    -0.005 C 
ATOM      4  C   UNL     1      -2.126  -0.226   3.937  0.00  0.00    +0.009 C 
ATOM      5  C   UNL     1      -1.531  -0.143   2.515  0.00  0.00    -0.070 C 
ATOM      6  H   UNL     1      -0.364   1.543   2.782  0.00  0.00    -0.082 HD
ENDROOT
BRANCH   4   7
ATOM      7  C   UNL     1      -2.852  -1.533   4.127  0.00  0.00    -0.004 A 
ATOM      8  C   UNL     1      -2.246  -2.720   3.764  0.00  0.00    +0.007 A 
ATOM      9  C   UNL     1      -2.912  -3.919   3.938  0.00  0.00    +0.001 A 
ATOM     10  C   UNL     1      -4.186  -3.933   4.476  0.00  0.00    +0.004 A 
ATOM     11  C   UNL     1      -4.796  -2.749   4.841  0.00  0.00    +0.046 A 
ATOM     12  C   UNL     1      -4.128  -1.545   4.672  0.00  0.00    +0.123 A 
BRANCH  12  13
ATOM     13  O   UNL     1      -4.723  -0.379   5.036  0.00  0.00    -0.495 OA
ATOM     14  C   UNL     1      -6.037  -0.467   5.590  0.00  0.00    +0.277 C 
ENDBRANCH  12  13
ENDBRANCH   4   7
BRANCH   1  15
ATOM     15  C   UNL     1       0.670   0.250   1.569  0.00  0.00    -0.076 C 
BRANCH  15  17
ATOM     16  C   UNL     1       0.107   2.394   0.416  0.00  0.00    +0.005 C 
ATOM     17  C   UNL     1       0.105   0.869   0.289  0.00  0.00    -0.034 C 
ATOM     18  C   UNL     1       0.972   0.456  -0.902  0.00  0.00    +0.005 C 
ENDBRANCH  15  17
ENDBRANCH   1  15
BRANCH   3  19
ATOM     19  C   UNL     1      -0.809  -1.416   5.731  0.00  0.00    +0.110 C 
BRANCH  19  20
ATOM     20  N   UNL     1       0.318  -1.296   6.659  0.00  0.00    -0.301 N 
ATOM     21  C   UNL     1       1.510  -1.842   6.346  0.00  0.00    +0.212 C 
ATOM     22  O   UNL     1       2.469  -1.656   7.064  0.00  0.00    -0.276 OA
ATOM     23  C   UNL     1       1.651  -2.683   5.104  0.00  0.00    +0.109 C 
BRANCH  20  24
ATOM     24  C   UNL     1       0.149  -0.582   7.927  0.00  0.00    +0.110 C 
BRANCH  24  25
ATOM     25  C   UNL     1      -0.305  -1.563   9.008  0.00  0.00    +0.000 C 
ATOM     26  C   UNL     1       0.802  -2.588   9.265  0.00  0.00    +0.009 C 
ATOM     27  C   UNL     1      -0.601  -0.798  10.300  0.00  0.00    +0.009 C 
ENDBRANCH  24  25
ENDBRANCH  20  24
ENDBRANCH  19  20
ENDBRANCH   3  19
TORSDOF 8
