REMARK  Name = ZINC42129735
REMARK  5 active torsions:
REMARK  status: ('A' for Active; 'I' for Inactive)
REMARK    1  A    between atoms: C_3  and  N_21
REMARK    2  A    between atoms: C_6  and  C_7
REMARK    3  A    between atoms: C_7  and  C_8
REMARK    4  A    between atoms: C_8  and  S_9
REMARK    5  A    between atoms: S_9  and  C_10
REMARK                            x       y       z     vdW  Elec       q    Type
REMARK                         _______ _______ _______ _____ _____    ______ ____
ROOT
ATOM      1  S   UNL     1      -3.303  -1.957  -1.420  0.00  0.00    -0.085 S 
ENDROOT
BRANCH   1   2
ATOM      2  C   UNL     1      -3.685  -2.166  -3.127  0.00  0.00    +0.196 A 
ATOM      3  N   UNL     1      -2.971  -1.736  -4.143  0.00  0.00    -0.122 NA
ATOM      4  N   UNL     1      -3.536  -2.059  -5.253  0.00  0.00    -0.127 NA
ATOM      5  C   UNL     1      -4.653  -2.719  -5.008  0.00  0.00    +0.180 A 
ATOM      6  N   UNL     1      -4.774  -2.808  -3.638  0.00  0.00    -0.275 N 
ATOM      7  C   UNL     1      -5.844  -3.451  -3.078  0.00  0.00    +0.115 A 
ATOM      8  C   UNL     1      -6.793  -4.008  -3.858  0.00  0.00    +0.059 A 
ATOM      9  C   UNL     1      -6.695  -3.935  -5.261  0.00  0.00    +0.045 A 
ATOM     10  C   UNL     1      -5.642  -3.294  -5.834  0.00  0.00    +0.087 A 
ATOM     11 CL   UNL     1      -5.507  -3.198  -7.562  0.00  0.00    -0.080 Cl
ATOM     12 CL   UNL     1      -8.143  -4.819  -3.128  0.00  0.00    -0.082 Cl
ENDBRANCH   1   2
BRANCH   1  13
ATOM     13  C   UNL     1      -1.744  -1.028  -1.429  0.00  0.00    +0.082 C 
BRANCH  13  14
ATOM     14  C   UNL     1      -1.293  -0.775   0.010  0.00  0.00    +0.046 C 
BRANCH  14  20
ATOM     15  C   UNL     1      -0.017   1.378   0.010  0.00  0.00    +0.006 A 
ATOM     16  C   UNL     1       1.171   2.086   0.002  0.00  0.00    +0.033 A 
ATOM     17  C   UNL     1       2.377   1.411  -0.013  0.00  0.00    +0.126 A 
ATOM     18  C   UNL     1       2.396   0.029  -0.020  0.00  0.00    +0.033 A 
ATOM     19  C   UNL     1       1.208  -0.679  -0.012  0.00  0.00    +0.006 A 
ATOM     20  C   UNL     1       0.002  -0.004   0.002  0.00  0.00    -0.046 A 
BRANCH  17  21
ATOM     21  N   UNL     1       3.649   2.168  -0.022  0.00  0.00    +0.056 N 
ATOM     22  O   UNL     1       3.633   3.377  -0.016  0.00  0.00    -0.126 OA
ATOM     23  O   UNL     1       4.704   1.578  -0.035  0.00  0.00    -0.126 OA
ENDBRANCH  17  21
ENDBRANCH  14  20
ENDBRANCH  13  14
ENDBRANCH   1  13
TORSDOF 5
