REMARK  Name = ZINC02905030
REMARK  8 active torsions:
REMARK  status: ('A' for Active; 'I' for Inactive)
REMARK    1  A    between atoms: C_4  and  C_7
REMARK    2  A    between atoms: C_7  and  C_8
REMARK    3  A    between atoms: C_8  and  N_49
REMARK    4  A    between atoms: C_9  and  C_10
REMARK    5  A    between atoms: C_9  and  N_49
REMARK    6  A    between atoms: C_10  and  C_12
REMARK    7  A    between atoms: C_10  and  O_28
REMARK    8  A    between atoms: C_12  and  N_13
REMARK                            x       y       z     vdW  Elec       q    Type
REMARK                         _______ _______ _______ _____ _____    ______ ____
ROOT
ATOM      1  C   UNL     1       2.864   5.060   0.003  0.00  0.00    +0.151 C 
ENDROOT
BRANCH   1   2
ATOM      2  N   UNL     1       2.469   3.649  -0.002  0.00  0.00    -0.337 N 
ATOM      3  C   UNL     1       1.162   3.193   0.008  0.00  0.00    +0.050 A 
ATOM      4  C   UNL     1      -0.061   3.857   0.023  0.00  0.00    +0.027 A 
ATOM      5  C   UNL     1      -1.236   3.138   0.030  0.00  0.00    +0.017 A 
ATOM      6  C   UNL     1      -1.215   1.751   0.017  0.00  0.00    +0.019 A 
ATOM      7  C   UNL     1      -0.013   1.076   0.008  0.00  0.00    +0.026 A 
ATOM      8  C   UNL     1       1.183   1.791   0.000  0.00  0.00    +0.009 A 
ATOM      9  C   UNL     1       2.603   1.393  -0.015  0.00  0.00    +0.009 A 
ATOM     10  C   UNL     1       3.349   2.581  -0.016  0.00  0.00    +0.050 A 
ATOM     11  C   UNL     1       4.738   2.514  -0.030  0.00  0.00    +0.027 A 
ATOM     12  C   UNL     1       5.370   1.289  -0.042  0.00  0.00    +0.017 A 
ATOM     13  C   UNL     1       4.631   0.115  -0.042  0.00  0.00    +0.019 A 
ATOM     14  C   UNL     1       3.253   0.162  -0.029  0.00  0.00    +0.026 A 
ATOM     15 BR   UNL     1       5.517  -1.556  -0.060  0.00  0.00    -0.050 Br
ATOM     16 BR   UNL     1      -2.839   0.783   0.019  0.00  0.00    -0.050 Br
ENDBRANCH   1   2
BRANCH   1  17
ATOM     17  C   UNL     1       2.988   5.559  -1.438  0.00  0.00    +0.117 C 
BRANCH  17  18
ATOM     18  O   UNL     1       1.704   5.528  -2.066  0.00  0.00    -0.392 OA
ATOM     19  H   UNL     1       1.040   6.078  -1.629  0.00  0.00    +0.210 HD
ENDBRANCH  17  18
BRANCH  17  20
ATOM     20  C   UNL     1       3.520   6.994  -1.437  0.00  0.00    -0.049 C 
BRANCH  20  21
ATOM     21  N   UNL     1       3.637   7.467  -2.829  0.00  0.00    +0.381 N 
ATOM     22  H   UNL     1       4.283   6.856  -3.342  0.00  0.00    -0.086 HD
ATOM     23  H   UNL     1       2.712   7.439  -3.275  0.00  0.00    -0.086 HD
BRANCH  21  24
ATOM     24  C   UNL     1       4.148   8.850  -2.858  0.00  0.00    -0.078 C 
BRANCH  24  25
ATOM     25  C   UNL     1       4.259   9.314  -4.312  0.00  0.00    +0.016 C 
BRANCH  25  29
ATOM     26  C   UNL     1       5.740  13.319  -4.423  0.00  0.00    +0.000 A 
ATOM     27  C   UNL     1       6.622  12.255  -4.452  0.00  0.00    +0.000 A 
ATOM     28  C   UNL     1       6.142  10.959  -4.417  0.00  0.00    +0.003 A 
ATOM     29  C   UNL     1       4.781  10.727  -4.351  0.00  0.00    -0.049 A 
ATOM     30  C   UNL     1       3.899  11.791  -4.327  0.00  0.00    +0.003 A 
ATOM     31  C   UNL     1       4.378  13.087  -4.358  0.00  0.00    +0.000 A 
ENDBRANCH  25  29
ENDBRANCH  24  25
ENDBRANCH  21  24
ENDBRANCH  20  21
ENDBRANCH  17  20
ENDBRANCH   1  17
TORSDOF 8
