REMARK  Name = ZINC67461608
REMARK  6 active torsions:
REMARK  status: ('A' for Active; 'I' for Inactive)
REMARK    1  A    between atoms: C_3  and  O_29
REMARK    2  A    between atoms: C_6  and  C_7
REMARK    3  A    between atoms: N_15  and  C_16
REMARK    4  A    between atoms: C_16  and  C_17
REMARK    5  A    between atoms: C_17  and  C_18
REMARK    6  A    between atoms: C_18  and  C_19
REMARK                            x       y       z     vdW  Elec       q    Type
REMARK                         _______ _______ _______ _____ _____    ______ ____
ROOT
ATOM      1  C   UNL     1      -1.264  -0.764   0.016  0.00  0.00    -0.041 C 
ATOM      2  C   UNL     1      -2.046  -0.657  -1.032  0.00  0.00    -0.004 C 
ATOM      3  C   UNL     1      -3.371  -1.356  -1.153  0.00  0.00    +0.137 C 
ATOM      4  N   UNL     1      -3.496  -2.342  -0.070  0.00  0.00    -0.282 N 
ATOM      5  C   UNL     1      -3.069  -1.925   1.277  0.00  0.00    +0.114 C 
ATOM      6  C   UNL     1      -1.571  -1.609   1.217  0.00  0.00    +0.054 C 
ATOM      7  C   UNL     1      -3.983  -3.578  -0.300  0.00  0.00    +0.302 C 
ATOM      8  O   UNL     1      -3.989  -4.404   0.591  0.00  0.00    -0.253 OA
ATOM      9  N   UNL     1      -4.464  -3.896  -1.518  0.00  0.00    -0.299 N 
ATOM     10  H   UNL     1      -4.394  -3.262  -2.248  0.00  0.00    +0.150 HD
ENDROOT
BRANCH   1  16
ATOM     11  C   UNL     1      -0.013   1.388   0.016  0.00  0.00    +0.012 A 
ATOM     12  C   UNL     1       1.173   2.090   0.011  0.00  0.00    +0.046 A 
ATOM     13  C   UNL     1       2.385   1.411   0.001  0.00  0.00    +0.117 A 
ATOM     14  C   UNL     1       2.406   0.023  -0.005  0.00  0.00    +0.046 A 
ATOM     15  C   UNL     1       1.224  -0.687  -0.001  0.00  0.00    +0.012 A 
ATOM     16  C   UNL     1       0.005  -0.008   0.010  0.00  0.00    -0.022 A 
BRANCH  13  17
ATOM     17  O   UNL     1       3.551   2.107  -0.005  0.00  0.00    -0.507 OA
ATOM     18  H   UNL     1       3.895   2.305   0.877  0.00  0.00    +0.292 HD
ENDBRANCH  13  17
ENDBRANCH   1  16
BRANCH   9  19
ATOM     19  C   UNL     1      -5.093  -5.201  -1.739  0.00  0.00    +0.106 C 
BRANCH  19  20
ATOM     20  C   UNL     1      -5.548  -5.308  -3.195  0.00  0.00    +0.026 C 
BRANCH  20  21
ATOM     21  C   UNL     1      -6.205  -6.670  -3.426  0.00  0.00    +0.078 C 
BRANCH  21  22
ATOM     22  C   UNL     1      -6.654  -6.775  -4.861  0.00  0.00    +0.134 A 
ATOM     23  N   UNL     1      -7.817  -6.419  -5.338  0.00  0.00    -0.134 NA
ATOM     24  N   UNL     1      -7.853  -6.642  -6.606  0.00  0.00    -0.134 NA
ATOM     25  C   UNL     1      -6.716  -7.146  -6.992  0.00  0.00    +0.133 A 
ATOM     26  N   UNL     1      -5.927  -7.250  -5.896  0.00  0.00    -0.315 N 
ATOM     27  C   UNL     1      -4.567  -7.789  -5.850  0.00  0.00    +0.125 C 
ATOM     28  C   UNL     1      -3.890  -7.575  -7.207  0.00  0.00    +0.022 C 
ATOM     29  C   UNL     1      -4.168  -8.771  -8.116  0.00  0.00    +0.002 C 
ATOM     30  C   UNL     1      -5.667  -8.916  -8.364  0.00  0.00    +0.008 C 
ATOM     31  C   UNL     1      -6.321  -7.537  -8.392  0.00  0.00    +0.076 C 
ENDBRANCH  21  22
ENDBRANCH  20  21
ENDBRANCH  19  20
ENDBRANCH   9  19
TORSDOF 6
