REMARK  Name = ZINC39514244
REMARK  10 active torsions:
REMARK  status: ('A' for Active; 'I' for Inactive)
REMARK    1  A    between atoms: C_1  and  C_2
REMARK    2  A    between atoms: C_7  and  O_8
REMARK    3  A    between atoms: O_8  and  C_9
REMARK    4  A    between atoms: C_9  and  C_11
REMARK    5  A    between atoms: C_9  and  C_12
REMARK    6  A    between atoms: C_12  and  O_14
REMARK    7  A    between atoms: O_14  and  C_15
REMARK    8  A    between atoms: C_15  and  C_16
REMARK    9  A    between atoms: C_18  and  O_19
REMARK   10  A    between atoms: C_28  and  C_30
REMARK                            x       y       z     vdW  Elec       q    Type
REMARK                         _______ _______ _______ _____ _____    ______ ____
ROOT
ATOM      1  C   UNL     1      -1.953  -0.747   8.015  0.00  0.00    +0.007 A 
ATOM      2  C   UNL     1      -0.880  -0.877   8.874  0.00  0.00    +0.095 A 
ATOM      3  C   UNL     1      -1.067  -1.419  10.138  0.00  0.00    +0.285 A 
ATOM      4  O   UNL     1      -2.272  -1.824  10.551  0.00  0.00    -0.425 OA
ATOM      5  C   UNL     1      -3.355  -1.720   9.752  0.00  0.00    +0.141 A 
ATOM      6  C   UNL     1      -3.224  -1.171   8.457  0.00  0.00    +0.024 A 
ATOM      7  C   UNL     1      -4.351  -1.056   7.624  0.00  0.00    +0.014 A 
ATOM      8  C   UNL     1      -5.567  -1.470   8.067  0.00  0.00    +0.024 A 
ATOM      9  C   UNL     1      -5.707  -2.013   9.356  0.00  0.00    +0.037 A 
ATOM     10  C   UNL     1      -4.596  -2.144  10.191  0.00  0.00    +0.070 A 
ATOM     11  N   UNL     1      -6.931  -2.424   9.789  0.00  0.00    -0.286 N 
ATOM     12  C   UNL     1      -7.139  -2.637  11.073  0.00  0.00    +0.214 C 
ATOM     13  O   UNL     1      -6.277  -2.354  11.885  0.00  0.00    -0.276 OA
ATOM     14  C   UNL     1      -8.444  -3.232  11.537  0.00  0.00    +0.109 C 
ATOM     15  H   UNL     1      -7.650  -2.560   9.152  0.00  0.00    +0.155 HD
ENDROOT
BRANCH   3  16
ATOM     16  O   UNL     1      -0.011  -1.540  10.966  0.00  0.00    -0.480 OA
ATOM     17  H   UNL     1      -0.228  -1.926  11.825  0.00  0.00    +0.295 HD
ENDBRANCH   3  16
BRANCH   1  18
ATOM     18  C   UNL     1      -1.772  -0.161   6.639  0.00  0.00    +0.268 C 
BRANCH  18  19
ATOM     19  O   UNL     1      -0.922  -1.012   5.867  0.00  0.00    -0.457 OA
BRANCH  19  20
ATOM     20  C   UNL     1      -0.658  -0.629   4.608  0.00  0.00    +0.348 C 
ATOM     21  O   UNL     1      -1.133   0.394   4.175  0.00  0.00    -0.247 OA
BRANCH  20  22
ATOM     22  C   UNL     1       0.230  -1.476   3.733  0.00  0.00    +0.278 C 
ATOM     23  C   UNL     1       1.612  -1.601   4.379  0.00  0.00    +0.064 C 
BRANCH  22  24
ATOM     24  O   UNL     1       0.358  -0.864   2.449  0.00  0.00    -0.478 OA
BRANCH  24  31
ATOM     25  C   UNL     1       0.340   0.313  -0.119  0.00  0.00    +0.047 C 
ATOM     26  C   UNL     1       0.478  -1.173   0.093  0.00  0.00    -0.007 A 
ATOM     27  C   UNL     1       0.608  -2.017  -0.993  0.00  0.00    +0.027 A 
ATOM     28  C   UNL     1       0.735  -3.381  -0.799  0.00  0.00    +0.041 A 
ATOM     29  C   UNL     1       0.731  -3.902   0.483  0.00  0.00    +0.023 A 
ATOM     30  C   UNL     1       0.601  -3.062   1.571  0.00  0.00    +0.047 A 
ATOM     31  C   UNL     1       0.480  -1.693   1.379  0.00  0.00    +0.125 A 
ATOM     32 CL   UNL     1       0.898  -4.439  -2.165  0.00  0.00    -0.084 Cl
ENDBRANCH  24  31
ENDBRANCH  22  24
ENDBRANCH  20  22
ENDBRANCH  19  20
ENDBRANCH  18  19
ENDBRANCH   1  18
TORSDOF 7
