REMARK  Name = ZINC13032142
REMARK  12 active torsions:
REMARK  status: ('A' for Active; 'I' for Inactive)
REMARK    1  A    between atoms: C_1  and  O_2
REMARK    2  A    between atoms: O_2  and  C_3
REMARK    3  A    between atoms: C_3  and  C_4
REMARK    4  A    between atoms: C_4  and  C_5
REMARK    5  A    between atoms: C_5  and  N_6
REMARK    6  A    between atoms: N_6  and  C_7
REMARK    7  A    between atoms: C_8  and  N_23
REMARK    8  A    between atoms: N_9  and  C_16
REMARK    9  A    between atoms: C_16  and  C_17
REMARK   10  A    between atoms: C_24  and  C_26
REMARK   11  A    between atoms: C_26  and  N_66
REMARK   12  A    between atoms: C_30  and  C_32
REMARK                            x       y       z     vdW  Elec       q    Type
REMARK                         _______ _______ _______ _____ _____    ______ ____
ROOT
ATOM      1  N   UNL     1       3.813   2.753  -4.667  0.00  0.00    -0.266 N 
ATOM      2  C   UNL     1       3.890   2.640  -3.325  0.00  0.00    +0.203 C 
ATOM      3  O   UNL     1       4.656   3.343  -2.699  0.00  0.00    -0.277 OA
ENDROOT
BRANCH   1   4
ATOM      4  C   UNL     1       4.552   3.754  -5.334  0.00  0.00    +0.140 A 
ATOM      5  C   UNL     1       4.287   5.089  -5.108  0.00  0.00    +0.128 A 
ATOM      6  N   UNL     1       5.025   6.042  -5.773  0.00  0.00    -0.276 N 
ATOM      7  C   UNL     1       5.992   5.675  -6.633  0.00  0.00    +0.331 A 
ATOM      8  O   UNL     1       6.632   6.532  -7.212  0.00  0.00    -0.246 OA
ATOM      9  N   UNL     1       6.264   4.379  -6.866  0.00  0.00    -0.273 N 
ATOM     10  H   UNL     1       6.985   4.134  -7.513  0.00  0.00    +0.173 HD
ATOM     11  C   UNL     1       5.575   3.407  -6.237  0.00  0.00    +0.277 A 
ATOM     12  O   UNL     1       5.832   2.235  -6.451  0.00  0.00    -0.266 OA
BRANCH   5  13
ATOM     13  N   UNL     1       3.300   5.463  -4.229  0.00  0.00    -0.343 N 
ATOM     14  H   UNL     1       2.799   4.788  -3.746  0.00  0.00    +0.144 HD
ATOM     15  H   UNL     1       3.103   6.403  -4.092  0.00  0.00    +0.144 HD
ENDBRANCH   5  13
BRANCH   6  16
ATOM     16  C   UNL     1       4.755   7.463  -5.543  0.00  0.00    +0.163 C 
BRANCH  16  17
ATOM     17  C   UNL     1       5.607   7.959  -4.404  0.00  0.00    -0.028 A 
ATOM     18  C   UNL     1       5.131   7.901  -3.108  0.00  0.00    +0.005 A 
ATOM     19  C   UNL     1       5.915   8.351  -2.062  0.00  0.00    +0.000 A 
ATOM     20  C   UNL     1       7.172   8.868  -2.314  0.00  0.00    +0.000 A 
ATOM     21  C   UNL     1       7.647   8.931  -3.611  0.00  0.00    +0.000 A 
ATOM     22  C   UNL     1       6.864   8.476  -4.656  0.00  0.00    +0.005 A 
ENDBRANCH  16  17
ENDBRANCH   6  16
ENDBRANCH   1   4
BRANCH   1  23
ATOM     23  C   UNL     1       2.964   1.837  -5.432  0.00  0.00    +0.116 C 
BRANCH  23  24
ATOM     24  C   UNL     1       1.557   2.426  -5.551  0.00  0.00    +0.047 C 
BRANCH  24  25
ATOM     25  C   UNL     1       0.669   1.469  -6.350  0.00  0.00    +0.161 C 
BRANCH  25  27
ATOM     26  C   UNL     1      -1.558   1.199  -7.194  0.00  0.00    +0.193 C 
ATOM     27  O   UNL     1      -0.645   2.019  -6.461  0.00  0.00    -0.383 OA
ENDBRANCH  25  27
ENDBRANCH  24  25
ENDBRANCH  23  24
ENDBRANCH   1  23
BRANCH   2  28
ATOM     28  C   UNL     1       3.023   1.641  -2.602  0.00  0.00    +0.020 C 
BRANCH  28  33
ATOM     29  C   UNL     1       4.595   1.080  -0.829  0.00  0.00    -0.077 C 
ATOM     30  C   UNL     1       4.494   0.745   0.675  0.00  0.00    -0.020 C 
ATOM     31  C   UNL     1       2.982   0.641   0.962  0.00  0.00    -0.012 C 
ATOM     32  C   UNL     1       2.296   0.921  -0.393  0.00  0.00    -0.030 C 
ATOM     33  N   UNL     1       3.295   1.690  -1.131  0.00  0.00    +0.390 N 
ATOM     34  H   UNL     1       3.285   2.668  -0.819  0.00  0.00    -0.080 HD
BRANCH  32  35
ATOM     35  C   UNL     1       1.035   1.720  -0.189  0.00  0.00    -0.024 A 
ATOM     36  C   UNL     1      -0.253   1.296  -0.187  0.00  0.00    +0.009 A 
ATOM     37  C   UNL     1      -1.262   2.219   0.018  0.00  0.00    +0.008 A 
ATOM     38  C   UNL     1      -0.933   3.518   0.223  0.00  0.00    +0.045 A 
ATOM     39  S   UNL     1       0.848   3.469   0.115  0.00  0.00    -0.103 S 
ENDBRANCH  32  35
ENDBRANCH  28  33
ENDBRANCH   2  28
TORSDOF 11
