REMARK  Name = ZINC03902939
REMARK  3 active torsions:
REMARK  status: ('A' for Active; 'I' for Inactive)
REMARK    1  A    between atoms: C_9  and  C_11
REMARK    2  A    between atoms: C_11  and  C_20
REMARK    3  A    between atoms: C_12  and  C_13
REMARK                            x       y       z     vdW  Elec       q    Type
REMARK                         _______ _______ _______ _____ _____    ______ ____
ROOT
ATOM      1  C   UNL     1      -1.199  -0.873  -0.087  0.00  0.00    +0.094 C 
ATOM      2  C   UNL     1      -1.052  -2.225  -0.000  0.00  0.00    +0.030 C 
ENDROOT
BRANCH   1  11
ATOM      3  C   UNL     1       3.243   3.161  -0.006  0.00  0.00    +0.002 A 
ATOM      4  C   UNL     1       4.027   2.022   0.113  0.00  0.00    +0.002 A 
ATOM      5  C   UNL     1       3.456   0.782   0.144  0.00  0.00    +0.030 A 
ATOM      6  C   UNL     1       2.066   0.653   0.054  0.00  0.00    +0.089 A 
ATOM      7  C   UNL     1       1.271   1.807  -0.066  0.00  0.00    +0.066 A 
ATOM      8  C   UNL     1       1.871   3.058  -0.095  0.00  0.00    +0.028 A 
ATOM      9  N   UNL     1      -0.038   1.370  -0.133  0.00  0.00    -0.337 N 
ATOM     10  H   UNL     1      -0.852   1.944  -0.222  0.00  0.00    +0.167 HD
ATOM     11  C   UNL     1      -0.012   0.002  -0.053  0.00  0.00    +0.150 A 
ATOM     12  N   UNL     1       1.228  -0.412   0.056  0.00  0.00    -0.227 NA
ENDBRANCH   1  11
BRANCH   2  13
ATOM     13  C   UNL     1      -2.235  -3.087   0.117  0.00  0.00    -0.023 A 
ATOM     14  C   UNL     1      -3.393  -2.611   0.746  0.00  0.00    +0.008 A 
ATOM     15  C   UNL     1      -4.501  -3.425   0.848  0.00  0.00    +0.002 A 
ATOM     16  C   UNL     1      -4.469  -4.712   0.339  0.00  0.00    +0.015 A 
ATOM     17  C   UNL     1      -3.327  -5.192  -0.280  0.00  0.00    +0.018 A 
ATOM     18  C   UNL     1      -2.211  -4.389  -0.395  0.00  0.00    +0.023 A 
ATOM     19 BR   UNL     1      -3.297  -6.953  -0.969  0.00  0.00    -0.050 Br
ENDBRANCH   2  13
BRANCH   1  20
ATOM     20  C   UNL     1      -2.506  -0.301  -0.211  0.00  0.00    +0.103 C 
ATOM     21  N   UNL     1      -3.543   0.152  -0.309  0.00  0.00    -0.191 NA
ENDBRANCH   1  20
TORSDOF 3
