REMARK  Name = ZINC09550390
REMARK  10 active torsions:
REMARK  status: ('A' for Active; 'I' for Inactive)
REMARK    1  A    between atoms: C_1  and  C_2
REMARK    2  A    between atoms: C_5  and  C_9
REMARK    3  A    between atoms: C_7  and  C_8
REMARK    4  A    between atoms: N_16  and  C_19
REMARK    5  A    between atoms: C_19  and  C_20
REMARK    6  A    between atoms: C_20  and  C_22
REMARK    7  A    between atoms: C_23  and  C_32
REMARK    8  A    between atoms: C_24  and  C_29
REMARK    9  A    between atoms: C_25  and  C_28
REMARK   10  A    between atoms: C_29  and  C_31
REMARK                            x       y       z     vdW  Elec       q    Type
REMARK                         _______ _______ _______ _____ _____    ______ ____
ROOT
ATOM      1  C   UNL     1      -5.982   4.819  -1.075  0.00  0.00    +0.004 A 
ATOM      2  C   UNL     1      -6.860   5.756  -0.642  0.00  0.00    +0.056 A 
ATOM      3  S   UNL     1      -6.624   5.757   1.125  0.00  0.00    -0.076 S 
ATOM      4  C   UNL     1      -5.365   4.512   1.240  0.00  0.00    +0.116 A 
ATOM      5  C   UNL     1      -5.157   4.124  -0.094  0.00  0.00    +0.080 A 
ATOM      6  C   UNL     1      -4.170   3.108  -0.297  0.00  0.00    +0.263 A 
ATOM      7  O   UNL     1      -3.919   2.705  -1.420  0.00  0.00    -0.267 OA
ATOM      8  N   UNL     1      -3.524   2.603   0.770  0.00  0.00    -0.291 N 
ATOM      9  C   UNL     1      -3.795   3.035   2.028  0.00  0.00    +0.203 A 
ATOM     10  N   UNL     1      -4.686   3.966   2.245  0.00  0.00    -0.230 NA
ENDROOT
BRANCH   1  15
ATOM     11  C   UNL     1      -5.518   3.605  -6.684  0.00  0.00    +0.044 C 
ATOM     12  C   UNL     1      -5.639   3.922  -5.216  0.00  0.00    -0.048 A 
ATOM     13  C   UNL     1      -4.503   4.191  -4.473  0.00  0.00    +0.004 A 
ATOM     14  C   UNL     1      -4.609   4.488  -3.130  0.00  0.00    +0.009 A 
ATOM     15  C   UNL     1      -5.862   4.506  -2.519  0.00  0.00    -0.016 A 
ATOM     16  C   UNL     1      -7.003   4.235  -3.273  0.00  0.00    +0.012 A 
ATOM     17  C   UNL     1      -6.886   3.945  -4.617  0.00  0.00    -0.047 A 
ATOM     18  C   UNL     1      -8.118   3.650  -5.433  0.00  0.00    +0.044 C 
ENDBRANCH   1  15
BRANCH   8  19
ATOM     19  C   UNL     1      -2.513   1.562   0.571  0.00  0.00    +0.207 C 
BRANCH  19  20
ATOM     20  C   UNL     1      -1.164   2.203   0.369  0.00  0.00    +0.199 C 
ATOM     21  O   UNL     1      -1.058   3.413   0.389  0.00  0.00    -0.289 OA
BRANCH  20  22
ATOM     22  C   UNL     1      -0.021   1.396   0.155  0.00  0.00    +0.088 A 
ATOM     23  C   UNL     1       1.263   1.851  -0.048  0.00  0.00    -0.012 A 
ATOM     24  C   UNL     1       2.078   0.709  -0.222  0.00  0.00    +0.041 A 
ATOM     25  C   UNL     1       1.252  -0.401  -0.117  0.00  0.00    +0.024 A 
ATOM     26  N   UNL     1      -0.001   0.016   0.108  0.00  0.00    -0.355 N 
ATOM     27  H   UNL     1      -0.772  -0.560   0.221  0.00  0.00    +0.166 HD
ATOM     28  C   UNL     1       1.692  -1.838  -0.237  0.00  0.00    +0.064 C 
ATOM     29  C   UNL     1       1.713   3.288  -0.079  0.00  0.00    +0.047 C 
BRANCH  24  30
ATOM     30  C   UNL     1       3.524   0.699  -0.467  0.00  0.00    +0.162 C 
ATOM     31  O   UNL     1       4.297   0.680   0.468  0.00  0.00    -0.292 OA
ATOM     32  C   UNL     1       4.049   0.713  -1.879  0.00  0.00    +0.091 C 
ENDBRANCH  24  30
ENDBRANCH  20  22
ENDBRANCH  19  20
ENDBRANCH   8  19
TORSDOF 5
