REMARK  Name = ZINC00639196
REMARK  3 active torsions:
REMARK  status: ('A' for Active; 'I' for Inactive)
REMARK    1  A    between atoms: C_6  and  N_7
REMARK    2  A    between atoms: N_7  and  C_8
REMARK    3  A    between atoms: C_8  and  N_9
REMARK                            x       y       z     vdW  Elec       q    Type
REMARK                         _______ _______ _______ _____ _____    ______ ____
ROOT
ATOM      1  N   UNL     1       2.899  -3.140   1.334  0.00  0.00    -0.218 N 
ATOM      2  C   UNL     1       2.559  -4.286   1.950  0.00  0.00    +0.255 C 
ATOM      3  O   UNL     1       1.897  -5.182   1.465  0.00  0.00    -0.269 OA
ATOM      4  C   UNL     1       3.126  -4.274   3.315  0.00  0.00    +0.050 A 
ATOM      5  C   UNL     1       3.104  -5.161   4.379  0.00  0.00    +0.015 A 
ATOM      6  C   UNL     1       3.756  -4.836   5.558  0.00  0.00    +0.016 A 
ATOM      7  C   UNL     1       4.428  -3.633   5.679  0.00  0.00    +0.019 A 
ATOM      8  C   UNL     1       4.457  -2.736   4.621  0.00  0.00    +0.029 A 
ATOM      9  C   UNL     1       3.810  -3.048   3.437  0.00  0.00    +0.050 A 
ATOM     10  C   UNL     1       3.640  -2.359   2.140  0.00  0.00    +0.255 C 
ATOM     11  O   UNL     1       4.092  -1.269   1.852  0.00  0.00    -0.269 OA
ATOM     12 BR   UNL     1       5.311  -3.209   7.296  0.00  0.00    -0.050 Br
ENDROOT
BRANCH   1  13
ATOM     13  C   UNL     1       2.517  -2.790  -0.036  0.00  0.00    +0.221 C 
BRANCH  13  14
ATOM     14  N   UNL     1       1.237  -2.078  -0.020  0.00  0.00    -0.328 N 
ATOM     15  H   UNL     1       0.405  -2.576  -0.015  0.00  0.00    +0.148 HD
BRANCH  14  21
ATOM     16  C   UNL     1       0.002  -0.004   0.002  0.00  0.00    +0.024 A 
ATOM     17  C   UNL     1      -0.017   1.377   0.010  0.00  0.00    +0.017 A 
ATOM     18  C   UNL     1       1.171   2.086   0.002  0.00  0.00    +0.018 A 
ATOM     19  C   UNL     1       2.381   1.415  -0.013  0.00  0.00    +0.017 A 
ATOM     20  C   UNL     1       2.406   0.034  -0.021  0.00  0.00    +0.024 A 
ATOM     21  C   UNL     1       1.215  -0.681  -0.013  0.00  0.00    +0.028 A 
ATOM     22 BR   UNL     1       1.141   3.977   0.013  0.00  0.00    -0.050 Br
ENDBRANCH  14  21
ENDBRANCH  13  14
ENDBRANCH   1  13
TORSDOF 3
