REMARK  Name = ZINC12798946
REMARK  8 active torsions:
REMARK  status: ('A' for Active; 'I' for Inactive)
REMARK    1  A    between atoms: C_4  and  C_7
REMARK    2  A    between atoms: C_7  and  N_8
REMARK    3  A    between atoms: C_11  and  N_14
REMARK    4  A    between atoms: C_15  and  C_17
REMARK    5  A    between atoms: C_17  and  S_18
REMARK    6  A    between atoms: S_18  and  C_19
REMARK    7  A    between atoms: C_22  and  C_27
REMARK    8  A    between atoms: N_23  and  C_24
REMARK                            x       y       z     vdW  Elec       q    Type
REMARK                         _______ _______ _______ _____ _____    ______ ____
ROOT
ATOM      1  S   UNL     1      10.564  -1.900   5.376  0.00  0.00    -0.077 S 
ENDROOT
BRANCH   1   2
ATOM      2  C   UNL     1      12.271  -1.844   4.942  0.00  0.00    +0.193 A 
ATOM      3  N   UNL     1      12.764  -1.569   3.757  0.00  0.00    -0.122 NA
ATOM      4  N   UNL     1      14.048  -1.615   3.791  0.00  0.00    -0.128 NA
ATOM      5  C   UNL     1      14.454  -1.923   5.002  0.00  0.00    +0.167 A 
ATOM      6  N   UNL     1      13.329  -2.073   5.779  0.00  0.00    -0.299 N 
BRANCH   5   7
ATOM      7  C   UNL     1      15.855  -2.072   5.446  0.00  0.00    +0.044 A 
ATOM      8  C   UNL     1      16.285  -2.269   6.719  0.00  0.00    +0.095 A 
ATOM      9  N   UNL     1      17.647  -2.361   6.736  0.00  0.00    -0.360 N 
ATOM     10  H   UNL     1      18.184  -2.501   7.531  0.00  0.00    +0.165 HD
ATOM     11  C   UNL     1      18.149  -2.224   5.459  0.00  0.00    +0.047 A 
ATOM     12  C   UNL     1      17.056  -2.045   4.595  0.00  0.00    +0.010 A 
ATOM     13  C   UNL     1      17.268  -1.884   3.227  0.00  0.00    +0.011 A 
ATOM     14  C   UNL     1      18.552  -1.907   2.728  0.00  0.00    +0.001 A 
ATOM     15  C   UNL     1      19.631  -2.088   3.581  0.00  0.00    +0.002 A 
ATOM     16  C   UNL     1      19.438  -2.240   4.936  0.00  0.00    +0.026 A 
ENDBRANCH   5   7
BRANCH   6  17
ATOM     17  C   UNL     1      13.275  -2.411   7.203  0.00  0.00    +0.091 C 
ATOM     18  C   UNL     1      11.933  -2.882   7.767  0.00  0.00    +0.027 C 
ATOM     19  C   UNL     1      12.463  -1.490   8.117  0.00  0.00    +0.027 C 
ENDBRANCH   6  17
ENDBRANCH   1   2
BRANCH   1  20
ATOM     20  C   UNL     1       9.704  -1.507   3.828  0.00  0.00    +0.173 C 
BRANCH  20  22
ATOM     21  N   UNL     1       7.371  -1.255   3.046  0.00  0.00    -0.314 N 
ATOM     22  C   UNL     1       8.216  -1.521   4.062  0.00  0.00    +0.223 C 
ATOM     23  O   UNL     1       7.778  -1.772   5.165  0.00  0.00    -0.275 OA
ATOM     24  H   UNL     1       7.721  -1.054   2.164  0.00  0.00    +0.149 HD
BRANCH  21  28
ATOM     25  N   UNL     1       3.962  -0.636   2.051  0.00  0.00    +0.384 N 
ATOM     26  C   UNL     1       4.448   0.603   2.711  0.00  0.00    -0.077 C 
ATOM     27  C   UNL     1       5.448   0.109   3.778  0.00  0.00    +0.002 C 
ATOM     28  C   UNL     1       5.924  -1.269   3.274  0.00  0.00    +0.055 C 
ATOM     29  C   UNL     1       5.172  -1.492   1.944  0.00  0.00    -0.056 C 
ATOM     30  H   UNL     1       3.260  -1.088   2.618  0.00  0.00    -0.081 HD
BRANCH  25  31
ATOM     31  C   UNL     1       3.428  -0.333   0.717  0.00  0.00    -0.043 C 
BRANCH  31  35
ATOM     32  C   UNL     1      -0.235   1.830   1.105  0.00  0.00    +0.000 A 
ATOM     33  C   UNL     1       0.966   2.511   1.034  0.00  0.00    +0.000 A 
ATOM     34  C   UNL     1       2.151   1.812   0.909  0.00  0.00    +0.002 A 
ATOM     35  C   UNL     1       2.136   0.430   0.855  0.00  0.00    -0.064 A 
ATOM     36  C   UNL     1       0.935  -0.251   0.926  0.00  0.00    +0.002 A 
ATOM     37  C   UNL     1      -0.251   0.449   1.050  0.00  0.00    +0.000 A 
ENDBRANCH  31  35
ENDBRANCH  25  31
ENDBRANCH  21  28
ENDBRANCH  20  22
ENDBRANCH   1  20
TORSDOF 8
