REMARK  Name = ZINC36485176
REMARK  8 active torsions:
REMARK  status: ('A' for Active; 'I' for Inactive)
REMARK    1  A    between atoms: C_3  and  N_8
REMARK    2  A    between atoms: N_8  and  C_9
REMARK    3  A    between atoms: C_9  and  C_11
REMARK    4  A    between atoms: C_9  and  C_18
REMARK    5  A    between atoms: N_20  and  C_21
REMARK    6  A    between atoms: C_27  and  C_29
REMARK    7  A    between atoms: C_33  and  O_36
REMARK    8  A    between atoms: C_34  and  O_35
REMARK                            x       y       z     vdW  Elec       q    Type
REMARK                         _______ _______ _______ _____ _____    ______ ____
ROOT
ATOM      1  N   UNL     1       4.785   3.289  -0.471  0.00  0.00    -0.251 N 
ATOM      2  C   UNL     1       4.288   3.568   0.750  0.00  0.00    +0.255 C 
ATOM      3  O   UNL     1       3.104   3.811   0.884  0.00  0.00    -0.269 OA
ENDROOT
BRANCH   1   6
ATOM      4  C   UNL     1       2.704   3.158  -3.500  0.00  0.00    +0.003 A 
ATOM      5  C   UNL     1       3.389   2.758  -2.369  0.00  0.00    +0.023 A 
ATOM      6  C   UNL     1       4.091   3.691  -1.617  0.00  0.00    +0.039 A 
ATOM      7  C   UNL     1       4.101   5.025  -2.005  0.00  0.00    +0.043 A 
ATOM      8  C   UNL     1       3.414   5.419  -3.137  0.00  0.00    +0.043 A 
ATOM      9  C   UNL     1       2.716   4.486  -3.884  0.00  0.00    +0.020 A 
ATOM     10 CL   UNL     1       3.427   7.086  -3.623  0.00  0.00    -0.083 Cl
ENDBRANCH   1   6
BRANCH   2  11
ATOM     11  C   UNL     1       5.180   3.579   1.925  0.00  0.00    +0.082 A 
ATOM     12  C   UNL     1       6.103   2.546   2.115  0.00  0.00    +0.017 A 
ATOM     13  C   UNL     1       6.935   2.559   3.213  0.00  0.00    +0.005 A 
ATOM     14  C   UNL     1       6.864   3.593   4.133  0.00  0.00    +0.049 A 
ATOM     15  C   UNL     1       5.955   4.623   3.958  0.00  0.00    +0.159 A 
ATOM     16  C   UNL     1       5.112   4.626   2.851  0.00  0.00    +0.171 A 
BRANCH  16  17
ATOM     17  O   UNL     1       4.224   5.638   2.673  0.00  0.00    -0.503 OA
ATOM     18  H   UNL     1       3.363   5.482   3.084  0.00  0.00    +0.292 HD
ENDBRANCH  16  17
BRANCH  15  19
ATOM     19  O   UNL     1       5.891   5.634   4.865  0.00  0.00    -0.503 OA
ATOM     20  H   UNL     1       6.474   6.379   4.665  0.00  0.00    +0.292 HD
ENDBRANCH  15  19
ENDBRANCH   2  11
BRANCH   1  21
ATOM     21  C   UNL     1       6.051   2.564  -0.599  0.00  0.00    +0.197 C 
BRANCH  21  22
ATOM     22  C   UNL     1       6.653   2.839  -1.953  0.00  0.00    -0.018 A 
ATOM     23  C   UNL     1       6.073   2.305  -3.088  0.00  0.00    +0.007 A 
ATOM     24  C   UNL     1       6.625   2.557  -4.330  0.00  0.00    +0.020 A 
ATOM     25  C   UNL     1       7.758   3.344  -4.437  0.00  0.00    +0.041 A 
ATOM     26  C   UNL     1       8.338   3.878  -3.300  0.00  0.00    +0.020 A 
ATOM     27  C   UNL     1       7.782   3.630  -2.059  0.00  0.00    +0.007 A 
ATOM     28 CL   UNL     1       8.452   3.660  -5.996  0.00  0.00    -0.084 Cl
ENDBRANCH  21  22
BRANCH  21  29
ATOM     29  C   UNL     1       5.801   1.086  -0.451  0.00  0.00    +0.239 C 
ATOM     30  O   UNL     1       4.676   0.677  -0.258  0.00  0.00    -0.273 OA
ATOM     31  N   UNL     1       6.828   0.217  -0.533  0.00  0.00    -0.311 N 
ATOM     32  H   UNL     1       7.729   0.543  -0.687  0.00  0.00    +0.149 HD
BRANCH  31  33
ATOM     33  C   UNL     1       6.585  -1.221  -0.390  0.00  0.00    +0.073 C 
ATOM     34  C   UNL     1       6.582  -1.592   1.095  0.00  0.00    +0.022 C 
ATOM     35  C   UNL     1       6.328  -3.093   1.244  0.00  0.00    +0.002 C 
ATOM     36  C   UNL     1       7.432  -3.871   0.527  0.00  0.00    +0.000 C 
ATOM     37  C   UNL     1       7.436  -3.500  -0.958  0.00  0.00    +0.002 C 
ATOM     38  C   UNL     1       7.690  -1.999  -1.107  0.00  0.00    +0.022 C 
ENDBRANCH  31  33
ENDBRANCH  21  29
ENDBRANCH   1  21
TORSDOF 8
