REMARK  Name = ZINC12772520
REMARK  5 active torsions:
REMARK  status: ('A' for Active; 'I' for Inactive)
REMARK    1  A    between atoms: C_4  and  N_7
REMARK    2  A    between atoms: C_8  and  C_10
REMARK    3  A    between atoms: C_10  and  N_53
REMARK    4  A    between atoms: C_13  and  N_16
REMARK    5  A    between atoms: C_17  and  C_19
REMARK                            x       y       z     vdW  Elec       q    Type
REMARK                         _______ _______ _______ _____ _____    ______ ____
ROOT
ATOM      1  C   UNL     1       7.088   1.042  -1.622  0.00  0.00    -0.076 C 
ATOM      2  C   UNL     1       8.160   2.135  -1.627  0.00  0.00    +0.003 C 
ATOM      3  C   UNL     1       9.543   1.487  -1.512  0.00  0.00    +0.069 C 
ATOM      4  C   UNL     1       9.599   0.647  -0.233  0.00  0.00    +0.003 C 
ATOM      5  C   UNL     1       8.486  -0.403  -0.268  0.00  0.00    -0.076 C 
ATOM      6  N   UNL     1       7.180   0.286  -0.355  0.00  0.00    +0.386 N 
ATOM      7  H   UNL     1       7.096   0.941   0.431  0.00  0.00    -0.081 HD
ENDROOT
BRANCH   3   8
ATOM      8  N   UNL     1      10.570   2.529  -1.458  0.00  0.00    -0.312 N 
ATOM      9  C   UNL     1      11.060   3.052  -2.600  0.00  0.00    +0.227 C 
ATOM     10  O   UNL     1      10.650   2.659  -3.672  0.00  0.00    -0.275 OA
ATOM     11  H   UNL     1      10.898   2.844  -0.601  0.00  0.00    +0.149 HD
BRANCH   9  12
ATOM     12  C   UNL     1      12.117   4.124  -2.545  0.00  0.00    +0.141 C 
ATOM     13  C   UNL     1      12.072   5.025  -3.799  0.00  0.00    +0.060 C 
ATOM     14  C   UNL     1      13.451   5.450  -4.238  0.00  0.00    -0.032 A 
ATOM     15  C   UNL     1      13.766   6.530  -5.067  0.00  0.00    +0.005 A 
ATOM     16  C   UNL     1      15.069   6.809  -5.410  0.00  0.00    +0.000 A 
ATOM     17  C   UNL     1      16.109   6.026  -4.940  0.00  0.00    +0.001 A 
ATOM     18  C   UNL     1      15.823   4.955  -4.114  0.00  0.00    +0.015 A 
ATOM     19  C   UNL     1      14.513   4.680  -3.769  0.00  0.00    +0.012 A 
ATOM     20  S   UNL     1      13.805   3.414  -2.739  0.00  0.00    -0.112 S 
ENDBRANCH   9  12
ENDBRANCH   3   8
BRANCH   6  21
ATOM     21  C   UNL     1       6.083  -0.701  -0.275  0.00  0.00    +0.019 C 
BRANCH  21  23
ATOM     22  N   UNL     1       3.622  -0.651  -0.036  0.00  0.00    -0.287 N 
ATOM     23  C   UNL     1       4.776   0.037  -0.145  0.00  0.00    +0.201 C 
ATOM     24  O   UNL     1       4.761   1.250  -0.139  0.00  0.00    -0.278 OA
ATOM     25  H   UNL     1       3.638  -1.619   0.026  0.00  0.00    +0.155 HD
BRANCH  22  29
ATOM     26  C   UNL     1      -0.015   1.380   0.033  0.00  0.00    +0.000 A 
ATOM     27  C   UNL     1       1.100   1.942   0.626  0.00  0.00    +0.002 A 
ATOM     28  C   UNL     1       2.307   1.272   0.605  0.00  0.00    +0.023 A 
ATOM     29  C   UNL     1       2.400   0.032  -0.013  0.00  0.00    +0.033 A 
ATOM     30  C   UNL     1       1.278  -0.531  -0.608  0.00  0.00    +0.023 A 
ATOM     31  C   UNL     1       0.073   0.145  -0.582  0.00  0.00    +0.002 A 
ENDBRANCH  22  29
ENDBRANCH  21  23
ENDBRANCH   6  21
TORSDOF 5
