REMARK  Name = ZINC14475691
REMARK  6 active torsions:
REMARK  status: ('A' for Active; 'I' for Inactive)
REMARK    1  A    between atoms: C_1  and  C_2
REMARK    2  A    between atoms: C_2  and  O_3
REMARK    3  A    between atoms: O_3  and  C_4
REMARK    4  A    between atoms: C_17  and  C_20
REMARK    5  A    between atoms: C_22  and  N_27
REMARK    6  A    between atoms: C_25  and  O_26
REMARK                            x       y       z     vdW  Elec       q    Type
REMARK                         _______ _______ _______ _____ _____    ______ ____
ROOT
ATOM      1  C   UNL     1       0.777  -1.811  -1.336  0.00  0.00    +0.121 A 
ATOM      2  C   UNL     1       0.242  -2.668  -0.386  0.00  0.00    +0.047 A 
ATOM      3  C   UNL     1       0.358  -4.033  -0.553  0.00  0.00    +0.027 A 
ATOM      4  C   UNL     1       1.006  -4.550  -1.671  0.00  0.00    +0.032 A 
ATOM      5  C   UNL     1       1.530  -3.697  -2.626  0.00  0.00    -0.016 A 
ATOM      6  C   UNL     1       1.413  -2.325  -2.453  0.00  0.00    +0.051 A 
ATOM      7  C   UNL     1       2.208  -4.203  -3.868  0.00  0.00    +0.049 C 
ATOM      8  C   UNL     1       1.575  -3.502  -5.060  0.00  0.00    -0.023 C 
ATOM      9  C   UNL     1       0.724  -4.293  -5.661  0.00  0.00    -0.030 C 
ATOM     10  C   UNL     1       0.662  -5.642  -4.976  0.00  0.00    +0.033 C 
ATOM     11  C   UNL     1       1.968  -5.689  -4.121  0.00  0.00    +0.029 C 
ATOM     12  C   UNL     1       1.841  -6.553  -2.902  0.00  0.00    +0.108 C 
ATOM     13  N   UNL     1       1.123  -5.931  -1.806  0.00  0.00    -0.336 N 
ATOM     14  H   UNL     1       0.727  -6.500  -1.127  0.00  0.00    +0.147 HD
ENDROOT
BRANCH  12  15
ATOM     15  C   UNL     1       1.094  -7.806  -3.281  0.00  0.00    +0.017 A 
ATOM     16  C   UNL     1      -0.272  -7.881  -3.093  0.00  0.00    +0.041 A 
ATOM     17  C   UNL     1      -0.957  -9.030  -3.440  0.00  0.00    +0.127 A 
ATOM     18  C   UNL     1      -0.277 -10.107  -3.978  0.00  0.00    +0.036 A 
ATOM     19  C   UNL     1       1.089 -10.038  -4.168  0.00  0.00    +0.048 A 
ATOM     20  C   UNL     1       1.778  -8.883  -3.826  0.00  0.00    +0.122 A 
BRANCH  17  21
ATOM     21  N   UNL     1      -2.421  -9.108  -3.236  0.00  0.00    +0.056 N 
ATOM     22  O   UNL     1      -3.017  -8.166  -2.766  0.00  0.00    -0.126 OA
ATOM     23  O   UNL     1      -3.021 -10.112  -3.540  0.00  0.00    -0.126 OA
ENDBRANCH  17  21
BRANCH  20  24
ATOM     24  O   UNL     1       3.122  -8.810  -4.017  0.00  0.00    -0.506 OA
ATOM     25  H   UNL     1       3.644  -9.114  -3.262  0.00  0.00    +0.292 HD
ENDBRANCH  20  24
ENDBRANCH  12  15
BRANCH   1  26
ATOM     26  O   UNL     1       0.671  -0.465  -1.174  0.00  0.00    -0.492 OA
BRANCH  26  28
ATOM     27  C   UNL     1      -0.019   1.526   0.010  0.00  0.00    +0.048 C 
ATOM     28  C   UNL     1       0.002  -0.004   0.002  0.00  0.00    +0.225 C 
ENDBRANCH  26  28
ENDBRANCH   1  26
TORSDOF 5
