REMARK  Name = ZINC01764895
REMARK  17 active torsions:
REMARK  status: ('A' for Active; 'I' for Inactive)
REMARK    1  A    between atoms: C_1  and  O_2
REMARK    2  A    between atoms: O_2  and  C_3
REMARK    3  A    between atoms: C_5  and  C_27
REMARK    4  A    between atoms: C_7  and  C_10
REMARK    5  A    between atoms: C_8  and  O_9
REMARK    6  A    between atoms: C_10  and  N_61
REMARK    7  A    between atoms: C_11  and  C_12
REMARK    8  A    between atoms: C_11  and  N_61
REMARK    9  A    between atoms: C_12  and  O_13
REMARK   10  A    between atoms: C_14  and  C_15
REMARK   11  A    between atoms: C_14  and  N_61
REMARK   12  A    between atoms: C_17  and  C_24
REMARK   13  A    between atoms: C_19  and  O_22
REMARK   14  A    between atoms: C_20  and  O_21
REMARK   15  A    between atoms: O_22  and  C_23
REMARK   16  A    between atoms: C_24  and  C_25
REMARK   17  A    between atoms: C_27  and  C_28
REMARK                            x       y       z     vdW  Elec       q    Type
REMARK                         _______ _______ _______ _____ _____    ______ ____
ROOT
ATOM      1  N   UNL     1      -1.522  -6.383  -1.802  0.00  0.00    +0.387 N 
ATOM      2  H   UNL     1      -1.890  -5.644  -1.192  0.00  0.00    -0.081 HD
ENDROOT
BRANCH   1   3
ATOM      3  C   UNL     1      -1.387  -7.629  -1.019  0.00  0.00    -0.039 C 
BRANCH   3   8
ATOM      4  C   UNL     1      -4.333  -7.526   1.355  0.00  0.00    +0.162 A 
ATOM      5  C   UNL     1      -5.142  -8.519   0.826  0.00  0.00    +0.053 A 
ATOM      6  C   UNL     1      -4.735  -9.218  -0.295  0.00  0.00    -0.040 A 
ATOM      7  C   UNL     1      -3.522  -8.929  -0.890  0.00  0.00    +0.009 A 
ATOM      8  C   UNL     1      -2.709  -7.940  -0.367  0.00  0.00    -0.019 A 
ATOM      9  C   UNL     1      -3.109  -7.239   0.759  0.00  0.00    +0.160 A 
BRANCH   4  11
ATOM     10  C   UNL     1      -5.998  -7.190   3.021  0.00  0.00    +0.277 C 
ATOM     11  O   UNL     1      -4.732  -6.838   2.458  0.00  0.00    -0.491 OA
ENDBRANCH   4  11
BRANCH   9  12
ATOM     12  O   UNL     1      -2.309  -6.270   1.278  0.00  0.00    -0.503 OA
ATOM     13  H   UNL     1      -2.472  -5.389   0.914  0.00  0.00    +0.292 HD
ENDBRANCH   9  12
BRANCH   6  14
ATOM     14  C   UNL     1      -5.616 -10.298  -0.868  0.00  0.00    +0.061 C 
BRANCH  14  15
ATOM     15  C   UNL     1      -5.274 -11.618  -0.229  0.00  0.00    -0.030 C 
ATOM     16  C   UNL     1      -6.209 -12.326   0.355  0.00  0.00    +0.004 C 
ENDBRANCH  14  15
ENDBRANCH   6  14
ENDBRANCH   3   8
ENDBRANCH   1   3
BRANCH   1  17
ATOM     17  C   UNL     1      -2.461  -6.591  -2.925  0.00  0.00    -0.050 C 
BRANCH  17  18
ATOM     18  C   UNL     1      -1.843  -7.516  -3.976  0.00  0.00    +0.137 C 
BRANCH  18  19
ATOM     19  O   UNL     1      -1.689  -8.826  -3.427  0.00  0.00    -0.397 OA
ATOM     20  H   UNL     1      -1.302  -9.466  -4.040  0.00  0.00    +0.209 HD
ENDBRANCH  18  19
ENDBRANCH  17  18
ENDBRANCH   1  17
BRANCH   1  21
ATOM     21  C   UNL     1      -0.201  -5.966  -2.319  0.00  0.00    -0.039 C 
BRANCH  21  22
ATOM     22  C   UNL     1      -0.329  -4.592  -2.926  0.00  0.00    -0.019 A 
ATOM     23  C   UNL     1      -0.298  -4.438  -4.300  0.00  0.00    +0.009 A 
ATOM     24  C   UNL     1      -0.414  -3.179  -4.860  0.00  0.00    -0.040 A 
ATOM     25  C   UNL     1      -0.557  -2.069  -4.049  0.00  0.00    +0.053 A 
ATOM     26  C   UNL     1      -0.594  -2.217  -2.672  0.00  0.00    +0.162 A 
ATOM     27  C   UNL     1      -0.477  -3.484  -2.108  0.00  0.00    +0.160 A 
BRANCH  27  28
ATOM     28  O   UNL     1      -0.508  -3.634  -0.757  0.00  0.00    -0.503 OA
ATOM     29  H   UNL     1       0.349  -3.507  -0.327  0.00  0.00    +0.292 HD
ENDBRANCH  27  28
BRANCH  26  30
ATOM     30  O   UNL     1      -0.740  -1.126  -1.873  0.00  0.00    -0.491 OA
ATOM     31  C   UNL     1      -0.854   0.142  -2.521  0.00  0.00    +0.277 C 
ENDBRANCH  26  30
BRANCH  24  32
ATOM     32  C   UNL     1      -0.380  -3.017  -6.358  0.00  0.00    +0.061 C 
BRANCH  32  33
ATOM     33  C   UNL     1      -1.780  -3.116  -6.906  0.00  0.00    -0.030 C 
ATOM     34  C   UNL     1      -2.262  -2.151  -7.650  0.00  0.00    +0.004 C 
ENDBRANCH  32  33
ENDBRANCH  24  32
ENDBRANCH  21  22
ENDBRANCH   1  21
TORSDOF 15
