REMARK  Name = ZINC39990979
REMARK  7 active torsions:
REMARK  status: ('A' for Active; 'I' for Inactive)
REMARK    1  A    between atoms: C_1  and  C_2
REMARK    2  A    between atoms: C_2  and  C_4
REMARK    3  A    between atoms: C_2  and  S_16
REMARK    4  A    between atoms: N_6  and  C_7
REMARK    5  A    between atoms: S_16  and  C_17
REMARK    6  A    between atoms: C_21  and  C_26
REMARK    7  A    between atoms: N_22  and  C_23
REMARK                            x       y       z     vdW  Elec       q    Type
REMARK                         _______ _______ _______ _____ _____    ______ ____
ROOT
ATOM      1  C   UNL     1      -2.372  -0.173  -1.585  0.00  0.00    +0.238 C 
ATOM      2  N   UNL     1      -2.461   1.289  -1.733  0.00  0.00    -0.237 N 
ATOM      3  N   UNL     1      -1.665   1.627  -2.834  0.00  0.00    -0.169 NA
ATOM      4  C   UNL     1      -1.114   0.568  -3.364  0.00  0.00    +0.147 C 
ATOM      5  N   UNL     1      -1.480  -0.597  -2.678  0.00  0.00    -0.282 N 
ATOM      6  H   UNL     1      -2.971   1.899  -1.177  0.00  0.00    +0.171 HD
ENDROOT
BRANCH   4   7
ATOM      7  C   UNL     1      -0.264   0.593  -4.481  0.00  0.00    +0.022 C 
ATOM      8  C   UNL     1       0.216   1.719  -5.150  0.00  0.00    +0.006 A 
ATOM      9  C   UNL     1       0.026   3.102  -4.946  0.00  0.00    +0.010 A 
ATOM     10  C   UNL     1       0.632   3.994  -5.771  0.00  0.00    +0.001 A 
ATOM     11  C   UNL     1       1.446   3.578  -6.827  0.00  0.00    +0.002 A 
ATOM     12  C   UNL     1       1.673   2.265  -7.080  0.00  0.00    +0.026 A 
ATOM     13  C   UNL     1       1.074   1.275  -6.261  0.00  0.00    +0.043 A 
ATOM     14  N   UNL     1       1.136  -0.042  -6.297  0.00  0.00    -0.380 N 
ATOM     15  C   UNL     1       0.328  -0.595  -5.206  0.00  0.00    +0.152 C 
ATOM     16  H   UNL     1       1.640  -0.563  -6.942  0.00  0.00    +0.160 HD
ENDBRANCH   4   7
BRANCH   5  17
ATOM     17  C   UNL     1      -1.060  -1.966  -2.983  0.00  0.00    +0.078 C 
ATOM     18  C   UNL     1      -1.652  -3.093  -2.135  0.00  0.00    +0.024 C 
ATOM     19  C   UNL     1      -0.189  -2.685  -1.951  0.00  0.00    +0.024 C 
ENDBRANCH   5  17
BRANCH   1  20
ATOM     20  S   UNL     1      -1.655  -0.606   0.023  0.00  0.00    -0.106 S 
BRANCH  20  22
ATOM     21  C   UNL     1      -0.282   1.760   0.016  0.00  0.00    +0.029 C 
ATOM     22  C   UNL     1      -0.054   0.247   0.035  0.00  0.00    +0.133 C 
BRANCH  22  23
ATOM     23  C   UNL     1       0.708  -0.130   1.279  0.00  0.00    +0.230 C 
ATOM     24  O   UNL     1       0.119  -0.586   2.236  0.00  0.00    -0.274 OA
ATOM     25  N   UNL     1       2.044   0.038   1.328  0.00  0.00    -0.284 N 
ATOM     26  H   UNL     1       2.524   0.341   0.541  0.00  0.00    +0.155 HD
BRANCH  25  27
ATOM     27  C   UNL     1       2.740  -0.223   2.515  0.00  0.00    +0.037 A 
ATOM     28  C   UNL     1       3.836   0.555   2.864  0.00  0.00    +0.027 A 
ATOM     29  C   UNL     1       4.523   0.299   4.035  0.00  0.00    +0.051 A 
ATOM     30  C   UNL     1       4.122  -0.736   4.864  0.00  0.00    +0.166 A 
ATOM     31  C   UNL     1       3.023  -1.519   4.517  0.00  0.00    +0.168 A 
ATOM     32  C   UNL     1       2.332  -1.258   3.345  0.00  0.00    +0.072 A 
ATOM     33  O   UNL     1       2.835  -2.461   5.486  0.00  0.00    -0.453 OA
ATOM     34  C   UNL     1       4.071  -2.508   6.223  0.00  0.00    +0.466 C 
ATOM     35  O   UNL     1       4.621  -1.188   6.052  0.00  0.00    -0.453 OA
ENDBRANCH  25  27
ENDBRANCH  22  23
ENDBRANCH  20  22
ENDBRANCH   1  20
TORSDOF 6
