REMARK  Name = ZINC39357226
REMARK  8 active torsions:
REMARK  status: ('A' for Active; 'I' for Inactive)
REMARK    1  A    between atoms: C_1  and  O_2
REMARK    2  A    between atoms: O_2  and  C_3
REMARK    3  A    between atoms: C_5  and  C_23
REMARK    4  A    between atoms: C_8  and  O_9
REMARK    5  A    between atoms: O_9  and  C_10
REMARK    6  A    between atoms: C_10  and  C_11
REMARK    7  A    between atoms: C_24  and  C_25
REMARK    8  A    between atoms: C_24  and  C_27
REMARK                            x       y       z     vdW  Elec       q    Type
REMARK                         _______ _______ _______ _____ _____    ______ ____
ROOT
ATOM      1  C   UNL     1       1.969  -1.406   0.872  0.00  0.00    +0.162 A 
ATOM      2  C   UNL     1       2.050  -0.460   1.876  0.00  0.00    +0.057 A 
ATOM      3  C   UNL     1       2.608  -0.803   3.112  0.00  0.00    -0.020 A 
ATOM      4  C   UNL     1       3.082  -2.103   3.325  0.00  0.00    +0.012 A 
ATOM      5  C   UNL     1       2.997  -3.040   2.319  0.00  0.00    +0.050 A 
ATOM      6  C   UNL     1       2.438  -2.700   1.094  0.00  0.00    +0.163 A 
ENDROOT
BRANCH   1   8
ATOM      7  C   UNL     1       0.966   0.267  -0.488  0.00  0.00    +0.277 C 
ATOM      8  O   UNL     1       1.427  -1.076  -0.331  0.00  0.00    -0.491 OA
ENDBRANCH   1   8
BRANCH   3   9
ATOM      9  C   UNL     1       2.697   0.199   4.184  0.00  0.00    +0.026 C 
ATOM     10  C   UNL     1       2.433  -0.152   5.460  0.00  0.00    +0.072 C 
BRANCH  10  11
ATOM     11  C   UNL     1       1.882  -1.522   5.766  0.00  0.00    +0.216 C 
ATOM     12  N   UNL     1       0.715  -1.410   6.649  0.00  0.00    -0.359 N 
ATOM     13  C   UNL     1       0.993  -2.051   7.748  0.00  0.00    +0.060 A 
ATOM     14  C   UNL     1       0.236  -2.290   8.984  0.00  0.00    +0.027 A 
ATOM     15  C   UNL     1       0.795  -3.008   9.978  0.00  0.00    +0.002 A 
ATOM     16  C   UNL     1       2.090  -3.549   9.887  0.00  0.00    +0.002 A 
ATOM     17  C   UNL     1       2.870  -3.389   8.799  0.00  0.00    +0.027 A 
ATOM     18  C   UNL     1       2.364  -2.623   7.651  0.00  0.00    +0.060 A 
ATOM     19  N   UNL     1       2.880  -2.314   6.497  0.00  0.00    -0.359 N 
ATOM     20  H   UNL     1      -0.112  -0.944   6.451  0.00  0.00    +0.162 HD
ATOM     21  H   UNL     1       3.761  -2.562   6.177  0.00  0.00    +0.162 HD
ENDBRANCH  10  11
BRANCH  10  22
ATOM     22  C   UNL     1       2.674   0.776   6.524  0.00  0.00    +0.099 C 
ATOM     23  N   UNL     1       2.866   1.512   7.367  0.00  0.00    -0.191 NA
ENDBRANCH  10  22
ENDBRANCH   3   9
BRANCH   6  24
ATOM     24  O   UNL     1       2.353  -3.630   0.107  0.00  0.00    -0.481 OA
BRANCH  24  25
ATOM     25  C   UNL     1       2.853  -4.936   0.401  0.00  0.00    +0.303 C 
BRANCH  25  26
ATOM     26  C   UNL     1       2.675  -5.824  -0.803  0.00  0.00    +0.148 A 
ATOM     27  N   UNL     1       3.088  -7.116  -0.717  0.00  0.00    -0.308 N 
ATOM     28  H   UNL     1       3.484  -7.440   0.107  0.00  0.00    +0.170 HD
ATOM     29  C   UNL     1       2.950  -7.955  -1.770  0.00  0.00    +0.259 A 
ATOM     30  O   UNL     1       3.315  -9.115  -1.706  0.00  0.00    -0.267 OA
ATOM     31  C   UNL     1       2.343  -7.411  -2.994  0.00  0.00    +0.065 A 
ATOM     32  C   UNL     1       2.157  -8.190  -4.133  0.00  0.00    +0.015 A 
ATOM     33  C   UNL     1       1.583  -7.629  -5.253  0.00  0.00    +0.001 A 
ATOM     34  C   UNL     1       1.190  -6.297  -5.253  0.00  0.00    +0.002 A 
ATOM     35  C   UNL     1       1.366  -5.510  -4.138  0.00  0.00    +0.028 A 
ATOM     36  C   UNL     1       1.945  -6.056  -2.990  0.00  0.00    +0.078 A 
ATOM     37  N   UNL     1       2.131  -5.318  -1.867  0.00  0.00    -0.230 NA
ENDBRANCH  25  26
ENDBRANCH  24  25
ENDBRANCH   6  24
TORSDOF 7
