REMARK  Name = ZINC24337700
REMARK  11 active torsions:
REMARK  status: ('A' for Active; 'I' for Inactive)
REMARK    1  A    between atoms: C_1  and  C_2
REMARK    2  A    between atoms: C_4  and  N_11
REMARK    3  A    between atoms: C_6  and  C_8
REMARK    4  A    between atoms: C_8  and  C_9
REMARK    5  A    between atoms: C_8  and  C_10
REMARK    6  A    between atoms: N_14  and  C_17
REMARK    7  A    between atoms: C_17  and  C_18
REMARK    8  A    between atoms: C_18  and  C_20
REMARK    9  A    between atoms: C_22  and  C_34
REMARK   10  A    between atoms: N_23  and  C_26
REMARK   11  A    between atoms: C_24  and  C_25
REMARK                            x       y       z     vdW  Elec       q    Type
REMARK                         _______ _______ _______ _____ _____    ______ ____
ROOT
ATOM      1  N   UNL     1       3.783  -0.404   0.108  0.00  0.00    -0.319 N 
ATOM      2  C   UNL     1       4.702  -0.003  -0.966  0.00  0.00    +0.088 C 
ATOM      3  C   UNL     1       5.939  -0.903  -0.937  0.00  0.00    -0.059 C 
ATOM      4  N   UNL     1       5.526  -2.304  -1.098  0.00  0.00    +0.387 N 
ATOM      5  C   UNL     1       4.606  -2.706  -0.025  0.00  0.00    -0.059 C 
ATOM      6  C   UNL     1       3.369  -1.805  -0.053  0.00  0.00    +0.088 C 
ATOM      7  H   UNL     1       4.991  -2.393  -2.055  0.00  0.00    -0.081 HD
ENDROOT
BRANCH   1  11
ATOM      8  C   UNL     1       1.844   4.102   0.512  0.00  0.00    +0.066 C 
ATOM      9  C   UNL     1       1.719   2.609   0.352  0.00  0.00    +0.044 A 
ATOM     10  C   UNL     1       2.848   1.814   0.308  0.00  0.00    +0.066 A 
ATOM     11  C   UNL     1       2.682   0.436   0.158  0.00  0.00    +0.125 A 
ATOM     12  N   UNL     1       1.450  -0.058   0.064  0.00  0.00    -0.217 NA
ATOM     13  C   UNL     1       0.402   0.738   0.112  0.00  0.00    +0.134 A 
ATOM     14  N   UNL     1       0.525   2.042   0.252  0.00  0.00    -0.237 NA
BRANCH  13  15
ATOM     15  C   UNL     1      -0.977   0.140   0.001  0.00  0.00    +0.051 C 
ATOM     16  C   UNL     1      -1.777   0.465   1.264  0.00  0.00    +0.015 C 
ATOM     17  C   UNL     1      -1.691   0.725  -1.219  0.00  0.00    +0.015 C 
ENDBRANCH  13  15
ENDBRANCH   1  11
BRANCH   4  18
ATOM     18  C   UNL     1       6.693  -3.195  -1.152  0.00  0.00    +0.002 C 
BRANCH  18  19
ATOM     19  C   UNL     1       7.484  -2.912  -2.403  0.00  0.00    +0.149 C 
ATOM     20  O   UNL     1       7.112  -2.053  -3.175  0.00  0.00    -0.294 OA
BRANCH  19  21
ATOM     21  C   UNL     1       8.702  -3.674  -2.688  0.00  0.00    +0.036 A 
ATOM     22  C   UNL     1       9.290  -4.742  -1.868  0.00  0.00    +0.034 A 
ATOM     23  C   UNL     1      10.395  -5.150  -2.514  0.00  0.00    +0.017 A 
ATOM     24  N   UNL     1      10.537  -4.424  -3.662  0.00  0.00    -0.343 N 
ATOM     25  C   UNL     1       9.530  -3.541  -3.786  0.00  0.00    +0.027 A 
ATOM     26  C   UNL     1       9.341  -2.571  -4.924  0.00  0.00    +0.064 C 
ATOM     27  C   UNL     1      11.330  -6.235  -2.046  0.00  0.00    +0.063 C 
BRANCH  24  28
ATOM     28  C   UNL     1      11.628  -4.589  -4.625  0.00  0.00    +0.110 C 
ATOM     29  C   UNL     1      11.663  -6.048  -5.111  0.00  0.00    +0.049 C 
ATOM     30  C   UNL     1      12.999  -6.271  -5.875  0.00  0.00    +0.168 C 
ATOM     31  S   UNL     1      14.165  -5.337  -4.797  0.00  0.00    -0.029 S 
ATOM     32  O   UNL     1      14.726  -6.228  -3.842  0.00  0.00    -0.174 OA
ATOM     33  O   UNL     1      15.026  -4.556  -5.614  0.00  0.00    -0.174 OA
ATOM     34  C   UNL     1      12.971  -4.226  -3.948  0.00  0.00    +0.191 C 
ENDBRANCH  24  28
ENDBRANCH  19  21
ENDBRANCH  18  19
ENDBRANCH   4  18
TORSDOF 6
