REMARK  Name = ZINC48881770
REMARK  8 active torsions:
REMARK  status: ('A' for Active; 'I' for Inactive)
REMARK    1  A    between atoms: C_1  and  N_2
REMARK    2  A    between atoms: C_4  and  C_7
REMARK    3  A    between atoms: C_7  and  C_9
REMARK    4  A    between atoms: C_7  and  N_11
REMARK    5  A    between atoms: C_9  and  N_10
REMARK    6  A    between atoms: N_11  and  C_12
REMARK    7  A    between atoms: N_11  and  C_13
REMARK    8  A    between atoms: C_13  and  C_14
REMARK                            x       y       z     vdW  Elec       q    Type
REMARK                         _______ _______ _______ _____ _____    ______ ____
ROOT
ATOM      1  C   UNL     1      -0.064  -3.181  -1.620  0.00  0.00    -0.021 C 
ENDROOT
BRANCH   1   5
ATOM      2  C   UNL     1      -1.403   1.585  -0.834  0.00  0.00    +0.172 C 
ATOM      3  N   UNL     1      -0.997   0.196  -0.607  0.00  0.00    -0.274 N 
ATOM      4  C   UNL     1      -0.764  -0.730  -1.561  0.00  0.00    +0.110 A 
ATOM      5  C   UNL     1      -0.413  -1.881  -0.942  0.00  0.00    -0.022 A 
ATOM      6  C   UNL     1      -0.431  -1.651   0.437  0.00  0.00    +0.136 A 
ATOM      7  N   UNL     1      -0.775  -0.405   0.639  0.00  0.00    -0.180 NA
ENDBRANCH   1   5
BRANCH   1   8
ATOM      8  N   UNL     1      -0.644  -4.298  -0.863  0.00  0.00    +0.386 N 
ATOM      9  C   UNL     1      -2.094  -4.104  -0.737  0.00  0.00    -0.095 C 
ATOM     10  H   UNL     1      -0.228  -4.334   0.056  0.00  0.00    -0.081 HD
BRANCH   8  11
ATOM     11  C   UNL     1      -0.378  -5.559  -1.569  0.00  0.00    -0.042 C 
BRANCH  11  12
ATOM     12  C   UNL     1      -0.851  -6.716  -0.728  0.00  0.00    -0.064 A 
ATOM     13  C   UNL     1       0.008  -7.306   0.180  0.00  0.00    +0.003 A 
ATOM     14  C   UNL     1      -0.426  -8.367   0.953  0.00  0.00    +0.015 A 
ATOM     15  C   UNL     1      -1.719  -8.839   0.816  0.00  0.00    +0.018 A 
ATOM     16  C   UNL     1      -2.578  -8.248  -0.093  0.00  0.00    +0.015 A 
ATOM     17  C   UNL     1      -2.145  -7.183  -0.861  0.00  0.00    +0.003 A 
ATOM     18 BR   UNL     1      -2.313 -10.291   1.872  0.00  0.00    -0.050 Br
ENDBRANCH  11  12
ENDBRANCH   8  11
ENDBRANCH   1   8
BRANCH   1  19
ATOM     19  C   UNL     1       1.457  -3.336  -1.673  0.00  0.00    +0.067 C 
BRANCH  19  20
ATOM     20  N   UNL     1       2.030  -2.261  -2.494  0.00  0.00    -0.331 NA
ATOM     21  H   UNL     1       3.026  -2.381  -2.603  0.00  0.00    +0.118 HD
ATOM     22  H   UNL     1       1.572  -2.208  -3.392  0.00  0.00    +0.118 HD
ENDBRANCH  19  20
ENDBRANCH   1  19
TORSDOF 6
