REMARK  Name = ZINC20438649
REMARK  9 active torsions:
REMARK  status: ('A' for Active; 'I' for Inactive)
REMARK    1  A    between atoms: C_1  and  C_2
REMARK    2  A    between atoms: C_5  and  C_8
REMARK    3  A    between atoms: N_10  and  C_11
REMARK    4  A    between atoms: C_11  and  C_28
REMARK    5  A    between atoms: C_12  and  C_13
REMARK    6  A    between atoms: N_15  and  S_22
REMARK    7  A    between atoms: S_22  and  N_25
REMARK    8  A    between atoms: N_25  and  C_26
REMARK    9  A    between atoms: N_25  and  C_27
REMARK                            x       y       z     vdW  Elec       q    Type
REMARK                         _______ _______ _______ _____ _____    ______ ____
ROOT
ATOM      1  C   UNL     1      -0.816   1.841   0.410  0.00  0.00    +0.097 C 
ATOM      2  C   UNL     1       0.277   1.066   0.188  0.00  0.00    +0.038 C 
ENDROOT
BRANCH   2   3
ATOM      3  C   UNL     1       1.575   1.689  -0.080  0.00  0.00    +0.004 A 
ATOM      4  C   UNL     1       1.832   3.026  -0.192  0.00  0.00    +0.122 A 
ATOM      5  N   UNL     1       3.154   3.218  -0.443  0.00  0.00    -0.208 N 
ATOM      6  C   UNL     1       3.812   2.007  -0.504  0.00  0.00    +0.074 A 
ATOM      7  C   UNL     1       2.863   0.998  -0.275  0.00  0.00    +0.009 A 
ATOM      8  C   UNL     1       3.249  -0.340  -0.286  0.00  0.00    +0.010 A 
ATOM      9  C   UNL     1       4.569  -0.667  -0.511  0.00  0.00    +0.001 A 
ATOM     10  C   UNL     1       5.509   0.329  -0.731  0.00  0.00    +0.002 A 
ATOM     11  C   UNL     1       5.139   1.656  -0.729  0.00  0.00    +0.028 A 
BRANCH   5  12
ATOM     12  S   UNL     1       3.872   4.696  -0.646  0.00  0.00    +0.123 S 
ATOM     13  O   UNL     1       2.845   5.668  -0.517  0.00  0.00    -0.136 OA
ATOM     14  O   UNL     1       5.033   4.699   0.174  0.00  0.00    -0.136 OA
BRANCH  12  15
ATOM     15  N   UNL     1       4.401   4.772  -2.214  0.00  0.00    -0.168 NA
ATOM     16  C   UNL     1       3.481   5.181  -3.278  0.00  0.00    +0.133 C 
ATOM     17  C   UNL     1       5.789   4.431  -2.537  0.00  0.00    +0.133 C 
ENDBRANCH  12  15
ENDBRANCH   5  12
ENDBRANCH   2   3
BRANCH   1  18
ATOM     18  C   UNL     1      -2.080   1.225   0.815  0.00  0.00    +0.261 C 
ATOM     19  O   UNL     1      -2.364   1.137   1.995  0.00  0.00    -0.269 OA
ATOM     20  N   UNL     1      -2.931   0.755  -0.120  0.00  0.00    -0.296 N 
ATOM     21  C   UNL     1      -2.520   0.780  -1.506  0.00  0.00    +0.108 C 
ATOM     22  C   UNL     1      -2.924   2.123  -2.149  0.00  0.00    +0.019 C 
ATOM     23  C   UNL     1      -4.383   2.186  -2.326  0.00  0.00    +0.002 C 
ATOM     24  C   UNL     1      -5.177   2.135  -1.025  0.00  0.00    +0.002 C 
ATOM     25  C   UNL     1      -5.382   0.696  -0.620  0.00  0.00    +0.019 C 
ATOM     26  C   UNL     1      -4.245   0.242   0.314  0.00  0.00    +0.108 C 
ENDBRANCH   1  18
BRANCH   1  29
ATOM     27  C   UNL     1      -0.985   4.045   1.297  0.00  0.00    +0.248 C 
ATOM     28  O   UNL     1      -1.204   3.573   2.396  0.00  0.00    -0.270 OA
ATOM     29  N   UNL     1      -0.732   3.232   0.252  0.00  0.00    -0.277 N 
ATOM     30  H   UNL     1      -0.460   3.659  -0.725  0.00  0.00    +0.155 HD
BRANCH  27  35
ATOM     31  C   UNL     1      -1.032   9.751   0.555  0.00  0.00    +0.044 C 
ATOM     32  C   UNL     1      -1.020   8.257   0.749  0.00  0.00    -0.050 A 
ATOM     33  C   UNL     1      -1.160   7.726   2.019  0.00  0.00    +0.004 A 
ATOM     34  C   UNL     1      -1.149   6.359   2.204  0.00  0.00    +0.013 A 
ATOM     35  C   UNL     1      -0.998   5.511   1.106  0.00  0.00    +0.037 A 
ATOM     36  C   UNL     1      -0.852   6.053  -0.172  0.00  0.00    +0.013 A 
ATOM     37  C   UNL     1      -0.870   7.422  -0.344  0.00  0.00    +0.004 A 
ENDBRANCH  27  35
ENDBRANCH   1  29
TORSDOF 6
