REMARK  Name = ZINC08566311
REMARK  7 active torsions:
REMARK  status: ('A' for Active; 'I' for Inactive)
REMARK    1  A    between atoms: C_1  and  O_2
REMARK    2  A    between atoms: O_2  and  C_3
REMARK    3  A    between atoms: C_5  and  C_10
REMARK    4  A    between atoms: C_8  and  O_9
REMARK    5  A    between atoms: C_13  and  C_24
REMARK    6  A    between atoms: C_19  and  N_23
REMARK    7  A    between atoms: C_20  and  C_21
REMARK                            x       y       z     vdW  Elec       q    Type
REMARK                         _______ _______ _______ _____ _____    ______ ____
ROOT
ATOM      1  C   UNL     1      -4.871   0.257   0.037  0.00  0.00    +0.102 C 
ATOM      2  C   UNL     1      -5.695  -0.081  -1.178  0.00  0.00    +0.055 A 
ATOM      3  C   UNL     1      -5.479   0.261  -2.518  0.00  0.00    +0.107 A 
ATOM      4  N   UNL     1      -6.462  -0.256  -3.233  0.00  0.00    -0.170 NA
ATOM      5  N   UNL     1      -7.327  -0.940  -2.364  0.00  0.00    -0.246 N 
ATOM      6  H   UNL     1      -8.133  -1.415  -2.619  0.00  0.00    +0.192 HD
ATOM      7  C   UNL     1      -6.840  -0.820  -1.111  0.00  0.00    +0.223 A 
ATOM      8  O   UNL     1      -7.330  -1.307   0.057  0.00  0.00    -0.423 OA
ATOM      9  C   UNL     1      -6.813  -0.820   1.203  0.00  0.00    +0.200 C 
ATOM     10  C   UNL     1      -5.679  -0.085   1.265  0.00  0.00    +0.098 C 
ENDROOT
BRANCH   1  13
ATOM     11  C   UNL     1      -1.201  -0.638   0.010  0.00  0.00    +0.162 A 
ATOM     12  C   UNL     1      -2.374   0.099   0.019  0.00  0.00    +0.054 A 
ATOM     13  C   UNL     1      -3.596  -0.546   0.027  0.00  0.00    -0.031 A 
ATOM     14  C   UNL     1      -3.652  -1.928   0.026  0.00  0.00    +0.008 A 
ATOM     15  C   UNL     1      -2.485  -2.669   0.017  0.00  0.00    +0.049 A 
ATOM     16  C   UNL     1      -1.257  -2.028   0.003  0.00  0.00    +0.158 A 
BRANCH  11  18
ATOM     17  C   UNL     1      -0.017   1.425   0.010  0.00  0.00    +0.277 C 
ATOM     18  O   UNL     1       0.002  -0.004   0.002  0.00  0.00    -0.491 OA
ENDBRANCH  11  18
BRANCH  16  19
ATOM     19  O   UNL     1      -0.108  -2.756  -0.012  0.00  0.00    -0.503 OA
ATOM     20  H   UNL     1       0.232  -2.972   0.867  0.00  0.00    +0.292 HD
ENDBRANCH  16  19
ENDBRANCH   1  13
BRANCH   3  21
ATOM     21  C   UNL     1      -4.350   1.061  -3.041  0.00  0.00    +0.040 A 
ATOM     22  C   UNL     1      -3.687   0.942  -4.232  0.00  0.00    +0.018 A 
ATOM     23  C   UNL     1      -2.653   1.812  -4.505  0.00  0.00    +0.008 A 
ATOM     24  C   UNL     1      -2.324   2.756  -3.588  0.00  0.00    +0.046 A 
ATOM     25  S   UNL     1      -3.502   2.438  -2.285  0.00  0.00    -0.095 S 
ENDBRANCH   3  21
BRANCH   9  26
ATOM     26  N   UNL     1      -7.476  -1.083   2.375  0.00  0.00    -0.328 N 
ATOM     27  H   UNL     1      -8.293  -1.607   2.363  0.00  0.00    +0.145 HD
ATOM     28  H   UNL     1      -7.128  -0.747   3.216  0.00  0.00    +0.145 HD
ENDBRANCH   9  26
BRANCH  10  29
ATOM     29  C   UNL     1      -5.227   0.384   2.540  0.00  0.00    +0.101 C 
ATOM     30  N   UNL     1      -4.869   0.756   3.552  0.00  0.00    -0.191 NA
ENDBRANCH  10  29
TORSDOF 6
