REMARK  Name = ZINC16525985
REMARK  7 active torsions:
REMARK  status: ('A' for Active; 'I' for Inactive)
REMARK    1  A    between atoms: C_9  and  O_22
REMARK    2  A    between atoms: C_10  and  C_11
REMARK    3  A    between atoms: C_11  and  N_52
REMARK    4  A    between atoms: C_12  and  C_13
REMARK    5  A    between atoms: C_12  and  N_52
REMARK    6  A    between atoms: O_22  and  C_23
REMARK    7  A    between atoms: C_23  and  C_24
REMARK                            x       y       z     vdW  Elec       q    Type
REMARK                         _______ _______ _______ _____ _____    ______ ____
ROOT
ATOM      1  C   UNL     1      -0.013   1.076   0.008  0.00  0.00    +0.001 A 
ATOM      2  C   UNL     1      -1.235   1.746   0.017  0.00  0.00    +0.001 A 
ATOM      3  C   UNL     1      -1.288   3.105   0.030  0.00  0.00    +0.009 A 
ATOM      4  C   UNL     1      -0.095   3.849   0.023  0.00  0.00    -0.013 A 
ATOM      5  C   UNL     1       1.148   3.167   0.008  0.00  0.00    -0.017 A 
ATOM      6  C   UNL     1       1.163   1.762   0.000  0.00  0.00    +0.008 A 
ATOM      7  C   UNL     1       2.342   3.909  -0.000  0.00  0.00    +0.012 A 
ATOM      8  C   UNL     1       2.292   5.268   0.006  0.00  0.00    +0.046 A 
ATOM      9  C   UNL     1       1.067   5.942   0.021  0.00  0.00    +0.123 A 
ATOM     10  C   UNL     1      -0.112   5.253   0.029  0.00  0.00    -0.015 A 
ENDROOT
BRANCH  10  11
ATOM     11  C   UNL     1      -1.423   5.995   0.046  0.00  0.00    -0.042 C 
BRANCH  11  12
ATOM     12  N   UNL     1      -1.830   6.226   1.445  0.00  0.00    +0.384 N 
ATOM     13  H   UNL     1      -1.109   6.782   1.920  0.00  0.00    -0.085 HD
ATOM     14  H   UNL     1      -1.935   5.323   1.921  0.00  0.00    -0.085 HD
BRANCH  12  15
ATOM     15  C   UNL     1      -3.113   6.953   1.491  0.00  0.00    -0.046 C 
BRANCH  15  16
ATOM     16  C   UNL     1      -3.503   7.175   2.930  0.00  0.00    -0.061 A 
ATOM     17  C   UNL     1      -4.277   6.236   3.588  0.00  0.00    +0.005 A 
ATOM     18  C   UNL     1      -4.632   6.432   4.909  0.00  0.00    +0.050 A 
ATOM     19  C   UNL     1      -4.223   7.577   5.574  0.00  0.00    +0.166 A 
ATOM     20  C   UNL     1      -3.449   8.525   4.910  0.00  0.00    +0.166 A 
ATOM     21  C   UNL     1      -3.091   8.319   3.588  0.00  0.00    +0.051 A 
ATOM     22  O   UNL     1      -3.179   9.549   5.771  0.00  0.00    -0.453 OA
ATOM     23  C   UNL     1      -4.135   9.415   6.840  0.00  0.00    +0.466 C 
ATOM     24  O   UNL     1      -4.439   8.007   6.852  0.00  0.00    -0.453 OA
ENDBRANCH  15  16
ENDBRANCH  12  15
ENDBRANCH  11  12
ENDBRANCH  10  11
BRANCH   9  25
ATOM     25  O   UNL     1       1.050   7.301   0.028  0.00  0.00    -0.487 OA
BRANCH  25  26
ATOM     26  C   UNL     1       2.315   7.966   0.019  0.00  0.00    +0.264 C 
BRANCH  26  27
ATOM     27  C   UNL     1       2.098   9.457   0.029  0.00  0.00    -0.010 A 
ATOM     28  C   UNL     1       1.993  10.148  -1.164  0.00  0.00    +0.010 A 
ATOM     29  C   UNL     1       1.789  11.514  -1.157  0.00  0.00    +0.039 A 
ATOM     30  C   UNL     1       1.701  12.194   0.046  0.00  0.00    +0.123 A 
ATOM     31  C   UNL     1       1.812  11.502   1.241  0.00  0.00    +0.039 A 
ATOM     32  C   UNL     1       2.010  10.135   1.231  0.00  0.00    +0.010 A 
ATOM     33  F   UNL     1       1.507  13.531   0.055  0.00  0.00    -0.205 F 
ENDBRANCH  26  27
ENDBRANCH  25  26
ENDBRANCH   9  25
TORSDOF 7
