REMARK  Name = ZINC16953558
REMARK  6 active torsions:
REMARK  status: ('A' for Active; 'I' for Inactive)
REMARK    1  A    between atoms: C_6  and  C_7
REMARK    2  A    between atoms: C_12  and  C_17
REMARK    3  A    between atoms: N_15  and  O_16
REMARK    4  A    between atoms: C_17  and  C_19
REMARK    5  A    between atoms: C_17  and  N_26
REMARK    6  A    between atoms: N_26  and  O_27
REMARK                            x       y       z     vdW  Elec       q    Type
REMARK                         _______ _______ _______ _____ _____    ______ ____
ROOT
ATOM      1  C   UNL     1      -0.064   4.281   0.805  0.00  0.00    +0.013 C 
ATOM      2  C   UNL     1       0.832   3.564   0.099  0.00  0.00    -0.022 C 
ATOM      3  C   UNL     1       1.963   4.230  -0.659  0.00  0.00    +0.037 C 
ATOM      4  C   UNL     1       3.260   3.475  -0.352  0.00  0.00    +0.005 C 
ATOM      5  C   UNL     1       3.107   2.003  -0.740  0.00  0.00    +0.012 C 
ATOM      6  C   UNL     1       2.064   1.335   0.168  0.00  0.00    +0.065 C 
ATOM      7  C   UNL     1       0.759   2.091   0.025  0.00  0.00    +0.088 C 
ATOM      8  N   UNL     1      -0.370   1.474  -0.149  0.00  0.00    -0.091 NA
ENDROOT
BRANCH   1  14
ATOM      9  C   UNL     1      -0.401   6.524   1.828  0.00  0.00    +0.009 A 
ATOM     10  C   UNL     1      -0.398   7.899   1.735  0.00  0.00    +0.020 A 
ATOM     11  C   UNL     1      -0.077   8.515   0.536  0.00  0.00    +0.041 A 
ATOM     12  C   UNL     1       0.248   7.755  -0.575  0.00  0.00    +0.020 A 
ATOM     13  C   UNL     1       0.254   6.378  -0.495  0.00  0.00    +0.009 A 
ATOM     14  C   UNL     1      -0.068   5.750   0.712  0.00  0.00    -0.025 A 
ATOM     15 CL   UNL     1      -0.083  10.247   0.426  0.00  0.00    -0.084 Cl
ENDBRANCH   1  14
BRANCH   8  16
ATOM     16  O   UNL     1      -0.439   0.068   0.003  0.00  0.00    -0.409 OA
ATOM     17  H   UNL     1      -1.333  -0.292  -0.071  0.00  0.00    +0.328 HD
ENDBRANCH   8  16
BRANCH   6  18
ATOM     18  C   UNL     1       1.865  -0.121  -0.258  0.00  0.00    +0.120 C 
BRANCH  18  19
ATOM     19  C   UNL     1       3.184  -0.848  -0.194  0.00  0.00    -0.028 A 
ATOM     20  C   UNL     1       3.713  -1.422  -1.335  0.00  0.00    +0.007 A 
ATOM     21  C   UNL     1       4.925  -2.084  -1.277  0.00  0.00    +0.020 A 
ATOM     22  C   UNL     1       5.603  -2.182  -0.075  0.00  0.00    +0.041 A 
ATOM     23  C   UNL     1       5.070  -1.612   1.067  0.00  0.00    +0.020 A 
ATOM     24  C   UNL     1       3.861  -0.946   1.007  0.00  0.00    +0.007 A 
ATOM     25 CL   UNL     1       7.122  -3.020  -0.001  0.00  0.00    -0.084 Cl
ENDBRANCH  18  19
BRANCH  18  26
ATOM     26  N   UNL     1       1.350  -0.163  -1.633  0.00  0.00    -0.196 NA
ATOM     27  H   UNL     1       0.483   0.347  -1.710  0.00  0.00    +0.154 HD
BRANCH  26  28
ATOM     28  O   UNL     1       2.342   0.345  -2.580  0.00  0.00    -0.314 OA
ATOM     29  H   UNL     1       2.047   0.338  -3.501  0.00  0.00    +0.236 HD
ENDBRANCH  26  28
ENDBRANCH  18  26
ENDBRANCH   6  18
TORSDOF 6
