REMARK  Name = ZINC00058716
REMARK  7 active torsions:
REMARK  status: ('A' for Active; 'I' for Inactive)
REMARK    1  A    between atoms: C_1  and  C_2
REMARK    2  A    between atoms: C_2  and  C_25
REMARK    3  A    between atoms: C_6  and  C_14
REMARK    4  A    between atoms: C_8  and  C_12
REMARK    5  A    between atoms: C_9  and  N_11
REMARK    6  A    between atoms: C_17  and  S_20
REMARK    7  A    between atoms: S_20  and  C_21
REMARK                            x       y       z     vdW  Elec       q    Type
REMARK                         _______ _______ _______ _____ _____    ______ ____
ROOT
ATOM      1  C   UNL     1      -0.076   3.741   2.199  0.00  0.00    +0.012 C 
ATOM      2  C   UNL     1      -0.124   4.219   0.746  0.00  0.00    -0.021 C 
ATOM      3  C   UNL     1       1.112   3.717  -0.002  0.00  0.00    +0.081 C 
ATOM      4  C   UNL     1       1.131   2.206   0.003  0.00  0.00    +0.115 C 
ATOM      5  C   UNL     1      -0.018   1.505   0.010  0.00  0.00    +0.046 C 
ATOM      6  C   UNL     1       0.002  -0.004   0.002  0.00  0.00    +0.101 C 
ATOM      7  C   UNL     1       1.351  -0.504   0.439  0.00  0.00    +0.098 C 
ATOM      8  C   UNL     1       2.428   0.318   0.413  0.00  0.00    +0.198 C 
ATOM      9  O   UNL     1       2.327   1.589  -0.006  0.00  0.00    -0.445 OA
ATOM     10  C   UNL     1      -1.270   2.151   0.032  0.00  0.00    +0.164 C 
ATOM     11  O   UNL     1      -2.285   1.485   0.024  0.00  0.00    -0.292 OA
ATOM     12  C   UNL     1      -1.371   3.652   0.059  0.00  0.00    +0.086 C 
ATOM     13  C   UNL     1      -0.162   5.748   0.709  0.00  0.00    +0.012 C 
ENDROOT
BRANCH   6  14
ATOM     14  C   UNL     1      -0.287  -0.500  -1.391  0.00  0.00    -0.034 A 
ATOM     15  C   UNL     1       0.543  -0.142  -2.437  0.00  0.00    +0.005 A 
ATOM     16  C   UNL     1       0.284  -0.599  -3.715  0.00  0.00    +0.015 A 
ATOM     17  C   UNL     1      -0.819  -1.411  -3.950  0.00  0.00    +0.008 A 
ATOM     18  C   UNL     1      -1.654  -1.764  -2.897  0.00  0.00    +0.015 A 
ATOM     19  C   UNL     1      -1.386  -1.308  -1.622  0.00  0.00    +0.005 A 
BRANCH  17  20
ATOM     20  S   UNL     1      -1.157  -1.990  -5.579  0.00  0.00    -0.129 S 
ATOM     21  C   UNL     1       0.177  -1.281  -6.583  0.00  0.00    +0.090 C 
ENDBRANCH  17  20
ENDBRANCH   6  14
BRANCH   8  22
ATOM     22  N   UNL     1       3.648  -0.160   0.823  0.00  0.00    -0.328 N 
ATOM     23  H   UNL     1       3.732  -1.077   1.127  0.00  0.00    +0.145 HD
ATOM     24  H   UNL     1       4.425   0.420   0.808  0.00  0.00    +0.145 HD
ENDBRANCH   8  22
BRANCH   7  25
ATOM     25  C   UNL     1       1.498  -1.856   0.887  0.00  0.00    +0.101 C 
ATOM     26  N   UNL     1       1.615  -2.929   1.242  0.00  0.00    -0.191 NA
ENDBRANCH   7  25
TORSDOF 4
