REMARK  Name = ZINC59224245
REMARK  7 active torsions:
REMARK  status: ('A' for Active; 'I' for Inactive)
REMARK    1  A    between atoms: C_1  and  C_2
REMARK    2  A    between atoms: C_7  and  N_8
REMARK    3  A    between atoms: C_14  and  C_15
REMARK    4  A    between atoms: C_18  and  O_23
REMARK    5  A    between atoms: C_20  and  O_21
REMARK    6  A    between atoms: O_21  and  C_22
REMARK    7  A    between atoms: O_23  and  C_24
REMARK                            x       y       z     vdW  Elec       q    Type
REMARK                         _______ _______ _______ _____ _____    ______ ____
ROOT
ATOM      1  N   UNL     1       1.148  -0.027   2.615  0.00  0.00    -0.225 NA
ATOM      2  C   UNL     1       0.835  -0.693   3.705  0.00  0.00    +0.166 C 
ATOM      3  N   UNL     1       0.906  -2.050   3.929  0.00  0.00    -0.260 N 
ATOM      4  C   UNL     1       0.548  -2.560   5.096  0.00  0.00    +0.256 C 
ATOM      5  O   UNL     1       0.605  -3.757   5.311  0.00  0.00    -0.269 OA
ATOM      6  C   UNL     1       0.079  -1.615   6.124  0.00  0.00    +0.078 C 
ATOM      7  C   UNL     1      -0.344  -1.859   7.392  0.00  0.00    +0.032 C 
ATOM      8  S   UNL     1       0.222  -0.058   5.257  0.00  0.00    -0.049 S 
ATOM      9  H   UNL     1       1.221  -2.638   3.225  0.00  0.00    +0.157 HD
ENDROOT
BRANCH   1  16
ATOM     10  C   UNL     1       3.539   0.830   1.342  0.00  0.00    +0.046 C 
ATOM     11  C   UNL     1       2.715  -0.321   0.827  0.00  0.00    -0.025 A 
ATOM     12  C   UNL     1       3.116  -1.008  -0.301  0.00  0.00    +0.007 A 
ATOM     13  C   UNL     1       2.361  -2.065  -0.776  0.00  0.00    +0.020 A 
ATOM     14  C   UNL     1       1.198  -2.442  -0.124  0.00  0.00    +0.043 A 
ATOM     15  C   UNL     1       0.786  -1.764   1.005  0.00  0.00    +0.048 A 
ATOM     16  C   UNL     1       1.547  -0.700   1.493  0.00  0.00    +0.071 A 
ATOM     17 CL   UNL     1       0.258  -3.770  -0.730  0.00  0.00    -0.083 Cl
ENDBRANCH   1  16
BRANCH   7  18
ATOM     18  C   UNL     1      -0.548  -0.747   8.324  0.00  0.00    +0.018 A 
ATOM     19  C   UNL     1       0.049   0.497   8.078  0.00  0.00    +0.015 A 
ATOM     20  C   UNL     1      -0.147   1.538   8.956  0.00  0.00    +0.046 A 
ATOM     21  C   UNL     1      -0.935   1.361  10.089  0.00  0.00    +0.124 A 
ATOM     22  C   UNL     1      -1.530   0.134  10.344  0.00  0.00    +0.091 A 
ATOM     23  C   UNL     1      -1.348  -0.920   9.467  0.00  0.00    +0.131 A 
BRANCH  23  24
ATOM     24  O   UNL     1      -1.936  -2.119   9.711  0.00  0.00    -0.494 OA
ATOM     25  C   UNL     1      -2.735  -2.221  10.892  0.00  0.00    +0.277 C 
ENDBRANCH  23  24
BRANCH  21  26
ATOM     26  O   UNL     1      -1.121   2.394  10.950  0.00  0.00    -0.495 OA
ATOM     27  C   UNL     1      -0.480   3.630  10.629  0.00  0.00    +0.277 C 
ENDBRANCH  21  26
ENDBRANCH   7  18
TORSDOF 4
