REMARK  Name = ZINC31854346
REMARK  4 active torsions:
REMARK  status: ('A' for Active; 'I' for Inactive)
REMARK    1  A    between atoms: C_5  and  C_7
REMARK    2  A    between atoms: N_8  and  N_9
REMARK    3  A    between atoms: C_12  and  C_15
REMARK    4  A    between atoms: C_19  and  N_21
REMARK                            x       y       z     vdW  Elec       q    Type
REMARK                         _______ _______ _______ _____ _____    ______ ____
ROOT
ATOM      1  N   UNL     1       2.289   8.771   1.395  0.00  0.00    -0.215 N 
ATOM      2  C   UNL     1       1.382   7.981   1.988  0.00  0.00    +0.178 A 
ATOM      3  N   UNL     1       1.587   6.978   2.846  0.00  0.00    -0.224 NA
ATOM      4  C   UNL     1       0.590   6.300   3.333  0.00  0.00    +0.080 A 
ATOM      5  C   UNL     1      -0.762   6.702   2.902  0.00  0.00    +0.077 A 
ATOM      6  S   UNL     1      -0.396   8.020   1.831  0.00  0.00    -0.059 S 
ATOM      7  H   UNL     1       3.353   8.681   1.660  0.00  0.00    +0.176 HD
ENDROOT
BRANCH   4   8
ATOM      8  C   UNL     1       0.800   5.186   4.276  0.00  0.00    +0.003 A 
ATOM      9  C   UNL     1      -0.296   4.480   4.787  0.00  0.00    +0.010 A 
ATOM     10  C   UNL     1      -0.090   3.437   5.664  0.00  0.00    +0.003 A 
ATOM     11  C   UNL     1       1.196   3.094   6.048  0.00  0.00    +0.033 A 
ATOM     12  C   UNL     1       2.285   3.787   5.548  0.00  0.00    +0.127 A 
ATOM     13  C   UNL     1       2.097   4.829   4.666  0.00  0.00    +0.042 A 
BRANCH  12  14
ATOM     14  N   UNL     1       3.655   3.408   5.960  0.00  0.00    +0.056 N 
ATOM     15  O   UNL     1       3.837   2.412   6.803  0.00  0.00    -0.126 OA
ATOM     16  O   UNL     1       4.692   4.066   5.485  0.00  0.00    -0.126 OA
ENDBRANCH  12  14
ENDBRANCH   4   8
BRANCH   1  18
ATOM     17  C   UNL     1       2.815  10.320  -0.163  0.00  0.00    +0.139 C 
ATOM     18  N   UNL     1       1.914   9.635   0.514  0.00  0.00    -0.188 NA
BRANCH  17  23
ATOM     19  C   UNL     1       5.665   7.973  -0.315  0.00  0.00    +0.001 A 
ATOM     20  C   UNL     1       6.719   8.851  -0.523  0.00  0.00    +0.001 A 
ATOM     21  C   UNL     1       6.492  10.214  -0.613  0.00  0.00    +0.016 A 
ATOM     22  C   UNL     1       5.211  10.711  -0.496  0.00  0.00    +0.027 A 
ATOM     23  C   UNL     1       4.138   9.824  -0.285  0.00  0.00    +0.008 A 
ATOM     24  C   UNL     1       4.388   8.444  -0.191  0.00  0.00    +0.010 A 
ATOM     25 BR   UNL     1       4.897  12.572  -0.618  0.00  0.00    -0.050 Br
ENDBRANCH  17  23
ENDBRANCH   1  18
TORSDOF 4
