REMARK  Name = ZINC12635480
REMARK  12 active torsions:
REMARK  status: ('A' for Active; 'I' for Inactive)
REMARK    1  A    between atoms: C_1  and  C_2
REMARK    2  A    between atoms: C_2  and  N_3
REMARK    3  A    between atoms: C_7  and  C_9
REMARK    4  A    between atoms: C_9  and  N_10
REMARK    5  A    between atoms: N_10  and  C_11
REMARK    6  A    between atoms: N_10  and  C_25
REMARK    7  A    between atoms: C_11  and  C_12
REMARK    8  A    between atoms: C_17  and  C_24
REMARK    9  A    between atoms: C_25  and  N_27
REMARK   10  A    between atoms: N_27  and  C_28
REMARK   11  A    between atoms: C_33  and  O_34
REMARK   12  A    between atoms: O_34  and  C_35
REMARK                            x       y       z     vdW  Elec       q    Type
REMARK                         _______ _______ _______ _____ _____    ______ ____
ROOT
ATOM      1  N   UNL     1      -1.521  -1.970  -2.873  0.00  0.00    -0.309 N 
ENDROOT
BRANCH   1   2
ATOM      2  C   UNL     1      -2.510  -2.621  -2.228  0.00  0.00    +0.137 C 
ATOM      3  S   UNL     1      -4.141  -2.164  -2.479  0.00  0.00    -0.018 S 
BRANCH   2   4
ATOM      4  N   UNL     1      -2.215  -3.631  -1.386  0.00  0.00    -0.294 N 
ATOM      5  H   UNL     1      -1.295  -3.921  -1.279  0.00  0.00    +0.154 HD
BRANCH   4   6
ATOM      6  C   UNL     1      -3.236  -4.262  -0.664  0.00  0.00    +0.075 A 
ATOM      7  C   UNL     1      -4.289  -3.517  -0.152  0.00  0.00    +0.027 A 
ATOM      8  C   UNL     1      -5.296  -4.142   0.559  0.00  0.00    +0.002 A 
ATOM      9  C   UNL     1      -5.257  -5.509   0.763  0.00  0.00    +0.004 A 
ATOM     10  C   UNL     1      -4.211  -6.258   0.256  0.00  0.00    +0.047 A 
ATOM     11  C   UNL     1      -3.201  -5.640  -0.463  0.00  0.00    +0.141 A 
BRANCH  11  12
ATOM     12  O   UNL     1      -2.174  -6.376  -0.966  0.00  0.00    -0.493 OA
ATOM     13  C   UNL     1      -2.203  -7.783  -0.721  0.00  0.00    +0.277 C 
ENDBRANCH  11  12
ENDBRANCH   4   6
ENDBRANCH   2   4
ENDBRANCH   1   2
BRANCH   1  14
ATOM     14  C   UNL     1      -0.126  -2.361  -2.658  0.00  0.00    +0.092 C 
BRANCH  14  19
ATOM     15  N   UNL     1       0.304  -0.214  -1.538  0.00  0.00    +0.382 N 
ATOM     16  C   UNL     1       1.663   0.363  -1.469  0.00  0.00    -0.078 C 
ATOM     17  C   UNL     1       2.497  -0.681  -0.685  0.00  0.00    -0.020 C 
ATOM     18  C   UNL     1       1.901  -2.014  -1.209  0.00  0.00    -0.016 C 
ATOM     19  C   UNL     1       0.407  -1.678  -1.397  0.00  0.00    -0.051 C 
ATOM     20  H   UNL     1      -0.115   0.013  -2.427  0.00  0.00    -0.081 HD
BRANCH  15  22
ATOM     21  C   UNL     1      -0.728   1.830  -0.669  0.00  0.00    -0.017 C 
ATOM     22  C   UNL     1      -0.520   0.331  -0.450  0.00  0.00    -0.082 C 
ENDBRANCH  15  22
ENDBRANCH  14  19
ENDBRANCH   1  14
BRANCH   1  23
ATOM     23  C   UNL     1      -1.842  -0.872  -3.788  0.00  0.00    +0.147 C 
BRANCH  23  24
ATOM     24  C   UNL     1      -2.153  -1.431  -5.153  0.00  0.00    +0.035 A 
ATOM     25  C   UNL     1      -3.440  -1.667  -5.508  0.00  0.00    +0.020 A 
ATOM     26  C   UNL     1      -3.709  -2.209  -6.841  0.00  0.00    -0.001 A 
ATOM     27  C   UNL     1      -5.016  -2.473  -7.265  0.00  0.00    +0.010 A 
ATOM     28  C   UNL     1      -5.233  -2.979  -8.515  0.00  0.00    +0.004 A 
ATOM     29  C   UNL     1      -4.168  -3.234  -9.369  0.00  0.00    -0.048 A 
ATOM     30  C   UNL     1      -2.873  -2.982  -8.973  0.00  0.00    +0.029 A 
ATOM     31  C   UNL     1      -2.627  -2.466  -7.704  0.00  0.00    +0.049 A 
ATOM     32  N   UNL     1      -1.341  -2.204  -7.282  0.00  0.00    -0.322 N 
ATOM     33  H   UNL     1      -0.597  -2.382  -7.878  0.00  0.00    +0.169 HD
ATOM     34  C   UNL     1      -1.104  -1.701  -6.058  0.00  0.00    +0.254 A 
ATOM     35  O   UNL     1       0.045  -1.477  -5.720  0.00  0.00    -0.268 OA
ATOM     36  C   UNL     1      -4.432  -3.792 -10.744  0.00  0.00    +0.044 C 
ENDBRANCH  23  24
ENDBRANCH   1  23
TORSDOF 9
