REMARK  Name = ZINC22473231
REMARK  9 active torsions:
REMARK  status: ('A' for Active; 'I' for Inactive)
REMARK    1  A    between atoms: C_4  and  C_7
REMARK    2  A    between atoms: C_7  and  N_8
REMARK    3  A    between atoms: N_8  and  C_9
REMARK    4  A    between atoms: C_9  and  C_10
REMARK    5  A    between atoms: C_10  and  C_11
REMARK    6  A    between atoms: C_11  and  N_12
REMARK    7  A    between atoms: C_15  and  O_16
REMARK    8  A    between atoms: C_24  and  C_26
REMARK    9  A    between atoms: C_26  and  C_27
REMARK                            x       y       z     vdW  Elec       q    Type
REMARK                         _______ _______ _______ _____ _____    ______ ____
ROOT
ATOM      1  N   UNL     1      -0.898   1.913   0.874  0.00  0.00    -0.297 N 
ATOM      2  C   UNL     1      -1.804   1.297   1.659  0.00  0.00    +0.220 C 
ATOM      3  O   UNL     1      -2.480   1.946   2.429  0.00  0.00    -0.275 OA
ENDROOT
BRANCH   1   4
ATOM      4  C   UNL     1      -0.160   1.147  -0.133  0.00  0.00    +0.142 C 
BRANCH   4   8
ATOM      5  C   UNL     1       3.613  -0.050   1.474  0.00  0.00    +0.000 A 
ATOM      6  C   UNL     1       2.533  -0.911   1.530  0.00  0.00    +0.000 A 
ATOM      7  C   UNL     1       1.312  -0.524   1.010  0.00  0.00    +0.005 A 
ATOM      8  C   UNL     1       1.171   0.725   0.434  0.00  0.00    -0.030 A 
ATOM      9  C   UNL     1       2.252   1.584   0.373  0.00  0.00    +0.005 A 
ATOM     10  C   UNL     1       3.472   1.199   0.897  0.00  0.00    +0.000 A 
ENDBRANCH   4   8
ENDBRANCH   1   4
BRANCH   1  11
ATOM     11  C   UNL     1      -0.653   3.349   1.026  0.00  0.00    +0.110 C 
BRANCH  11  12
ATOM     12  C   UNL     1      -1.599   4.129   0.110  0.00  0.00    +0.040 C 
BRANCH  12  13
ATOM     13  C   UNL     1      -1.342   5.629   0.270  0.00  0.00    +0.114 C 
BRANCH  13  14
ATOM     14  N   UNL     1      -2.248   6.375  -0.607  0.00  0.00    -0.384 N 
ATOM     15  C   UNL     1      -2.201   7.751  -0.635  0.00  0.00    +0.053 A 
ATOM     16  C   UNL     1      -1.315   8.444   0.149  0.00  0.00    +0.113 A 
ATOM     17  C   UNL     1      -1.291   9.844   0.099  0.00  0.00    +0.286 A 
ATOM     18  O   UNL     1      -2.116  10.539  -0.701  0.00  0.00    -0.425 OA
ATOM     19  C   UNL     1      -3.015   9.925  -1.501  0.00  0.00    +0.141 A 
ATOM     20  C   UNL     1      -3.096   8.524  -1.513  0.00  0.00    +0.041 A 
ATOM     21  C   UNL     1      -4.019   7.885  -2.343  0.00  0.00    +0.013 A 
ATOM     22  C   UNL     1      -4.842   8.637  -3.152  0.00  0.00    +0.001 A 
ATOM     23  C   UNL     1      -4.756  10.021  -3.144  0.00  0.00    +0.004 A 
ATOM     24  C   UNL     1      -3.857  10.665  -2.320  0.00  0.00    +0.047 A 
ATOM     25  H   UNL     1      -2.965   5.836  -1.244  0.00  0.00    +0.160 HD
BRANCH  17  26
ATOM     26  O   UNL     1      -0.499  10.448   0.801  0.00  0.00    -0.480 OA
ATOM     27  H   UNL     1      -0.467  11.547   0.774  0.00  0.00    +0.295 HD
ENDBRANCH  17  26
ENDBRANCH  13  14
ENDBRANCH  12  13
ENDBRANCH  11  12
ENDBRANCH   1  11
BRANCH   2  28
ATOM     28  C   UNL     1      -1.975  -0.198   1.581  0.00  0.00    +0.131 C 
BRANCH  28  29
ATOM     29  C   UNL     1      -3.040  -0.633   2.555  0.00  0.00    -0.039 A 
ATOM     30  C   UNL     1      -2.695  -0.977   3.848  0.00  0.00    +0.005 A 
ATOM     31  C   UNL     1      -3.673  -1.371   4.743  0.00  0.00    +0.020 A 
ATOM     32  C   UNL     1      -4.995  -1.431   4.340  0.00  0.00    +0.041 A 
ATOM     33  C   UNL     1      -5.339  -1.091   3.044  0.00  0.00    +0.020 A 
ATOM     34  C   UNL     1      -4.361  -0.693   2.152  0.00  0.00    +0.005 A 
ATOM     35 CL   UNL     1      -6.222  -1.931   5.462  0.00  0.00    -0.084 Cl
ENDBRANCH  28  29
ENDBRANCH   2  28
TORSDOF 9
