REMARK  Name = ZINC40445639
REMARK  2 active torsions:
REMARK  status: ('A' for Active; 'I' for Inactive)
REMARK    1  A    between atoms: C_3  and  C_9
REMARK    2  A    between atoms: C_9  and  N_10
REMARK                            x       y       z     vdW  Elec       q    Type
REMARK                         _______ _______ _______ _____ _____    ______ ____
ROOT
ATOM      1  C   UNL     1       3.671   2.187  -0.022  0.00  0.00    +0.181 C 
ENDROOT
BRANCH   1   2
ATOM      2  N   UNL     1       4.226   2.225   1.333  0.00  0.00    -0.264 N 
ATOM      3  C   UNL     1       5.466   1.830   1.695  0.00  0.00    +0.126 A 
ATOM      4  C   UNL     1       5.588   2.026   3.029  0.00  0.00    +0.086 A 
ATOM      5  C   UNL     1       4.382   2.558   3.498  0.00  0.00    +0.249 A 
ATOM      6  N   UNL     1       3.568   2.683   2.482  0.00  0.00    -0.145 NA
ATOM      7  N   UNL     1       4.082   2.922   4.901  0.00  0.00    +0.078 N 
ATOM      8  O   UNL     1       4.919   2.766   5.758  0.00  0.00    -0.125 OA
ATOM      9  O   UNL     1       2.999   3.377   5.189  0.00  0.00    -0.125 OA
ATOM     10 BR   UNL     1       7.118   1.645   4.074  0.00  0.00    -0.045 Br
ENDBRANCH   1   2
BRANCH   1  13
ATOM     11  C   UNL     1      -0.017   1.379   0.010  0.00  0.00    +0.016 A 
ATOM     12  C   UNL     1       1.171   2.087   0.002  0.00  0.00    +0.009 A 
ATOM     13  C   UNL     1       2.377   1.414  -0.013  0.00  0.00    +0.009 A 
ATOM     14  C   UNL     1       2.398   0.030  -0.021  0.00  0.00    +0.129 A 
ATOM     15  C   UNL     1       1.209  -0.679  -0.013  0.00  0.00    +0.054 A 
ATOM     16  C   UNL     1       0.002  -0.004   0.002  0.00  0.00    +0.021 A 
ATOM     17 BR   UNL     1      -1.623  -0.972   0.012  0.00  0.00    -0.050 Br
ATOM     18  F   UNL     1       3.577  -0.629  -0.036  0.00  0.00    -0.205 F 
ENDBRANCH   1  13
TORSDOF 2
