REMARK  Name = ZINC12245774
REMARK  4 active torsions:
REMARK  status: ('A' for Active; 'I' for Inactive)
REMARK    1  A    between atoms: C_5  and  N_7
REMARK    2  A    between atoms: C_11  and  C_14
REMARK    3  A    between atoms: N_16  and  C_17
REMARK    4  A    between atoms: N_27  and  C_30
REMARK                            x       y       z     vdW  Elec       q    Type
REMARK                         _______ _______ _______ _____ _____    ______ ____
ROOT
ATOM      1  C   UNL     1      -1.224   1.755   0.017  0.00  0.00    +0.003 A 
ATOM      2  C   UNL     1      -0.013   1.076   0.008  0.00  0.00    +0.014 A 
ATOM      3  C   UNL     1       1.176   1.784   0.000  0.00  0.00    +0.051 A 
ATOM      4  C   UNL     1       1.153   3.196   0.008  0.00  0.00    +0.070 A 
ATOM      5  C   UNL     1      -0.069   3.867   0.022  0.00  0.00    +0.043 A 
ATOM      6  C   UNL     1      -1.257   3.132   0.029  0.00  0.00    +0.024 A 
ATOM      7  C   UNL     1       2.562   3.624  -0.003  0.00  0.00    +0.256 C 
ATOM      8  O   UNL     1       2.953   4.774  -0.001  0.00  0.00    -0.269 OA
ATOM      9  N   UNL     1       3.344   2.529  -0.016  0.00  0.00    -0.231 N 
ATOM     10  C   UNL     1       2.604   1.405  -0.015  0.00  0.00    +0.254 C 
ATOM     11  O   UNL     1       3.037   0.271  -0.025  0.00  0.00    -0.270 OA
ENDROOT
BRANCH   9  12
ATOM     12  C   UNL     1       4.808   2.557  -0.029  0.00  0.00    +0.085 C 
ATOM     13  C   UNL     1       5.321   1.853  -1.287  0.00  0.00    +0.023 C 
ATOM     14  C   UNL     1       6.790   2.216  -1.512  0.00  0.00    +0.002 C 
ATOM     15  C   UNL     1       6.984   3.717  -1.292  0.00  0.00    +0.000 C 
ATOM     16  C   UNL     1       7.848   3.943  -0.050  0.00  0.00    +0.000 C 
ATOM     17  C   UNL     1       7.007   3.704   1.206  0.00  0.00    +0.000 C 
ATOM     18  C   UNL     1       6.816   2.201   1.414  0.00  0.00    +0.002 C 
ATOM     19  C   UNL     1       5.343   1.839   1.212  0.00  0.00    +0.023 C 
ENDBRANCH   9  12
BRANCH   5  20
ATOM     20  N   UNL     1      -0.105   5.253   0.029  0.00  0.00    -0.329 N 
ATOM     21  C   UNL     1      -0.731   5.769  -1.195  0.00  0.00    +0.105 C 
ATOM     22  C   UNL     1      -0.623   7.296  -1.220  0.00  0.00    +0.020 C 
ATOM     23  C   UNL     1      -1.320   7.873   0.015  0.00  0.00    +0.016 C 
ATOM     24  C   UNL     1      -0.681   7.282   1.275  0.00  0.00    +0.092 C 
ATOM     25  C   UNL     1      -0.787   5.756   1.228  0.00  0.00    +0.117 C 
BRANCH  24  26
ATOM     26  C   UNL     1      -1.400   7.799   2.494  0.00  0.00    +0.218 C 
ATOM     27  O   UNL     1      -1.941   7.024   3.253  0.00  0.00    -0.275 OA
ATOM     28  N   UNL     1      -1.441   9.124   2.741  0.00  0.00    -0.311 N 
ATOM     29  H   UNL     1      -1.008   9.744   2.134  0.00  0.00    +0.149 HD
BRANCH  28  30
ATOM     30  C   UNL     1      -2.140   9.626   3.926  0.00  0.00    +0.095 C 
ATOM     31  C   UNL     1      -2.587  11.077   3.679  0.00  0.00    +0.046 C 
ATOM     32  C   UNL     1      -3.037  11.684   5.038  0.00  0.00    +0.168 C 
ATOM     33  S   UNL     1      -1.742  11.002   6.157  0.00  0.00    -0.029 S 
ATOM     34  O   UNL     1      -0.676  11.936   6.254  0.00  0.00    -0.174 OA
ATOM     35  O   UNL     1      -2.361  10.522   7.343  0.00  0.00    -0.174 OA
ATOM     36  C   UNL     1      -1.190   9.568   5.147  0.00  0.00    +0.188 C 
ENDBRANCH  28  30
ENDBRANCH  24  26
ENDBRANCH   5  20
TORSDOF 4
