REMARK  Name = ZINC25638644
REMARK  5 active torsions:
REMARK  status: ('A' for Active; 'I' for Inactive)
REMARK    1  A    between atoms: C_3  and  S_6
REMARK    2  A    between atoms: S_6  and  N_9
REMARK    3  A    between atoms: N_9  and  C_10
REMARK    4  A    between atoms: C_17  and  C_19
REMARK    5  A    between atoms: C_19  and  N_20
REMARK                            x       y       z     vdW  Elec       q    Type
REMARK                         _______ _______ _______ _____ _____    ______ ____
ROOT
ATOM      1  C   UNL     1       5.749   2.544   1.848  0.00  0.00    +0.174 A 
ATOM      2  C   UNL     1       6.170   2.677   3.201  0.00  0.00    +0.054 A 
ATOM      3  C   UNL     1       5.421   2.393   4.426  0.00  0.00    -0.025 A 
ATOM      4  C   UNL     1       6.058   2.606   5.596  0.00  0.00    -0.004 A 
ATOM      5  S   UNL     1       7.670   3.190   5.145  0.00  0.00    -0.073 S 
ATOM      6  C   UNL     1       7.486   3.148   3.381  0.00  0.00    +0.114 A 
ATOM      7  N   UNL     1       8.260   3.442   2.354  0.00  0.00    -0.227 NA
ATOM      8  C   UNL     1       7.814   3.298   1.122  0.00  0.00    +0.116 A 
ATOM      9  N   UNL     1       6.593   2.855   0.878  0.00  0.00    -0.215 NA
ATOM     10  C   UNL     1       5.516   2.395   6.976  0.00  0.00    +0.043 C 
ATOM     11  C   UNL     1       3.990   2.249   6.881  0.00  0.00    +0.005 C 
ATOM     12  C   UNL     1       3.661   1.256   5.763  0.00  0.00    +0.005 C 
ATOM     13  C   UNL     1       3.985   1.878   4.404  0.00  0.00    +0.037 C 
ENDROOT
BRANCH   1  14
ATOM     14  N   UNL     1       4.477   2.089   1.552  0.00  0.00    -0.077 NA
BRANCH  14  15
ATOM     15  S   UNL     1       4.001   1.932  -0.026  0.00  0.00    +0.099 S 
ATOM     16  O   UNL     1       4.799   0.900  -0.590  0.00  0.00    -0.148 OA
ATOM     17  O   UNL     1       3.957   3.244  -0.570  0.00  0.00    -0.148 OA
BRANCH  15  20
ATOM     18  C   UNL     1      -0.016   1.351   0.009  0.00  0.00    +0.010 A 
ATOM     19  C   UNL     1       1.183   2.038   0.002  0.00  0.00    +0.037 A 
ATOM     20  C   UNL     1       2.343   1.336  -0.013  0.00  0.00    +0.148 A 
ATOM     21  S   UNL     1       1.754  -0.349  -0.017  0.00  0.00    -0.077 S 
ATOM     22  C   UNL     1       0.002  -0.004   0.002  0.00  0.00    +0.047 A 
ENDBRANCH  15  20
ENDBRANCH  14  15
ENDBRANCH   1  14
BRANCH   8  23
ATOM     23  C   UNL     1       8.718   3.641  -0.034  0.00  0.00    -0.001 C 
BRANCH  23  24
ATOM     24  N   UNL     1       9.481   2.449  -0.429  0.00  0.00    +0.384 N 
ATOM     25  C   UNL     1       8.560   1.425  -0.936  0.00  0.00    -0.078 C 
ATOM     26  C   UNL     1       9.340   0.153  -1.272  0.00  0.00    -0.019 C 
ATOM     27  C   UNL     1      10.390   0.472  -2.341  0.00  0.00    -0.004 C 
ATOM     28  C   UNL     1      11.299   1.593  -1.830  0.00  0.00    -0.019 C 
ATOM     29  C   UNL     1      10.446   2.812  -1.473  0.00  0.00    -0.078 C 
ATOM     30  H   UNL     1       9.975   2.087   0.373  0.00  0.00    -0.081 HD
ENDBRANCH  23  24
ENDBRANCH   8  23
TORSDOF 5
