REMARK  Name = ZINC41161256
REMARK  3 active torsions:
REMARK  status: ('A' for Active; 'I' for Inactive)
REMARK    1  A    between atoms: C_6  and  C_7
REMARK    2  A    between atoms: C_7  and  C_8
REMARK    3  A    between atoms: C_12  and  C_14
REMARK                            x       y       z     vdW  Elec       q    Type
REMARK                         _______ _______ _______ _____ _____    ______ ____
ROOT
ATOM      1  C   UNL     1      -1.738  -1.024  -1.408  0.00  0.00    +0.129 A 
ATOM      2  N   UNL     1      -1.345  -2.044  -2.191  0.00  0.00    -0.262 N 
ATOM      3  H   UNL     1      -0.727  -2.753  -1.955  0.00  0.00    +0.190 HD
ATOM      4  N   UNL     1      -2.007  -1.878  -3.418  0.00  0.00    -0.157 NA
ATOM      5  C   UNL     1      -2.740  -0.801  -3.309  0.00  0.00    +0.154 A 
ATOM      6  N   UNL     1      -2.579  -0.290  -2.089  0.00  0.00    -0.216 NA
ENDROOT
BRANCH   5   7
ATOM      7  C   UNL     1      -3.628  -0.233  -4.387  0.00  0.00    +0.059 C 
ATOM      8  C   UNL     1      -4.656  -1.291  -4.836  0.00  0.00    +0.011 C 
ATOM      9  C   UNL     1      -4.790  -1.066  -6.363  0.00  0.00    +0.001 C 
ATOM     10  C   UNL     1      -3.338  -0.735  -6.788  0.00  0.00    +0.001 C 
ATOM     11  C   UNL     1      -2.789   0.120  -5.628  0.00  0.00    +0.011 C 
ENDBRANCH   5   7
BRANCH   1  12
ATOM     12  C   UNL     1      -1.293  -0.775   0.010  0.00  0.00    +0.110 C 
BRANCH  12  18
ATOM     13  C   UNL     1      -0.017   1.378   0.010  0.00  0.00    +0.005 A 
ATOM     14  C   UNL     1       1.171   2.086   0.002  0.00  0.00    +0.015 A 
ATOM     15  C   UNL     1       2.378   1.411  -0.013  0.00  0.00    +0.018 A 
ATOM     16  C   UNL     1       2.396   0.027  -0.021  0.00  0.00    +0.015 A 
ATOM     17  C   UNL     1       1.208  -0.679  -0.013  0.00  0.00    +0.005 A 
ATOM     18  C   UNL     1       0.002  -0.004   0.002  0.00  0.00    -0.040 A 
ATOM     19 BR   UNL     1       4.003   2.378  -0.024  0.00  0.00    -0.050 Br
ENDBRANCH  12  18
ENDBRANCH   1  12
TORSDOF 3
