REMARK  Name = ZINC43093768
REMARK  8 active torsions:
REMARK  status: ('A' for Active; 'I' for Inactive)
REMARK    1  A    between atoms: C_1  and  C_2
REMARK    2  A    between atoms: C_2  and  C_4
REMARK    3  A    between atoms: C_2  and  N_21
REMARK    4  A    between atoms: C_4  and  C_6
REMARK    5  A    between atoms: C_4  and  N_13
REMARK    6  A    between atoms: C_17  and  C_18
REMARK    7  A    between atoms: C_18  and  C_19
REMARK    8  A    between atoms: C_18  and  C_20
REMARK                            x       y       z     vdW  Elec       q    Type
REMARK                         _______ _______ _______ _____ _____    ______ ____
ROOT
ATOM      1  C   UNL     1       0.742  -0.511   1.242  0.00  0.00    +0.105 C 
ENDROOT
BRANCH   1   2
ATOM      2  C   UNL     1       0.037  -0.025   2.481  0.00  0.00    -0.012 A 
ATOM      3  C   UNL     1      -1.278  -0.383   2.714  0.00  0.00    +0.007 A 
ATOM      4  C   UNL     1      -1.925   0.063   3.851  0.00  0.00    +0.000 A 
ATOM      5  C   UNL     1      -1.258   0.866   4.757  0.00  0.00    +0.001 A 
ATOM      6  C   UNL     1       0.057   1.224   4.526  0.00  0.00    +0.015 A 
ATOM      7  C   UNL     1       0.707   0.774   3.390  0.00  0.00    +0.023 A 
ATOM      8 BR   UNL     1       2.507   1.258   3.076  0.00  0.00    -0.050 Br
ENDBRANCH   1   2
BRANCH   1   9
ATOM      9  N   UNL     1       0.762  -1.976   1.234  0.00  0.00    -0.330 N 
ATOM     10  C   UNL     1      -0.329  -2.803   1.234  0.00  0.00    +0.105 A 
ATOM     11  C   UNL     1       0.140  -4.065   1.224  0.00  0.00    +0.101 A 
ATOM     12  N   UNL     1       1.480  -4.011   1.218  0.00  0.00    -0.349 N 
ATOM     13  C   UNL     1       1.860  -2.762   1.219  0.00  0.00    +0.090 A 
ATOM     14  H   UNL     1       2.073  -4.778   1.211  0.00  0.00    +0.166 HD
BRANCH  13  15
ATOM     15  C   UNL     1       3.287  -2.278   1.208  0.00  0.00    +0.047 C 
ATOM     16  C   UNL     1       4.157  -3.238   2.022  0.00  0.00    +0.015 C 
ATOM     17  C   UNL     1       3.797  -2.225  -0.233  0.00  0.00    +0.015 C 
ENDBRANCH  13  15
ENDBRANCH   1   9
BRANCH   1  19
ATOM     18  C   UNL     1      -0.019   1.526   0.010  0.00  0.00    -0.012 C 
ATOM     19  C   UNL     1       0.002  -0.004   0.002  0.00  0.00    -0.050 C 
BRANCH  19  20
ATOM     20  N   UNL     1       0.690  -0.478  -1.207  0.00  0.00    +0.381 N 
ATOM     21  H   UNL     1       1.636  -0.129  -1.214  0.00  0.00    -0.090 HD
ATOM     22  H   UNL     1       0.703  -1.487  -1.212  0.00  0.00    -0.090 HD
ATOM     23  H   UNL     1       0.202  -0.144  -2.024  0.00  0.00    -0.090 HD
ENDBRANCH  19  20
ENDBRANCH   1  19
TORSDOF 5
