REMARK  Name = ZINC12502756
REMARK  9 active torsions:
REMARK  status: ('A' for Active; 'I' for Inactive)
REMARK    1  A    between atoms: C_4  and  C_7
REMARK    2  A    between atoms: C_7  and  C_8
REMARK    3  A    between atoms: C_7  and  C_14
REMARK    4  A    between atoms: N_16  and  C_17
REMARK    5  A    between atoms: C_17  and  N_19
REMARK    6  A    between atoms: N_19  and  N_20
REMARK    7  A    between atoms: C_21  and  C_23
REMARK    8  A    between atoms: C_23  and  O_24
REMARK    9  A    between atoms: O_24  and  C_25
REMARK                            x       y       z     vdW  Elec       q    Type
REMARK                         _______ _______ _______ _____ _____    ______ ____
ROOT
ATOM      1  C   UNL     1      -0.823  -0.178   3.622  0.00  0.00    +0.153 C 
ATOM      2  S   UNL     1      -2.341  -0.969   3.594  0.00  0.00    -0.017 S 
ENDROOT
BRANCH   1   5
ATOM      3  C   UNL     1      -0.722  -0.290   1.292  0.00  0.00    +0.230 C 
ATOM      4  O   UNL     1      -1.798  -0.850   1.273  0.00  0.00    -0.274 OA
ATOM      5  N   UNL     1      -0.175   0.077   2.468  0.00  0.00    -0.266 N 
ATOM      6  H   UNL     1       0.685   0.525   2.483  0.00  0.00    +0.157 HD
BRANCH   3   7
ATOM      7  C   UNL     1       0.002  -0.004   0.002  0.00  0.00    +0.135 C 
BRANCH   7  11
ATOM      8  C   UNL     1       0.585   4.208  -0.402  0.00  0.00    +0.000 A 
ATOM      9  C   UNL     1       1.655   3.346  -0.545  0.00  0.00    +0.000 A 
ATOM     10  C   UNL     1       1.467   1.983  -0.414  0.00  0.00    +0.005 A 
ATOM     11  C   UNL     1       0.208   1.482  -0.140  0.00  0.00    -0.031 A 
ATOM     12  C   UNL     1      -0.864   2.344  -0.003  0.00  0.00    +0.005 A 
ATOM     13  C   UNL     1      -0.675   3.708  -0.129  0.00  0.00    +0.000 A 
ENDBRANCH   7  11
BRANCH   7  14
ATOM     14  C   UNL     1      -0.817  -0.511  -1.157  0.00  0.00    -0.031 A 
ATOM     15  C   UNL     1      -2.134  -0.116  -1.298  0.00  0.00    +0.005 A 
ATOM     16  C   UNL     1      -2.884  -0.577  -2.364  0.00  0.00    +0.000 A 
ATOM     17  C   UNL     1      -2.320  -1.442  -3.283  0.00  0.00    +0.000 A 
ATOM     18  C   UNL     1      -1.005  -1.842  -3.138  0.00  0.00    +0.000 A 
ATOM     19  C   UNL     1      -0.253  -1.376  -2.076  0.00  0.00    +0.005 A 
ENDBRANCH   7  14
ENDBRANCH   3   7
ENDBRANCH   1   5
BRANCH   1  20
ATOM     20  N   UNL     1      -0.275   0.189   4.798  0.00  0.00    -0.245 N 
ATOM     21  H   UNL     1      -0.742   0.005   5.628  0.00  0.00    +0.172 HD
BRANCH  20  22
ATOM     22  N   UNL     1       0.967   0.836   4.820  0.00  0.00    -0.232 N 
ATOM     23  C   UNL     1       1.514   1.203   5.996  0.00  0.00    +0.267 C 
ATOM     24  O   UNL     1       0.931   0.974   7.034  0.00  0.00    -0.271 OA
ATOM     25  H   UNL     1       1.433   1.020   3.990  0.00  0.00    +0.173 HD
BRANCH  23  26
ATOM     26  C   UNL     1       2.851   1.899   6.020  0.00  0.00    +0.326 C 
BRANCH  26  27
ATOM     27  O   UNL     1       3.215   2.184   7.372  0.00  0.00    -0.482 OA
BRANCH  27  28
ATOM     28  C   UNL     1       4.401   2.814   7.571  0.00  0.00    +0.129 A 
ATOM     29  C   UNL     1       5.190   3.149   6.506  0.00  0.00    +0.046 A 
ATOM     30  C   UNL     1       6.409   3.795   6.694  0.00  0.00    +0.004 A 
ATOM     31  C   UNL     1       6.851   4.113   7.942  0.00  0.00    +0.009 A 
ATOM     32  C   UNL     1       6.069   3.785   9.063  0.00  0.00    -0.014 A 
ATOM     33  C   UNL     1       4.825   3.133   8.877  0.00  0.00    +0.024 A 
ATOM     34  C   UNL     1       4.047   2.802   9.998  0.00  0.00    +0.012 A 
ATOM     35  C   UNL     1       4.491   3.120  11.245  0.00  0.00    +0.001 A 
ATOM     36  C   UNL     1       5.712   3.766  11.428  0.00  0.00    +0.001 A 
ATOM     37  C   UNL     1       6.495   4.098  10.366  0.00  0.00    +0.008 A 
ENDBRANCH  27  28
ENDBRANCH  26  27
ENDBRANCH  23  26
ENDBRANCH  20  22
ENDBRANCH   1  20
TORSDOF 9
