REMARK  Name = ZINC57326639
REMARK  7 active torsions:
REMARK  status: ('A' for Active; 'I' for Inactive)
REMARK    1  A    between atoms: C_1  and  C_2
REMARK    2  A    between atoms: C_2  and  C_3
REMARK    3  A    between atoms: C_3  and  C_4
REMARK    4  A    between atoms: C_4  and  N_5
REMARK    5  A    between atoms: C_13  and  S_14
REMARK    6  A    between atoms: S_14  and  C_15
REMARK    7  A    between atoms: C_15  and  C_16
REMARK                            x       y       z     vdW  Elec       q    Type
REMARK                         _______ _______ _______ _____ _____    ______ ____
ROOT
ATOM      1  N   UNL     1       1.471  -2.526   2.420  0.00  0.00    -0.319 N 
ATOM      2  C   UNL     1       2.830  -2.777   2.521  0.00  0.00    +0.069 A 
ATOM      3  C   UNL     1       3.895  -2.673   1.638  0.00  0.00    +0.028 A 
ATOM      4  C   UNL     1       5.167  -3.008   2.054  0.00  0.00    +0.002 A 
ATOM      5  C   UNL     1       5.389  -3.450   3.350  0.00  0.00    +0.002 A 
ATOM      6  C   UNL     1       4.343  -3.559   4.240  0.00  0.00    +0.030 A 
ATOM      7  C   UNL     1       3.049  -3.223   3.834  0.00  0.00    +0.090 A 
ATOM      8  N   UNL     1       1.845  -3.225   4.463  0.00  0.00    -0.222 NA
ATOM      9  C   UNL     1       0.916  -2.810   3.636  0.00  0.00    +0.170 A 
ENDROOT
BRANCH   1  10
ATOM     10  C   UNL     1       0.763  -2.041   1.233  0.00  0.00    +0.124 C 
BRANCH  10  11
ATOM     11  C   UNL     1       0.742  -0.511   1.242  0.00  0.00    +0.021 C 
BRANCH  11  13
ATOM     12  C   UNL     1      -0.019   1.526   0.010  0.00  0.00    +0.004 C 
ATOM     13  C   UNL     1       0.002  -0.004   0.002  0.00  0.00    -0.002 C 
ENDBRANCH  11  13
ENDBRANCH  10  11
ENDBRANCH   1  10
BRANCH   9  14
ATOM     14  S   UNL     1      -0.793  -2.648   4.031  0.00  0.00    -0.080 S 
BRANCH  14  15
ATOM     15  C   UNL     1      -0.894  -3.168   5.766  0.00  0.00    +0.151 C 
BRANCH  15  16
ATOM     16  C   UNL     1      -2.322  -3.076   6.236  0.00  0.00    +0.118 A 
ATOM     17  N   UNL     1      -2.888  -1.975   6.800  0.00  0.00    -0.341 N 
ATOM     18  H   UNL     1      -2.450  -1.125   6.967  0.00  0.00    +0.167 HD
ATOM     19  C   UNL     1      -4.200  -2.290   7.090  0.00  0.00    +0.066 A 
ATOM     20  C   UNL     1      -5.258  -1.595   7.660  0.00  0.00    +0.028 A 
ATOM     21  C   UNL     1      -6.479  -2.215   7.814  0.00  0.00    +0.002 A 
ATOM     22  C   UNL     1      -6.657  -3.529   7.403  0.00  0.00    +0.002 A 
ATOM     23  C   UNL     1      -5.628  -4.228   6.840  0.00  0.00    +0.030 A 
ATOM     24  C   UNL     1      -4.381  -3.619   6.673  0.00  0.00    +0.089 A 
ATOM     25  N   UNL     1      -3.197  -4.036   6.157  0.00  0.00    -0.232 NA
ENDBRANCH  15  16
ENDBRANCH  14  15
ENDBRANCH   9  14
TORSDOF 6
