REMARK  Name = ZINC63794291
REMARK  13 active torsions:
REMARK  status: ('A' for Active; 'I' for Inactive)
REMARK    1  A    between atoms: C_1  and  O_2
REMARK    2  A    between atoms: O_2  and  C_3
REMARK    3  A    between atoms: C_5  and  C_13
REMARK    4  A    between atoms: C_7  and  O_11
REMARK    5  A    between atoms: C_8  and  O_9
REMARK    6  A    between atoms: O_9  and  C_10
REMARK    7  A    between atoms: O_11  and  C_12
REMARK    8  A    between atoms: C_13  and  C_14
REMARK    9  A    between atoms: C_14  and  C_15
REMARK   10  A    between atoms: N_17  and  C_18
REMARK   11  A    between atoms: C_18  and  C_19
REMARK   12  A    between atoms: C_19  and  C_21
REMARK   13  A    between atoms: C_19  and  C_27
REMARK                            x       y       z     vdW  Elec       q    Type
REMARK                         _______ _______ _______ _____ _____    ______ ____
ROOT
ATOM      1  C   UNL     1      -6.586   1.345  -1.390  0.00  0.00    +0.213 C 
ATOM      2  O   UNL     1      -7.090   1.668  -0.335  0.00  0.00    -0.276 OA
ATOM      3  N   UNL     1      -7.164   1.708  -2.552  0.00  0.00    -0.314 N 
ATOM      4  H   UNL     1      -6.760   1.449  -3.396  0.00  0.00    +0.149 HD
ENDROOT
BRANCH   1   5
ATOM      5  C   UNL     1      -5.313   0.539  -1.401  0.00  0.00    +0.100 C 
BRANCH   5   6
ATOM      6  C   UNL     1      -4.871   0.264   0.038  0.00  0.00    +0.044 C 
BRANCH   6   9
ATOM      7  C   UNL     1      -1.201  -0.638   0.010  0.00  0.00    +0.165 A 
ATOM      8  C   UNL     1      -2.375   0.101   0.019  0.00  0.00    +0.053 A 
ATOM      9  C   UNL     1      -3.598  -0.543   0.028  0.00  0.00    -0.040 A 
ATOM     10  C   UNL     1      -3.657  -1.924   0.027  0.00  0.00    +0.053 A 
ATOM     11  C   UNL     1      -2.488  -2.670   0.017  0.00  0.00    +0.165 A 
ATOM     12  C   UNL     1      -1.256  -2.027   0.003  0.00  0.00    +0.204 A 
BRANCH   7  14
ATOM     13  C   UNL     1      -0.017   1.425   0.010  0.00  0.00    +0.277 C 
ATOM     14  O   UNL     1       0.002  -0.004   0.002  0.00  0.00    -0.491 OA
ENDBRANCH   7  14
BRANCH  12  15
ATOM     15  O   UNL     1      -0.106  -2.755  -0.012  0.00  0.00    -0.488 OA
ATOM     16  C   UNL     1       0.454  -3.109   1.254  0.00  0.00    +0.277 C 
ENDBRANCH  12  15
BRANCH  11  17
ATOM     17  O   UNL     1      -2.547  -4.028   0.017  0.00  0.00    -0.491 OA
ATOM     18  C   UNL     1      -3.847  -4.621   0.026  0.00  0.00    +0.277 C 
ENDBRANCH  11  17
ENDBRANCH   6   9
ENDBRANCH   5   6
ENDBRANCH   1   5
BRANCH   3  19
ATOM     19  C   UNL     1      -8.401   2.491  -2.542  0.00  0.00    +0.116 C 
BRANCH  19  20
ATOM     20  C   UNL     1      -8.843   2.767  -3.981  0.00  0.00    +0.064 C 
BRANCH  20  21
ATOM     21  C   UNL     1     -10.178   3.466  -3.971  0.00  0.00    -0.033 C 
ATOM     22  C   UNL     1     -11.330   3.026  -4.527  0.00  0.00    -0.000 A 
ATOM     23  C   UNL     1     -11.672   1.812  -5.279  0.00  0.00    +0.010 A 
ATOM     24  C   UNL     1     -12.940   1.648  -5.718  0.00  0.00    +0.001 A 
ATOM     25  C   UNL     1     -13.934   2.606  -5.475  0.00  0.00    +0.002 A 
ATOM     26  C   UNL     1     -13.697   3.746  -4.792  0.00  0.00    +0.026 A 
ATOM     27  C   UNL     1     -12.398   4.022  -4.283  0.00  0.00    +0.043 A 
ATOM     28  N   UNL     1     -11.924   5.038  -3.603  0.00  0.00    -0.380 N 
ATOM     29  C   UNL     1     -10.502   4.798  -3.333  0.00  0.00    +0.145 C 
ATOM     30  H   UNL     1     -12.430   5.816  -3.322  0.00  0.00    +0.160 HD
ENDBRANCH  20  21
BRANCH  20  31
ATOM     31  C   UNL     1      -7.822   3.642  -4.661  0.00  0.00    -0.039 A 
ATOM     32  C   UNL     1      -7.535   4.894  -4.150  0.00  0.00    +0.004 A 
ATOM     33  C   UNL     1      -6.598   5.697  -4.774  0.00  0.00    +0.000 A 
ATOM     34  C   UNL     1      -5.949   5.248  -5.908  0.00  0.00    +0.000 A 
ATOM     35  C   UNL     1      -6.236   3.996  -6.419  0.00  0.00    +0.000 A 
ATOM     36  C   UNL     1      -7.169   3.191  -5.793  0.00  0.00    +0.004 A 
ENDBRANCH  20  31
ENDBRANCH  19  20
ENDBRANCH   3  19
TORSDOF 10
