REMARK  Name = ZINC13721604
REMARK  3 active torsions:
REMARK  status: ('A' for Active; 'I' for Inactive)
REMARK    1  A    between atoms: C_4  and  C_7
REMARK    2  A    between atoms: N_19  and  C_22
REMARK    3  A    between atoms: C_22  and  C_23
REMARK                            x       y       z     vdW  Elec       q    Type
REMARK                         _______ _______ _______ _____ _____    ______ ____
ROOT
ATOM      1  C   UNL     1       3.697  -0.687  -0.038  0.00  0.00    +0.067 A 
ATOM      2  C   UNL     1       4.086  -1.477   1.015  0.00  0.00    +0.027 A 
ATOM      3  C   UNL     1       5.354  -2.111   0.947  0.00  0.00    +0.019 A 
ATOM      4  C   UNL     1       5.718  -3.080   1.893  0.00  0.00    +0.015 A 
ATOM      5  C   UNL     1       6.922  -3.709   1.791  0.00  0.00    +0.047 A 
ATOM      6  C   UNL     1       7.805  -3.395   0.755  0.00  0.00    +0.130 A 
ATOM      7  C   UNL     1       7.471  -2.428  -0.177  0.00  0.00    +0.051 A 
ATOM      8  C   UNL     1       6.252  -1.772  -0.082  0.00  0.00    +0.147 A 
ATOM      9  O   UNL     1       5.932  -0.793  -0.963  0.00  0.00    -0.421 OA
ATOM     10  C   UNL     1       4.611  -0.587  -1.188  0.00  0.00    +0.345 A 
ATOM     11  O   UNL     1       4.193  -0.324  -2.301  0.00  0.00    -0.245 OA
ATOM     12  C   UNL     1       8.413  -2.080  -1.301  0.00  0.00    +0.130 C 
ATOM     13  N   UNL     1       9.762  -2.568  -0.983  0.00  0.00    -0.260 NA
ATOM     14  C   UNL     1       9.704  -3.976  -0.556  0.00  0.00    +0.319 C 
ATOM     15  O   UNL     1       8.995  -4.047   0.684  0.00  0.00    -0.476 OA
ENDROOT
BRANCH   1  19
ATOM     16  C   UNL     1      -0.017   1.379   0.010  0.00  0.00    +0.000 A 
ATOM     17  C   UNL     1       1.169   2.093   0.002  0.00  0.00    +0.001 A 
ATOM     18  C   UNL     1       2.377   1.427  -0.013  0.00  0.00    +0.009 A 
ATOM     19  C   UNL     1       2.403   0.033  -0.021  0.00  0.00    -0.011 A 
ATOM     20  C   UNL     1       1.205  -0.680  -0.013  0.00  0.00    +0.009 A 
ATOM     21  C   UNL     1       0.002  -0.004   0.002  0.00  0.00    +0.001 A 
ENDBRANCH   1  19
BRANCH  13  22
ATOM     22  C   UNL     1      10.665  -2.403  -2.130  0.00  0.00    +0.143 C 
BRANCH  22  23
ATOM     23  C   UNL     1      12.082  -2.681  -1.697  0.00  0.00    +0.055 A 
ATOM     24  C   UNL     1      12.618  -3.941  -1.881  0.00  0.00    +0.024 A 
ATOM     25  C   UNL     1      13.922  -4.186  -1.480  0.00  0.00    +0.003 A 
ATOM     26  C   UNL     1      14.642  -3.149  -0.905  0.00  0.00    +0.020 A 
ATOM     27  C   UNL     1      14.039  -1.915  -0.753  0.00  0.00    +0.111 A 
ATOM     28  N   UNL     1      12.797  -1.716  -1.152  0.00  0.00    -0.259 NA
ENDBRANCH  22  23
ENDBRANCH  13  22
TORSDOF 3
