REMARK  Name = ZINC36748513
REMARK  13 active torsions:
REMARK  status: ('A' for Active; 'I' for Inactive)
REMARK    1  A    between atoms: C_1  and  C_2
REMARK    2  A    between atoms: C_2  and  C_3
REMARK    3  A    between atoms: C_2  and  N_4
REMARK    4  A    between atoms: C_5  and  N_9
REMARK    5  A    between atoms: C_10  and  C_12
REMARK    6  A    between atoms: C_12  and  S_13
REMARK    7  A    between atoms: S_13  and  C_14
REMARK    8  A    between atoms: C_17  and  C_20
REMARK    9  A    between atoms: N_18  and  N_19
REMARK   10  A    between atoms: C_23  and  C_26
REMARK   11  A    between atoms: C_26  and  C_27
REMARK   12  A    between atoms: C_26  and  C_28
REMARK   13  A    between atoms: C_26  and  C_29
REMARK                            x       y       z     vdW  Elec       q    Type
REMARK                         _______ _______ _______ _____ _____    ______ ____
ROOT
ATOM      1  C   UNL     1      -1.586  -4.599  -6.547  0.00  0.00    +0.209 A 
ATOM      2  N   UNL     1      -0.334  -4.300  -6.814  0.00  0.00    -0.121 NA
ATOM      3  N   UNL     1       0.022  -4.841  -7.924  0.00  0.00    -0.127 NA
ATOM      4  C   UNL     1      -0.980  -5.519  -8.433  0.00  0.00    +0.182 A 
ATOM      5  N   UNL     1      -2.039  -5.389  -7.564  0.00  0.00    -0.224 N 
ENDROOT
BRANCH   4   6
ATOM      6  C   UNL     1      -0.970  -6.284  -9.699  0.00  0.00    +0.021 A 
ATOM      7  C   UNL     1      -2.172  -6.689 -10.282  0.00  0.00    +0.012 A 
ATOM      8  C   UNL     1      -2.156  -7.402 -11.463  0.00  0.00    +0.005 A 
ATOM      9  C   UNL     1      -0.952  -7.714 -12.070  0.00  0.00    -0.042 A 
ATOM     10  C   UNL     1       0.242  -7.316 -11.497  0.00  0.00    +0.005 A 
ATOM     11  C   UNL     1       0.240  -6.598 -10.319  0.00  0.00    +0.012 A 
BRANCH   9  12
ATOM     12  C   UNL     1      -0.943  -8.493 -13.360  0.00  0.00    -0.013 C 
ATOM     13  C   UNL     1      -1.707  -7.713 -14.432  0.00  0.00    +0.015 C 
ATOM     14  C   UNL     1       0.502  -8.704 -13.817  0.00  0.00    +0.015 C 
ATOM     15  C   UNL     1      -1.612  -9.851 -13.142  0.00  0.00    +0.015 C 
ENDBRANCH   9  12
ENDBRANCH   4   6
BRANCH   5  16
ATOM     16  N   UNL     1      -3.284  -5.936  -7.694  0.00  0.00    -0.295 N 
ATOM     17  H   UNL     1      -3.901  -5.315  -8.196  0.00  0.00    +0.163 HD
ATOM     18  H   UNL     1      -3.238  -6.839  -8.141  0.00  0.00    +0.163 HD
ENDBRANCH   5  16
BRANCH   1  19
ATOM     19  S   UNL     1      -2.506  -4.082  -5.137  0.00  0.00    -0.075 S 
BRANCH  19  20
ATOM     20  C   UNL     1      -1.333  -3.067  -4.195  0.00  0.00    +0.173 C 
BRANCH  20  22
ATOM     21  N   UNL     1      -1.318  -1.773  -2.087  0.00  0.00    -0.270 N 
ATOM     22  C   UNL     1      -2.002  -2.554  -2.946  0.00  0.00    +0.229 C 
ATOM     23  O   UNL     1      -3.157  -2.845  -2.713  0.00  0.00    -0.275 OA
ATOM     24  H   UNL     1      -0.395  -1.541  -2.273  0.00  0.00    +0.156 HD
BRANCH  21  26
ATOM     25  N   UNL     1      -1.372  -0.511   0.012  0.00  0.00    -0.248 N 
ATOM     26  C   UNL     1      -1.937  -1.299  -0.931  0.00  0.00    +0.123 A 
ATOM     27  C   UNL     1      -3.220  -1.544  -0.547  0.00  0.00    +0.065 A 
ATOM     28  C   UNL     1      -3.437  -0.885   0.666  0.00  0.00    +0.136 A 
ATOM     29  N   UNL     1      -2.332  -0.271   1.004  0.00  0.00    -0.178 NA
BRANCH  25  31
ATOM     30  C   UNL     1      -0.019   1.526   0.010  0.00  0.00    +0.032 C 
ATOM     31  C   UNL     1       0.002  -0.004   0.002  0.00  0.00    +0.103 C 
ATOM     32  C   UNL     1       0.742  -0.511   1.242  0.00  0.00    +0.032 C 
ENDBRANCH  25  31
ENDBRANCH  21  26
ENDBRANCH  20  22
ENDBRANCH  19  20
ENDBRANCH   1  19
TORSDOF 8
