REMARK  Name = ZINC11972133
REMARK  10 active torsions:
REMARK  status: ('A' for Active; 'I' for Inactive)
REMARK    1  A    between atoms: C_1  and  C_2
REMARK    2  A    between atoms: C_3  and  C_4
REMARK    3  A    between atoms: C_4  and  N_5
REMARK    4  A    between atoms: C_8  and  C_12
REMARK    5  A    between atoms: C_8  and  C_20
REMARK    6  A    between atoms: C_12  and  C_13
REMARK    7  A    between atoms: C_13  and  C_14
REMARK    8  A    between atoms: C_25  and  C_26
REMARK    9  A    between atoms: C_25  and  N_70
REMARK   10  A    between atoms: C_31  and  C_32
REMARK                            x       y       z     vdW  Elec       q    Type
REMARK                         _______ _______ _______ _____ _____    ______ ____
ROOT
ATOM      1  N   UNL     1      -3.180   3.832   3.790  0.00  0.00    -0.212 N 
ATOM      2  C   UNL     1      -4.046   4.606   3.106  0.00  0.00    +0.248 C 
ATOM      3  O   UNL     1      -4.952   4.236   2.391  0.00  0.00    -0.273 OA
ATOM      4  C   UNL     1      -3.651   6.036   3.417  0.00  0.00    +0.115 C 
ATOM      5  N   UNL     1      -2.501   5.888   4.326  0.00  0.00    -0.285 N 
ATOM      6  C   UNL     1      -2.306   4.567   4.487  0.00  0.00    +0.310 C 
ATOM      7  O   UNL     1      -1.431   4.094   5.185  0.00  0.00    -0.252 OA
ATOM      8  H   UNL     1      -1.988   6.604   4.732  0.00  0.00    +0.151 HD
ENDROOT
BRANCH   4   9
ATOM      9  C   UNL     1      -3.237   6.771   2.140  0.00  0.00    +0.018 C 
ATOM     10  C   UNL     1      -4.448   6.905   1.212  0.00  0.00    -0.013 C 
ATOM     11  C   UNL     1      -4.014   7.584  -0.089  0.00  0.00    -0.078 C 
ATOM     12  C   UNL     1      -1.774   6.683   0.119  0.00  0.00    -0.078 C 
ATOM     13  C   UNL     1      -2.141   5.976   1.426  0.00  0.00    -0.013 C 
ATOM     14  N   UNL     1      -2.975   6.758  -0.740  0.00  0.00    +0.382 N 
ATOM     15  H   UNL     1      -3.343   5.810  -0.880  0.00  0.00    -0.081 HD
BRANCH  14  16
ATOM     16  C   UNL     1      -2.621   7.334  -2.053  0.00  0.00    -0.042 C 
BRANCH  16  17
ATOM     17  C   UNL     1      -3.878   7.516  -2.864  0.00  0.00    -0.053 A 
ATOM     18  C   UNL     1      -4.395   8.779  -3.065  0.00  0.00    +0.002 A 
ATOM     19  C   UNL     1      -5.549   8.948  -3.810  0.00  0.00    +0.000 A 
ATOM     20  C   UNL     1      -6.193   7.852  -4.357  0.00  0.00    +0.001 A 
ATOM     21  C   UNL     1      -5.686   6.583  -4.164  0.00  0.00    +0.012 A 
ATOM     22  C   UNL     1      -4.519   6.407  -3.419  0.00  0.00    +0.019 A 
BRANCH  22  23
ATOM     23  C   UNL     1      -3.967   5.051  -3.213  0.00  0.00    +0.135 A 
ATOM     24  C   UNL     1      -4.632   3.992  -2.680  0.00  0.00    +0.050 A 
ATOM     25  C   UNL     1      -3.731   2.908  -2.676  0.00  0.00    +0.042 A 
ATOM     26  C   UNL     1      -2.571   3.357  -3.193  0.00  0.00    +0.196 A 
ATOM     27  O   UNL     1      -2.717   4.652  -3.517  0.00  0.00    -0.463 OA
ENDBRANCH  22  23
ENDBRANCH  16  17
ENDBRANCH  14  16
ENDBRANCH   4   9
BRANCH   1  28
ATOM     28  C   UNL     1      -3.199   2.368   3.777  0.00  0.00    +0.206 C 
BRANCH  28  31
ATOM     29  C   UNL     1      -0.810   0.992   0.718  0.00  0.00    +0.106 C 
ATOM     30  C   UNL     1      -1.664   1.484   1.812  0.00  0.00    -0.104 C 
ATOM     31  C   UNL     1      -2.345   1.876   2.684  0.00  0.00    -0.083 C 
ENDBRANCH  28  31
ENDBRANCH   1  28
BRANCH   4  32
ATOM     32  C   UNL     1      -4.798   6.771   4.115  0.00  0.00    +0.040 C 
BRANCH  32  33
ATOM     33  C   UNL     1      -5.069   6.120   5.473  0.00  0.00    +0.038 C 
BRANCH  33  34
ATOM     34  C   UNL     1      -6.198   6.845   6.160  0.00  0.00    -0.047 A 
ATOM     35  C   UNL     1      -5.928   7.914   6.993  0.00  0.00    +0.003 A 
ATOM     36  C   UNL     1      -6.964   8.581   7.619  0.00  0.00    +0.000 A 
ATOM     37  C   UNL     1      -8.269   8.172   7.421  0.00  0.00    +0.000 A 
ATOM     38  C   UNL     1      -8.539   7.099   6.593  0.00  0.00    +0.000 A 
ATOM     39  C   UNL     1      -7.504   6.435   5.962  0.00  0.00    +0.003 A 
ENDBRANCH  33  34
ENDBRANCH  32  33
ENDBRANCH   4  32
TORSDOF 9
