REMARK  Name = ZINC27248454
REMARK  11 active torsions:
REMARK  status: ('A' for Active; 'I' for Inactive)
REMARK    1  A    between atoms: C_1  and  O_2
REMARK    2  A    between atoms: O_2  and  C_3
REMARK    3  A    between atoms: C_6  and  C_9
REMARK    4  A    between atoms: C_9  and  C_10
REMARK    5  A    between atoms: C_9  and  C_18
REMARK    6  A    between atoms: C_9  and  O_33
REMARK    7  A    between atoms: C_13  and  O_16
REMARK    8  A    between atoms: O_16  and  C_17
REMARK    9  A    between atoms: C_18  and  C_20
REMARK   10  A    between atoms: C_18  and  C_26
REMARK   11  A    between atoms: C_20  and  N_21
REMARK                            x       y       z     vdW  Elec       q    Type
REMARK                         _______ _______ _______ _____ _____    ______ ____
ROOT
ATOM      1  C   UNL     1      -6.353  -0.162   2.077  0.00  0.00    +0.121 C 
ENDROOT
BRANCH   1   5
ATOM      2  C   UNL     1      -2.486   1.585   1.571  0.00  0.00    +0.120 A 
ATOM      3  C   UNL     1      -3.288   1.343   0.466  0.00  0.00    +0.046 A 
ATOM      4  C   UNL     1      -4.536   0.773   0.632  0.00  0.00    +0.010 A 
ATOM      5  C   UNL     1      -4.989   0.454   1.899  0.00  0.00    -0.011 A 
ATOM      6  C   UNL     1      -4.193   0.699   3.002  0.00  0.00    +0.010 A 
ATOM      7  C   UNL     1      -2.942   1.264   2.841  0.00  0.00    +0.046 A 
BRANCH   2   9
ATOM      8  C   UNL     1      -0.852   2.446   0.074  0.00  0.00    +0.277 C 
ATOM      9  O   UNL     1      -1.256   2.141   1.411  0.00  0.00    -0.495 OA
ENDBRANCH   2   9
ENDBRANCH   1   5
BRANCH   1  10
ATOM     10  C   UNL     1      -7.409   0.825   1.650  0.00  0.00    -0.011 A 
ATOM     11  C   UNL     1      -7.840   0.849   0.337  0.00  0.00    +0.010 A 
ATOM     12  C   UNL     1      -8.812   1.748  -0.056  0.00  0.00    +0.046 A 
ATOM     13  C   UNL     1      -9.348   2.635   0.867  0.00  0.00    +0.120 A 
ATOM     14  C   UNL     1      -8.910   2.612   2.183  0.00  0.00    +0.046 A 
ATOM     15  C   UNL     1      -7.941   1.707   2.572  0.00  0.00    +0.010 A 
BRANCH  13  16
ATOM     16  O   UNL     1     -10.302   3.524   0.482  0.00  0.00    -0.495 OA
ATOM     17  C   UNL     1     -10.705   3.490  -0.888  0.00  0.00    +0.277 C 
ENDBRANCH  13  16
ENDBRANCH   1  10
BRANCH   1  18
ATOM     18  O   UNL     1      -6.546  -0.502   3.452  0.00  0.00    -0.379 OA
ATOM     19  H   UNL     1      -7.489  -0.965   3.776  0.00  0.00    +0.211 HD
ENDBRANCH   1  18
BRANCH   1  20
ATOM     20  C   UNL     1      -6.458  -1.425   1.220  0.00  0.00    +0.043 C 
BRANCH  20  21
ATOM     21  C   UNL     1      -7.854  -1.985   1.320  0.00  0.00    -0.043 A 
ATOM     22  C   UNL     1      -8.354  -2.377   2.547  0.00  0.00    +0.005 A 
ATOM     23  C   UNL     1      -9.636  -2.885   2.640  0.00  0.00    +0.020 A 
ATOM     24  C   UNL     1     -10.414  -3.012   1.503  0.00  0.00    +0.041 A 
ATOM     25  C   UNL     1      -9.910  -2.625   0.275  0.00  0.00    +0.020 A 
ATOM     26  C   UNL     1      -8.630  -2.111   0.183  0.00  0.00    +0.005 A 
ATOM     27 CL   UNL     1     -12.022  -3.657   1.619  0.00  0.00    -0.084 Cl
ENDBRANCH  20  21
BRANCH  20  28
ATOM     28  C   UNL     1      -5.454  -2.466   1.719  0.00  0.00    -0.067 C 
BRANCH  28  29
ATOM     29  N   UNL     1      -5.502  -3.649   0.851  0.00  0.00    +0.380 N 
ATOM     30  C   UNL     1      -5.247  -3.281  -0.566  0.00  0.00    -0.079 C 
ATOM     31  C   UNL     1      -4.817  -4.623  -1.209  0.00  0.00    -0.020 C 
ATOM     32  C   UNL     1      -3.981  -5.290  -0.093  0.00  0.00    -0.020 C 
ATOM     33  C   UNL     1      -4.444  -4.616   1.213  0.00  0.00    -0.079 C 
ATOM     34  H   UNL     1      -6.505  -4.080   0.987  0.00  0.00    -0.082 HD
ENDBRANCH  28  29
ENDBRANCH  20  28
ENDBRANCH   1  20
TORSDOF 9
