REMARK  Name = ZINC36595401
REMARK  13 active torsions:
REMARK  status: ('A' for Active; 'I' for Inactive)
REMARK    1  A    between atoms: C_1  and  C_2
REMARK    2  A    between atoms: C_2  and  C_3
REMARK    3  A    between atoms: C_3  and  C_4
REMARK    4  A    between atoms: C_4  and  N_5
REMARK    5  A    between atoms: C_6  and  C_8
REMARK    6  A    between atoms: C_8  and  C_10
REMARK    7  A    between atoms: C_8  and  N_19
REMARK    8  A    between atoms: C_13  and  N_16
REMARK    9  A    between atoms: N_19  and  C_20
REMARK   10  A    between atoms: C_20  and  C_21
REMARK   11  A    between atoms: C_24  and  C_26
REMARK   12  A    between atoms: C_27  and  C_29
REMARK   13  A    between atoms: C_34  and  O_35
REMARK                            x       y       z     vdW  Elec       q    Type
REMARK                         _______ _______ _______ _____ _____    ______ ____
ROOT
ATOM      1  C   UNL     1       3.257  -3.867   4.411  0.00  0.00    +0.193 C 
ENDROOT
BRANCH   1   2
ATOM      2  C   UNL     1       2.915  -2.851   5.469  0.00  0.00    -0.018 A 
ATOM      3  C   UNL     1       1.633  -2.791   5.982  0.00  0.00    +0.008 A 
ATOM      4  C   UNL     1       1.319  -1.859   6.953  0.00  0.00    +0.033 A 
ATOM      5  C   UNL     1       2.288  -0.986   7.412  0.00  0.00    +0.126 A 
ATOM      6  C   UNL     1       3.571  -1.046   6.900  0.00  0.00    +0.033 A 
ATOM      7  C   UNL     1       3.885  -1.982   5.932  0.00  0.00    +0.008 A 
BRANCH   5   8
ATOM      8  N   UNL     1       1.952   0.013   8.451  0.00  0.00    +0.056 N 
ATOM      9  O   UNL     1       0.831   0.066   8.898  0.00  0.00    -0.126 OA
ATOM     10  O   UNL     1       2.800   0.777   8.852  0.00  0.00    -0.126 OA
ENDBRANCH   5   8
ENDBRANCH   1   2
BRANCH   1  12
ATOM     11  N   UNL     1       5.379  -2.781   3.752  0.00  0.00    -0.313 N 
ATOM     12  C   UNL     1       4.166  -3.239   3.386  0.00  0.00    +0.238 C 
ATOM     13  O   UNL     1       3.806  -3.147   2.232  0.00  0.00    -0.273 OA
ATOM     14  H   UNL     1       5.667  -2.855   4.676  0.00  0.00    +0.149 HD
BRANCH  11  15
ATOM     15  C   UNL     1       6.263  -2.170   2.756  0.00  0.00    +0.104 C 
BRANCH  15  16
ATOM     16  C   UNL     1       7.567  -1.738   3.428  0.00  0.00    +0.018 C 
BRANCH  16  18
ATOM     17  C   UNL     1       9.795  -0.668   3.060  0.00  0.00    +0.004 C 
ATOM     18  C   UNL     1       8.490  -1.101   2.388  0.00  0.00    -0.002 C 
ENDBRANCH  16  18
ENDBRANCH  15  16
ENDBRANCH  11  15
ENDBRANCH   1  12
BRANCH   1  19
ATOM     19  N   UNL     1       2.027  -4.325   3.758  0.00  0.00    -0.275 N 
ATOM     20  C   UNL     1       1.741  -5.641   3.707  0.00  0.00    +0.251 C 
ATOM     21  O   UNL     1       0.896  -6.050   2.934  0.00  0.00    -0.270 OA
BRANCH  20  22
ATOM     22  C   UNL     1       2.454  -6.586   4.588  0.00  0.00    +0.078 A 
ATOM     23  C   UNL     1       2.826  -6.199   5.878  0.00  0.00    +0.017 A 
ATOM     24  C   UNL     1       3.490  -7.086   6.696  0.00  0.00    +0.001 A 
ATOM     25  C   UNL     1       3.792  -8.361   6.246  0.00  0.00    +0.004 A 
ATOM     26  C   UNL     1       3.430  -8.756   4.974  0.00  0.00    +0.046 A 
ATOM     27  C   UNL     1       2.756  -7.878   4.138  0.00  0.00    +0.129 A 
BRANCH  27  28
ATOM     28  O   UNL     1       2.395  -8.267   2.890  0.00  0.00    -0.506 OA
ATOM     29  H   UNL     1       3.063  -8.089   2.214  0.00  0.00    +0.292 HD
ENDBRANCH  27  28
ENDBRANCH  20  22
BRANCH  19  30
ATOM     30  C   UNL     1       1.109  -3.352   3.161  0.00  0.00    +0.183 C 
BRANCH  30  31
ATOM     31  C   UNL     1       0.765  -3.781   1.758  0.00  0.00    +0.122 A 
ATOM     32  C   UNL     1      -0.268  -4.568   1.407  0.00  0.00    +0.046 A 
ATOM     33  C   UNL     1      -0.214  -4.712   0.002  0.00  0.00    +0.045 A 
ATOM     34  C   UNL     1       0.848  -4.004  -0.422  0.00  0.00    +0.102 A 
ATOM     35  O   UNL     1       1.434  -3.437   0.645  0.00  0.00    -0.463 OA
ATOM     36  C   UNL     1       1.301  -3.865  -1.853  0.00  0.00    +0.086 C 
ENDBRANCH  30  31
ENDBRANCH  19  30
ENDBRANCH   1  19
TORSDOF 11
