REMARK  Name = ZINC12512533
REMARK  11 active torsions:
REMARK  status: ('A' for Active; 'I' for Inactive)
REMARK    1  A    between atoms: C_1  and  C_2
REMARK    2  A    between atoms: C_2  and  C_3
REMARK    3  A    between atoms: C_2  and  C_4
REMARK    4  A    between atoms: C_2  and  C_33
REMARK    5  A    between atoms: C_4  and  N_64
REMARK    6  A    between atoms: C_5  and  N_64
REMARK    7  A    between atoms: N_16  and  C_19
REMARK    8  A    between atoms: C_19  and  C_20
REMARK    9  A    between atoms: C_29  and  O_30
REMARK   10  A    between atoms: O_30  and  C_31
REMARK   11  A    between atoms: C_33  and  O_34
REMARK                            x       y       z     vdW  Elec       q    Type
REMARK                         _______ _______ _______ _____ _____    ______ ____
ROOT
ATOM      1  C   UNL     1       1.414   2.064  -0.000  0.00  0.00    -0.067 C 
ATOM      2  C   UNL     1      -0.019   1.524   0.010  0.00  0.00    -0.011 C 
ATOM      3  C   UNL     1       0.002  -0.004   0.002  0.00  0.00    +0.035 C 
ATOM      4  C   UNL     1       0.873  -0.481  -1.157  0.00  0.00    -0.023 A 
ATOM      5  C   UNL     1       1.763   0.357  -1.738  0.00  0.00    -0.006 A 
ATOM      6  S   UNL     1       2.539  -0.601  -3.015  0.00  0.00    -0.073 S 
ATOM      7  C   UNL     1       1.672  -2.118  -2.768  0.00  0.00    +0.116 A 
ATOM      8  C   UNL     1       0.801  -1.828  -1.694  0.00  0.00    +0.076 A 
ATOM      9  C   UNL     1      -0.057  -2.888  -1.247  0.00  0.00    +0.263 A 
ATOM     10  O   UNL     1      -0.844  -2.741  -0.328  0.00  0.00    -0.267 OA
ATOM     11  N   UNL     1       0.064  -4.062  -1.912  0.00  0.00    -0.294 N 
ATOM     12  C   UNL     1       0.931  -4.246  -2.936  0.00  0.00    +0.203 A 
ATOM     13  N   UNL     1       1.734  -3.300  -3.374  0.00  0.00    -0.230 NA
ATOM     14  C   UNL     1       2.034   1.785  -1.377  0.00  0.00    +0.027 C 
ENDROOT
BRANCH   1  15
ATOM     15  N   UNL     1       1.389   3.519   0.246  0.00  0.00    +0.382 N 
ATOM     16  H   UNL     1       1.229   4.010  -0.641  0.00  0.00    -0.085 HD
ATOM     17  H   UNL     1       0.629   3.738   0.901  0.00  0.00    -0.085 HD
BRANCH  15  18
ATOM     18  C   UNL     1       2.672   3.962   0.823  0.00  0.00    -0.074 C 
BRANCH  18  20
ATOM     19  C   UNL     1       2.372   6.194  -0.259  0.00  0.00    +0.011 C 
ATOM     20  C   UNL     1       2.617   5.472   1.067  0.00  0.00    -0.027 C 
ATOM     21  C   UNL     1       1.478   5.790   2.039  0.00  0.00    +0.011 C 
BRANCH  20  22
ATOM     22  C   UNL     1       3.944   5.941   1.666  0.00  0.00    +0.160 C 
BRANCH  22  23
ATOM     23  O   UNL     1       3.892   7.351   1.894  0.00  0.00    -0.395 OA
ATOM     24  H   UNL     1       4.702   7.718   2.274  0.00  0.00    +0.209 HD
ENDBRANCH  22  23
ENDBRANCH  20  22
ENDBRANCH  18  20
ENDBRANCH  15  18
ENDBRANCH   1  15
BRANCH  11  25
ATOM     25  C   UNL     1      -0.785  -5.185  -1.506  0.00  0.00    +0.165 C 
BRANCH  25  26
ATOM     26  C   UNL     1      -0.078  -5.990  -0.446  0.00  0.00    +0.022 A 
ATOM     27  C   UNL     1       0.752  -7.063  -0.809  0.00  0.00    -0.010 A 
ATOM     28  C   UNL     1       0.953  -7.404  -2.158  0.00  0.00    +0.009 A 
ATOM     29  C   UNL     1       1.769  -8.446  -2.474  0.00  0.00    +0.001 A 
ATOM     30  C   UNL     1       2.414  -9.180  -1.480  0.00  0.00    +0.001 A 
ATOM     31  C   UNL     1       2.246  -8.876  -0.164  0.00  0.00    +0.008 A 
ATOM     32  C   UNL     1       1.412  -7.806   0.202  0.00  0.00    -0.017 A 
ATOM     33  C   UNL     1       1.216  -7.463   1.551  0.00  0.00    +0.012 A 
ATOM     34  C   UNL     1       0.402  -6.421   1.871  0.00  0.00    +0.046 A 
ATOM     35  C   UNL     1      -0.246  -5.684   0.875  0.00  0.00    +0.126 A 
BRANCH  35  36
ATOM     36  O   UNL     1      -1.054  -4.648   1.226  0.00  0.00    -0.495 OA
ATOM     37  C   UNL     1      -1.190  -4.376   2.622  0.00  0.00    +0.277 C 
ENDBRANCH  35  36
ENDBRANCH  25  26
ENDBRANCH  11  25
TORSDOF 8
