REMARK  Name = ZINC09079619
REMARK  10 active torsions:
REMARK  status: ('A' for Active; 'I' for Inactive)
REMARK    1  A    between atoms: C_1  and  N_2
REMARK    2  A    between atoms: N_2  and  C_3
REMARK    3  A    between atoms: N_2  and  C_4
REMARK    4  A    between atoms: C_7  and  C_10
REMARK    5  A    between atoms: C_10  and  C_12
REMARK    6  A    between atoms: C_10  and  S_26
REMARK    7  A    between atoms: C_12  and  N_13
REMARK    8  A    between atoms: C_14  and  C_16
REMARK    9  A    between atoms: C_17  and  C_18
REMARK   10  A    between atoms: S_26  and  C_29
REMARK                            x       y       z     vdW  Elec       q    Type
REMARK                         _______ _______ _______ _____ _____    ______ ____
ROOT
ATOM      1  C   UNL     1      -3.864   6.202   0.056  0.00  0.00    +0.183 C 
ENDROOT
BRANCH   1   5
ATOM      2  C   UNL     1      -3.919  10.476   0.078  0.00  0.00    +0.029 A 
ATOM      3  C   UNL     1      -4.528   9.777  -0.956  0.00  0.00    +0.023 A 
ATOM      4  C   UNL     1      -4.509   8.396  -0.960  0.00  0.00    +0.007 A 
ATOM      5  C   UNL     1      -3.884   7.709   0.064  0.00  0.00    -0.021 A 
ATOM      6  C   UNL     1      -3.281   8.402   1.098  0.00  0.00    +0.007 A 
ATOM      7  C   UNL     1      -3.292   9.783   1.105  0.00  0.00    +0.023 A 
BRANCH   2   9
ATOM      8  C   UNL     1      -4.488  12.604  -1.058  0.00  0.00    +0.129 C 
ATOM      9  N   UNL     1      -3.937  11.873   0.086  0.00  0.00    -0.336 N 
ATOM     10  C   UNL     1      -3.406  12.606   1.237  0.00  0.00    +0.129 C 
ENDBRANCH   2   9
ENDBRANCH   1   5
BRANCH   1  11
ATOM     11  S   UNL     1      -4.687   5.580   1.548  0.00  0.00    +0.011 S 
ATOM     12  O   UNL     1      -5.973   6.169   1.681  0.00  0.00    -0.168 OA
ATOM     13  O   UNL     1      -4.522   4.172   1.646  0.00  0.00    -0.168 OA
BRANCH  11  14
ATOM     14  C   UNL     1      -3.751   6.237   2.889  0.00  0.00    +0.126 A 
ATOM     15  C   UNL     1      -3.913   7.409   3.549  0.00  0.00    +0.035 A 
ATOM     16  C   UNL     1      -3.052   7.720   4.585  0.00  0.00    +0.009 A 
ATOM     17  C   UNL     1      -2.064   6.847   4.902  0.00  0.00    +0.047 A 
ATOM     18  S   UNL     1      -2.338   5.534   3.725  0.00  0.00    -0.078 S 
ENDBRANCH  11  14
ENDBRANCH   1  11
BRANCH   1  19
ATOM     19  C   UNL     1      -2.416   5.711   0.029  0.00  0.00    +0.135 C 
BRANCH  19  20
ATOM     20  N   UNL     1      -2.397   4.246   0.022  0.00  0.00    -0.310 N 
ATOM     21  C   UNL     1      -1.221   3.587  -0.001  0.00  0.00    +0.237 C 
ATOM     22  O   UNL     1      -0.175   4.209  -0.015  0.00  0.00    -0.271 OA
ATOM     23  H   UNL     1      -3.231   3.750   0.034  0.00  0.00    +0.149 HD
BRANCH  21  24
ATOM     24  C   UNL     1      -1.203   2.124  -0.008  0.00  0.00    +0.068 C 
ATOM     25  C   UNL     1      -0.026   1.465  -0.031  0.00  0.00    +0.013 C 
BRANCH  25  26
ATOM     26  C   UNL     1      -0.008  -0.007  -0.039  0.00  0.00    -0.023 A 
ATOM     27  C   UNL     1       1.211  -0.694  -0.068  0.00  0.00    +0.009 A 
ATOM     28  C   UNL     1       1.221  -2.072  -0.075  0.00  0.00    +0.022 A 
ATOM     29  C   UNL     1       0.029  -2.778  -0.052  0.00  0.00    +0.059 A 
ATOM     30  C   UNL     1      -1.182  -2.104  -0.023  0.00  0.00    +0.060 A 
ATOM     31  C   UNL     1      -1.207  -0.725  -0.011  0.00  0.00    +0.029 A 
ATOM     32 CL   UNL     1      -2.670  -2.998   0.005  0.00  0.00    -0.082 Cl
ATOM     33 CL   UNL     1       0.053  -4.514  -0.060  0.00  0.00    -0.082 Cl
ENDBRANCH  25  26
ENDBRANCH  21  24
ENDBRANCH  19  20
ENDBRANCH   1  19
TORSDOF 8
