REMARK  Name = ZINC32418375
REMARK  7 active torsions:
REMARK  status: ('A' for Active; 'I' for Inactive)
REMARK    1  A    between atoms: C_1  and  C_2
REMARK    2  A    between atoms: C_2  and  C_3
REMARK    3  A    between atoms: C_2  and  C_4
REMARK    4  A    between atoms: C_2  and  C_5
REMARK    5  A    between atoms: C_11  and  N_13
REMARK    6  A    between atoms: C_14  and  C_16
REMARK    7  A    between atoms: C_16  and  N_17
REMARK                            x       y       z     vdW  Elec       q    Type
REMARK                         _______ _______ _______ _____ _____    ______ ____
ROOT
ATOM      1  N   UNL     1       2.587  -1.283  -0.212  0.00  0.00    -0.311 N 
ATOM      2  C   UNL     1       3.788  -0.834   0.202  0.00  0.00    +0.231 C 
ATOM      3  O   UNL     1       4.343   0.059  -0.403  0.00  0.00    -0.274 OA
ATOM      4  H   UNL     1       2.143  -1.997   0.271  0.00  0.00    +0.149 HD
ENDROOT
BRANCH   1  10
ATOM      5  C   UNL     1       0.433  -0.671  -1.197  0.00  0.00    +0.015 C 
ATOM      6  C   UNL     1      -0.076  -2.101  -1.006  0.00  0.00    +0.006 C 
ATOM      7  C   UNL     1       0.268  -2.935  -2.242  0.00  0.00    +0.000 C 
ATOM      8  C   UNL     1       1.786  -2.955  -2.437  0.00  0.00    +0.002 C 
ATOM      9  C   UNL     1       2.295  -1.525  -2.628  0.00  0.00    +0.022 C 
ATOM     10  C   UNL     1       1.951  -0.692  -1.392  0.00  0.00    +0.077 C 
BRANCH   5  12
ATOM     11  C   UNL     1       0.742   1.542  -0.078  0.00  0.00    +0.011 C 
ATOM     12  C   UNL     1       0.089   0.163   0.039  0.00  0.00    -0.033 C 
ATOM     13  C   UNL     1       0.611  -0.544   1.292  0.00  0.00    +0.011 C 
ATOM     14  C   UNL     1      -1.429   0.324   0.139  0.00  0.00    +0.011 C 
ENDBRANCH   5  12
ENDBRANCH   1  10
BRANCH   2  15
ATOM     15  C   UNL     1       4.442  -1.442   1.416  0.00  0.00    +0.209 C 
BRANCH  15  16
ATOM     16  N   UNL     1       5.730  -0.786   1.657  0.00  0.00    -0.261 N 
ATOM     17  C   UNL     1       6.845  -1.340   1.032  0.00  0.00    +0.050 A 
ATOM     18  C   UNL     1       6.672  -2.140  -0.091  0.00  0.00    +0.024 A 
ATOM     19  C   UNL     1       7.766  -2.702  -0.720  0.00  0.00    +0.002 A 
ATOM     20  C   UNL     1       9.043  -2.475  -0.240  0.00  0.00    +0.001 A 
ATOM     21  C   UNL     1       9.230  -1.679   0.875  0.00  0.00    +0.016 A 
ATOM     22  C   UNL     1       8.137  -1.112   1.508  0.00  0.00    +0.030 A 
ATOM     23  S   UNL     1       8.362  -0.085   2.926  0.00  0.00    -0.114 S 
ATOM     24  C   UNL     1       6.956   1.063   2.808  0.00  0.00    +0.170 C 
ATOM     25  C   UNL     1       5.721   0.285   2.446  0.00  0.00    +0.230 C 
ATOM     26  O   UNL     1       4.659   0.651   2.903  0.00  0.00    -0.274 OA
ENDBRANCH  15  16
ENDBRANCH   2  15
TORSDOF 4
