REMARK  Name = ZINC40170553
REMARK  8 active torsions:
REMARK  status: ('A' for Active; 'I' for Inactive)
REMARK    1  A    between atoms: C_1  and  C_2
REMARK    2  A    between atoms: C_4  and  C_29
REMARK    3  A    between atoms: C_8  and  C_28
REMARK    4  A    between atoms: C_12  and  S_15
REMARK    5  A    between atoms: S_15  and  C_16
REMARK    6  A    between atoms: C_16  and  C_18
REMARK    7  A    between atoms: C_16  and  C_19
REMARK    8  A    between atoms: C_24  and  C_27
REMARK                            x       y       z     vdW  Elec       q    Type
REMARK                         _______ _______ _______ _____ _____    ______ ____
ROOT
ATOM      1  C   UNL     1      -0.018   1.502   0.010  0.00  0.00    +0.044 C 
ATOM      2  C   UNL     1       0.002  -0.004   0.002  0.00  0.00    -0.050 A 
ATOM      3  C   UNL     1      -0.039  -0.695  -1.196  0.00  0.00    +0.008 A 
ATOM      4  C   UNL     1       0.027  -2.076  -1.217  0.00  0.00    -0.026 A 
ATOM      5  C   UNL     1       0.210  -2.789  -0.045  0.00  0.00    +0.061 A 
ATOM      6  C   UNL     1       0.069  -2.094   1.181  0.00  0.00    +0.002 A 
ATOM      7  C   UNL     1       0.023  -0.698   1.192  0.00  0.00    +0.013 A 
ATOM      8  C   UNL     1      -0.094  -2.861   2.418  0.00  0.00    -0.038 A 
ATOM      9  C   UNL     1      -0.041  -4.212   2.365  0.00  0.00    +0.052 A 
ATOM     10  C   UNL     1       0.250  -4.863   1.149  0.00  0.00    +0.162 A 
ATOM     11  N   UNL     1       0.502  -4.139  -0.003  0.00  0.00    -0.270 N 
ATOM     12  C   UNL     1       1.082  -5.044  -0.841  0.00  0.00    +0.197 A 
ATOM     13  N   UNL     1       0.836  -6.244  -0.351  0.00  0.00    -0.122 NA
ATOM     14  N   UNL     1       0.309  -6.138   0.812  0.00  0.00    -0.129 NA
ATOM     15  C   UNL     1      -0.321  -2.174   3.740  0.00  0.00    +0.044 C 
ATOM     16  C   UNL     1      -0.188  -2.769  -2.540  0.00  0.00    +0.046 C 
ENDROOT
BRANCH  12  17
ATOM     17  S   UNL     1       2.050  -4.721  -2.278  0.00  0.00    -0.073 S 
BRANCH  17  18
ATOM     18  C   UNL     1       2.489  -6.372  -2.891  0.00  0.00    +0.137 C 
ATOM     19  C   UNL     1       3.386  -7.072  -1.869  0.00  0.00    +0.029 C 
BRANCH  18  20
ATOM     20  C   UNL     1       3.223  -6.242  -4.200  0.00  0.00    +0.232 C 
ATOM     21  O   UNL     1       3.824  -5.221  -4.460  0.00  0.00    -0.274 OA
ATOM     22  N   UNL     1       3.212  -7.261  -5.082  0.00  0.00    -0.264 N 
ATOM     23  C   UNL     1       3.890  -7.142  -6.290  0.00  0.00    +0.165 A 
ATOM     24  N   UNL     1       3.984  -8.020  -7.265  0.00  0.00    -0.230 NA
ATOM     25  C   UNL     1       4.672  -7.753  -8.360  0.00  0.00    +0.047 A 
ATOM     26  C   UNL     1       5.271  -6.540  -8.430  0.00  0.00    +0.071 A 
ATOM     27  S   UNL     1       4.782  -5.835  -6.864  0.00  0.00    -0.060 S 
ATOM     28  C   UNL     1       4.785  -8.754  -9.481  0.00  0.00    +0.066 C 
ATOM     29  H   UNL     1       2.731  -8.077  -4.875  0.00  0.00    +0.157 HD
ENDBRANCH  18  20
ENDBRANCH  17  18
ENDBRANCH  12  17
TORSDOF 3
