REMARK  Name = ZINC19352127
REMARK  9 active torsions:
REMARK  status: ('A' for Active; 'I' for Inactive)
REMARK    1  A    between atoms: C_1  and  C_2
REMARK    2  A    between atoms: C_2  and  C_4
REMARK    3  A    between atoms: C_2  and  N_14
REMARK    4  A    between atoms: C_15  and  C_17
REMARK    5  A    between atoms: C_17  and  S_18
REMARK    6  A    between atoms: S_18  and  C_19
REMARK    7  A    between atoms: C_22  and  S_24
REMARK    8  A    between atoms: S_24  and  C_25
REMARK    9  A    between atoms: C_25  and  C_26
REMARK                            x       y       z     vdW  Elec       q    Type
REMARK                         _______ _______ _______ _____ _____    ______ ____
ROOT
ATOM      1  N   UNL     1       4.715   4.121   0.450  0.00  0.00    -0.308 N 
ATOM      2  C   UNL     1       5.887   3.633   0.904  0.00  0.00    +0.224 C 
ATOM      3  O   UNL     1       6.077   2.435   0.925  0.00  0.00    -0.275 OA
ATOM      4  H   UNL     1       4.542   5.207   0.430  0.00  0.00    +0.149 HD
ENDROOT
BRANCH   1   6
ATOM      5  C   UNL     1       3.898   2.885  -1.496  0.00  0.00    +0.033 C 
ATOM      6  C   UNL     1       3.671   3.205  -0.017  0.00  0.00    +0.101 C 
BRANCH   6   7
ATOM      7  C   UNL     1       2.321   3.851   0.157  0.00  0.00    -0.020 A 
ATOM      8  C   UNL     1       2.206   5.208   0.152  0.00  0.00    +0.006 A 
ATOM      9  C   UNL     1       0.967   5.823   0.311  0.00  0.00    +0.001 A 
ATOM     10  C   UNL     1      -0.166   5.086   0.475  0.00  0.00    +0.008 A 
ATOM     11  C   UNL     1      -0.087   3.683   0.484  0.00  0.00    -0.018 A 
ATOM     12  C   UNL     1       1.174   3.057   0.323  0.00  0.00    -0.013 A 
ATOM     13  C   UNL     1       1.253   1.654   0.333  0.00  0.00    +0.009 A 
ATOM     14  C   UNL     1       0.120   0.917   0.496  0.00  0.00    +0.001 A 
ATOM     15  C   UNL     1      -1.121   1.533   0.649  0.00  0.00    +0.001 A 
ATOM     16  C   UNL     1      -1.235   2.889   0.651  0.00  0.00    +0.008 A 
ENDBRANCH   6   7
ENDBRANCH   1   6
BRANCH   2  17
ATOM     17  C   UNL     1       6.960   4.575   1.384  0.00  0.00    +0.172 C 
BRANCH  17  18
ATOM     18  S   UNL     1       8.404   3.621   1.927  0.00  0.00    -0.088 S 
BRANCH  18  19
ATOM     19  C   UNL     1       9.554   4.848   2.451  0.00  0.00    +0.160 A 
ATOM     20  N   UNL     1       9.428   6.162   2.461  0.00  0.00    -0.134 NA
ATOM     21  N   UNL     1      10.463   6.945   2.919  0.00  0.00    -0.134 NA
ATOM     22  C   UNL     1      11.575   6.379   3.345  0.00  0.00    +0.160 A 
ATOM     23  S   UNL     1      11.199   4.647   3.118  0.00  0.00    -0.033 S 
BRANCH  22  24
ATOM     24  S   UNL     1      13.039   7.130   3.976  0.00  0.00    -0.088 S 
BRANCH  24  25
ATOM     25  C   UNL     1      12.683   8.907   3.914  0.00  0.00    +0.171 C 
BRANCH  25  26
ATOM     26  C   UNL     1      13.870   9.676   4.433  0.00  0.00    +0.221 C 
ATOM     27  O   UNL     1      14.860   9.083   4.808  0.00  0.00    -0.275 OA
ATOM     28  N   UNL     1      13.832  11.022   4.481  0.00  0.00    -0.329 N 
ATOM     29  H   UNL     1      14.699  11.584   4.860  0.00  0.00    +0.145 HD
ATOM     30  H   UNL     1      12.935  11.560   4.141  0.00  0.00    +0.145 HD
ENDBRANCH  25  26
ENDBRANCH  24  25
ENDBRANCH  22  24
ENDBRANCH  18  19
ENDBRANCH  17  18
ENDBRANCH   2  17
TORSDOF 8
