REMARK  Name = ZINC63386861
REMARK  9 active torsions:
REMARK  status: ('A' for Active; 'I' for Inactive)
REMARK    1  A    between atoms: C_6  and  C_7
REMARK    2  A    between atoms: C_7  and  N_8
REMARK    3  A    between atoms: C_11  and  C_16
REMARK    4  A    between atoms: C_14  and  O_15
REMARK    5  A    between atoms: C_16  and  C_17
REMARK    6  A    between atoms: C_17  and  C_18
REMARK    7  A    between atoms: N_20  and  C_21
REMARK    8  A    between atoms: C_21  and  C_22
REMARK    9  A    between atoms: C_22  and  C_23
REMARK                            x       y       z     vdW  Elec       q    Type
REMARK                         _______ _______ _______ _____ _____    ______ ____
ROOT
ATOM      1  C   UNL     1      -2.118   0.023  -4.545  0.00  0.00    +0.045 C 
ENDROOT
BRANCH   1   5
ATOM      2  N   UNL     1      -1.727  -1.016  -1.368  0.00  0.00    -0.220 N 
ATOM      3  C   UNL     1      -2.516  -0.185  -2.082  0.00  0.00    +0.248 C 
ATOM      4  O   UNL     1      -2.991   0.871  -1.724  0.00  0.00    -0.273 OA
ATOM      5  C   UNL     1      -2.680  -0.861  -3.430  0.00  0.00    +0.197 C 
ATOM      6  N   UNL     1      -1.894  -2.098  -3.302  0.00  0.00    -0.224 NA
ATOM      7  C   UNL     1      -1.381  -2.114  -2.113  0.00  0.00    +0.285 C 
BRANCH   7   8
ATOM      8  O   UNL     1      -0.592  -3.110  -1.654  0.00  0.00    -0.481 OA
ATOM      9  H   UNL     1      -0.437  -3.817  -2.295  0.00  0.00    +0.295 HD
ENDBRANCH   7   8
BRANCH   2  10
ATOM     10  C   UNL     1      -1.294  -0.774   0.010  0.00  0.00    +0.153 C 
BRANCH  10  16
ATOM     11  C   UNL     1      -0.017   1.378   0.010  0.00  0.00    +0.009 A 
ATOM     12  C   UNL     1       1.170   2.088   0.002  0.00  0.00    +0.050 A 
ATOM     13  C   UNL     1       2.380   1.416  -0.013  0.00  0.00    +0.166 A 
ATOM     14  C   UNL     1       2.399   0.023  -0.021  0.00  0.00    +0.167 A 
ATOM     15  C   UNL     1       1.207  -0.682  -0.014  0.00  0.00    +0.054 A 
ATOM     16  C   UNL     1       0.002  -0.004   0.002  0.00  0.00    -0.026 A 
ATOM     17  O   UNL     1       3.698  -0.395  -0.036  0.00  0.00    -0.453 OA
ATOM     18  C   UNL     1       4.466   0.750  -0.450  0.00  0.00    +0.466 C 
ATOM     19  O   UNL     1       3.668   1.870  -0.024  0.00  0.00    -0.453 OA
ENDBRANCH  10  16
ENDBRANCH   2  10
ENDBRANCH   1   5
BRANCH   1  20
ATOM     20  C   UNL     1      -2.407  -0.622  -5.902  0.00  0.00    +0.098 C 
BRANCH  20  21
ATOM     21  C   UNL     1      -1.853   0.248  -7.000  0.00  0.00    +0.213 C 
ATOM     22  O   UNL     1      -1.283   1.283  -6.725  0.00  0.00    -0.276 OA
ATOM     23  N   UNL     1      -1.991  -0.123  -8.288  0.00  0.00    -0.315 N 
ATOM     24  H   UNL     1      -2.446  -0.951  -8.508  0.00  0.00    +0.149 HD
BRANCH  23  25
ATOM     25  C   UNL     1      -1.453   0.723  -9.356  0.00  0.00    +0.108 C 
BRANCH  25  26
ATOM     26  C   UNL     1      -1.742   0.077 -10.713  0.00  0.00    +0.052 C 
BRANCH  26  27
ATOM     27  C   UNL     1      -1.188   0.948 -11.812  0.00  0.00    -0.040 C 
ATOM     28  C   UNL     1       0.014   0.823 -12.420  0.00  0.00    +0.002 A 
ATOM     29  C   UNL     1       1.122  -0.123 -12.247  0.00  0.00    +0.048 A 
ATOM     30  C   UNL     1       2.225   0.009 -13.021  0.00  0.00    +0.124 A 
ATOM     31  C   UNL     1       2.333   1.026 -13.983  0.00  0.00    +0.040 A 
ATOM     32  C   UNL     1       1.357   1.932 -14.198  0.00  0.00    +0.029 A 
ATOM     33  C   UNL     1       0.153   1.886 -13.441  0.00  0.00    +0.043 A 
ATOM     34  N   UNL     1      -0.920   2.639 -13.463  0.00  0.00    -0.380 N 
ATOM     35  C   UNL     1      -1.866   2.133 -12.461  0.00  0.00    +0.144 C 
ATOM     36  F   UNL     1       3.247  -0.860 -12.864  0.00  0.00    -0.205 F 
ATOM     37  H   UNL     1      -1.066   3.400 -14.046  0.00  0.00    +0.160 HD
ENDBRANCH  26  27
ENDBRANCH  25  26
ENDBRANCH  23  25
ENDBRANCH  20  21
ENDBRANCH   1  20
TORSDOF 9
