REMARK  Name = ZINC06244226
REMARK  4 active torsions:
REMARK  status: ('A' for Active; 'I' for Inactive)
REMARK    1  A    between atoms: N_10  and  N_11
REMARK    2  A    between atoms: C_12  and  C_14
REMARK    3  A    between atoms: C_14  and  O_15
REMARK    4  A    between atoms: O_15  and  C_16
REMARK                            x       y       z     vdW  Elec       q    Type
REMARK                         _______ _______ _______ _____ _____    ______ ____
ROOT
ATOM      1  N   UNL     1      -3.039   7.542   0.075  0.00  0.00    -0.232 N 
ATOM      2  C   UNL     1      -3.351   8.854   0.085  0.00  0.00    +0.267 C 
ATOM      3  O   UNL     1      -2.470   9.687   0.081  0.00  0.00    -0.271 OA
ATOM      4  H   UNL     1      -3.744   6.876   0.078  0.00  0.00    +0.173 HD
ENDROOT
BRANCH   1  14
ATOM      5  C   UNL     1       1.175   1.793   0.001  0.00  0.00    +0.002 A 
ATOM      6  C   UNL     1      -0.013   1.076   0.008  0.00  0.00    +0.001 A 
ATOM      7  C   UNL     1      -1.216   1.758   0.017  0.00  0.00    +0.017 A 
ATOM      8  C   UNL     1      -1.216   3.130   0.031  0.00  0.00    +0.041 A 
ATOM      9  C   UNL     1      -0.026   3.894   0.023  0.00  0.00    +0.080 A 
ATOM     10  C   UNL     1       1.184   3.163   0.007  0.00  0.00    +0.029 A 
ATOM     11  N   UNL     1      -0.192   5.235   0.033  0.00  0.00    -0.224 NA
ATOM     12  C   UNL     1      -1.377   5.799   0.048  0.00  0.00    +0.176 A 
ATOM     13  S   UNL     1      -2.472   4.387   0.051  0.00  0.00    -0.051 S 
ATOM     14  N   UNL     1      -1.697   7.142   0.059  0.00  0.00    -0.243 N 
ATOM     15  H   UNL     1      -0.992   7.808   0.055  0.00  0.00    +0.172 HD
ENDBRANCH   1  14
BRANCH   2  16
ATOM     16  C   UNL     1      -4.795   9.284   0.102  0.00  0.00    +0.326 C 
BRANCH  16  17
ATOM     17  O   UNL     1      -4.867  10.711   0.111  0.00  0.00    -0.481 OA
BRANCH  17  18
ATOM     18  C   UNL     1      -6.107  11.268   0.127  0.00  0.00    +0.140 A 
ATOM     19  C   UNL     1      -7.232  10.456   0.134  0.00  0.00    +0.048 A 
ATOM     20  C   UNL     1      -8.492  11.023   0.150  0.00  0.00    +0.023 A 
ATOM     21  C   UNL     1      -8.633  12.399   0.159  0.00  0.00    +0.043 A 
ATOM     22  C   UNL     1      -7.513  13.211   0.152  0.00  0.00    +0.043 A 
ATOM     23  C   UNL     1      -6.250  12.648   0.142  0.00  0.00    +0.084 A 
ATOM     24 CL   UNL     1      -4.844  13.667   0.141  0.00  0.00    -0.080 Cl
ATOM     25 CL   UNL     1     -10.217  13.108   0.179  0.00  0.00    -0.083 Cl
ENDBRANCH  17  18
ENDBRANCH  16  17
ENDBRANCH   2  16
TORSDOF 4
