REMARK  Name = ZINC39609688
REMARK  7 active torsions:
REMARK  status: ('A' for Active; 'I' for Inactive)
REMARK    1  A    between atoms: C_1  and  C_2
REMARK    2  A    between atoms: C_2  and  C_3
REMARK    3  A    between atoms: C_3  and  C_5
REMARK    4  A    between atoms: C_3  and  C_6
REMARK    5  A    between atoms: C_10  and  C_19
REMARK    6  A    between atoms: N_21  and  C_22
REMARK    7  A    between atoms: C_22  and  C_23
REMARK                            x       y       z     vdW  Elec       q    Type
REMARK                         _______ _______ _______ _____ _____    ______ ____
ROOT
ATOM      1  C   UNL     1      -1.575  -2.278   0.304  0.00  0.00    +0.218 C 
ATOM      2  O   UNL     1      -0.582  -2.940   0.519  0.00  0.00    -0.275 OA
ATOM      3  N   UNL     1      -2.764  -2.886   0.124  0.00  0.00    -0.300 N 
ATOM      4  C   UNL     1      -4.055  -2.263  -0.255  0.00  0.00    +0.121 C 
ATOM      5  C   UNL     1      -4.699  -3.267  -1.237  0.00  0.00    +0.100 C 
ATOM      6  C   UNL     1      -4.055  -4.621  -0.894  0.00  0.00    -0.004 C 
ATOM      7  C   UNL     1      -3.075  -4.330   0.253  0.00  0.00    +0.115 C 
ATOM      8  C   UNL     1      -3.298  -5.167  -2.100  0.00  0.00    -0.010 C 
ATOM      9  C   UNL     1      -2.715  -6.539  -1.753  0.00  0.00    -0.082 C 
ATOM     10  N   UNL     1      -3.800  -7.453  -1.376  0.00  0.00    +0.379 N 
ATOM     11  C   UNL     1      -4.463  -6.968  -0.160  0.00  0.00    -0.082 C 
ATOM     12  C   UNL     1      -5.121  -5.614  -0.440  0.00  0.00    -0.010 C 
ATOM     13  H   UNL     1      -4.472  -7.503  -2.127  0.00  0.00    -0.086 HD
ATOM     14  H   UNL     1      -3.420  -8.372  -1.206  0.00  0.00    -0.086 HD
ENDROOT
BRANCH   5  15
ATOM     15  C   UNL     1      -6.190  -3.324  -1.025  0.00  0.00    +0.218 C 
ATOM     16  O   UNL     1      -6.656  -3.099   0.072  0.00  0.00    -0.275 OA
ATOM     17  N   UNL     1      -7.006  -3.626  -2.055  0.00  0.00    -0.311 N 
ATOM     18  H   UNL     1      -6.634  -3.805  -2.932  0.00  0.00    +0.149 HD
BRANCH  17  19
ATOM     19  C   UNL     1      -8.456  -3.681  -1.849  0.00  0.00    +0.139 C 
BRANCH  19  20
ATOM     20  C   UNL     1      -9.134  -4.035  -3.147  0.00  0.00    -0.029 A 
ATOM     21  C   UNL     1      -9.523  -3.035  -4.019  0.00  0.00    +0.007 A 
ATOM     22  C   UNL     1     -10.146  -3.359  -5.210  0.00  0.00    +0.022 A 
ATOM     23  C   UNL     1     -10.380  -4.684  -5.530  0.00  0.00    +0.059 A 
ATOM     24  C   UNL     1      -9.989  -5.686  -4.657  0.00  0.00    +0.060 A 
ATOM     25  C   UNL     1      -9.361  -5.360  -3.468  0.00  0.00    +0.026 A 
ATOM     26 CL   UNL     1     -10.282  -7.350  -5.058  0.00  0.00    -0.082 Cl
ATOM     27 CL   UNL     1     -11.162  -5.092  -7.025  0.00  0.00    -0.082 Cl
ENDBRANCH  19  20
ENDBRANCH  17  19
ENDBRANCH   5  15
BRANCH   1  28
ATOM     28  C   UNL     1      -1.480  -0.775   0.238  0.00  0.00    +0.072 C 
ATOM     29  C   UNL     1      -1.172  -0.346  -1.198  0.00  0.00    +0.017 C 
BRANCH  28  31
ATOM     30  C   UNL     1      -0.345   1.235   1.194  0.00  0.00    +0.004 C 
ATOM     31  C   UNL     1      -0.361  -0.295   1.165  0.00  0.00    +0.009 C 
ENDBRANCH  28  31
ENDBRANCH   1  28
TORSDOF 5
