REMARK  Name = ZINC57345639
REMARK  4 active torsions:
REMARK  status: ('A' for Active; 'I' for Inactive)
REMARK    1  A    between atoms: C_1  and  C_2
REMARK    2  A    between atoms: C_2  and  O_3
REMARK    3  A    between atoms: O_3  and  C_4
REMARK    4  A    between atoms: C_4  and  C_6
REMARK                            x       y       z     vdW  Elec       q    Type
REMARK                         _______ _______ _______ _____ _____    ______ ____
ROOT
ATOM      1  C   UNL     1       1.710  -2.415   2.357  0.00  0.00    +0.185 C 
ATOM      2  C   UNL     1       3.230  -2.229   2.402  0.00  0.00    +0.034 C 
ATOM      3  C   UNL     1       3.782  -2.878   3.674  0.00  0.00    +0.004 C 
ATOM      4  C   UNL     1       3.478  -4.378   3.656  0.00  0.00    +0.019 C 
ATOM      5  C   UNL     1       1.961  -4.588   3.626  0.00  0.00    +0.109 C 
ATOM      6  N   UNL     1       1.401  -3.845   2.488  0.00  0.00    -0.286 N 
ATOM      7  C   UNL     1       0.602  -4.482   1.555  0.00  0.00    +0.220 A 
ATOM      8  N   UNL     1       0.021  -3.765   0.604  0.00  0.00    -0.219 NA
ATOM      9  C   UNL     1      -0.750  -4.341  -0.305  0.00  0.00    +0.051 A 
ATOM     10  C   UNL     1      -0.945  -5.710  -0.251  0.00  0.00    +0.011 A 
ATOM     11  C   UNL     1      -0.323  -6.433   0.757  0.00  0.00    +0.138 A 
ATOM     12  N   UNL     1       0.440  -5.795   1.631  0.00  0.00    -0.202 NA
ATOM     13 CL   UNL     1      -0.537  -8.152   0.867  0.00  0.00    -0.062 Cl
ATOM     14  C   UNL     1      -1.853  -6.144  -1.378  0.00  0.00    +0.040 C 
ATOM     15  C   UNL     1      -2.539  -4.849  -1.865  0.00  0.00    +0.011 C 
ATOM     16  C   UNL     1      -1.514  -3.763  -1.474  0.00  0.00    +0.056 C 
ENDROOT
BRANCH   1  17
ATOM     17  C   UNL     1       1.177  -1.901   1.045  0.00  0.00    +0.328 C 
ATOM     18  O   UNL     1       1.729  -2.195   0.011  0.00  0.00    -0.249 OA
BRANCH  17  19
ATOM     19  O   UNL     1       0.089  -1.115   1.024  0.00  0.00    -0.464 OA
BRANCH  19  21
ATOM     20  C   UNL     1      -1.603   0.212  -0.079  0.00  0.00    +0.048 C 
ATOM     21  C   UNL     1      -0.362  -0.664  -0.255  0.00  0.00    +0.229 C 
ENDBRANCH  19  21
ENDBRANCH  17  19
ENDBRANCH   1  17
TORSDOF 3
