REMARK  Name = ZINC12546784
REMARK  8 active torsions:
REMARK  status: ('A' for Active; 'I' for Inactive)
REMARK    1  A    between atoms: C_1  and  C_2
REMARK    2  A    between atoms: C_5  and  N_9
REMARK    3  A    between atoms: C_6  and  C_8
REMARK    4  A    between atoms: C_19  and  N_20
REMARK    5  A    between atoms: N_20  and  C_21
REMARK    6  A    between atoms: C_23  and  N_34
REMARK    7  A    between atoms: C_26  and  N_27
REMARK    8  A    between atoms: N_27  and  C_28
REMARK                            x       y       z     vdW  Elec       q    Type
REMARK                         _______ _______ _______ _____ _____    ______ ____
ROOT
ATOM      1  N   UNL     1       0.128  -4.070   0.580  0.00  0.00    -0.202 N 
ATOM      2  C   UNL     1      -1.071  -4.672   0.510  0.00  0.00    +0.258 C 
ATOM      3  O   UNL     1      -2.079  -4.022   0.717  0.00  0.00    -0.269 OA
ATOM      4  C   UNL     1      -1.185  -6.100   0.189  0.00  0.00    +0.046 A 
ATOM      5  C   UNL     1      -2.428  -6.731   0.114  0.00  0.00    +0.014 A 
ATOM      6  C   UNL     1      -2.493  -8.073  -0.191  0.00  0.00    +0.001 A 
ATOM      7  C   UNL     1      -1.337  -8.804  -0.425  0.00  0.00    +0.001 A 
ATOM      8  C   UNL     1      -0.099  -8.200  -0.356  0.00  0.00    +0.009 A 
ATOM      9  C   UNL     1      -0.013  -6.846  -0.050  0.00  0.00    +0.000 A 
ATOM     10  C   UNL     1       1.288  -6.150   0.036  0.00  0.00    +0.059 C 
ATOM     11  C   UNL     1       2.470  -6.823  -0.187  0.00  0.00    +0.085 C 
ATOM     12  C   UNL     1       1.283  -4.719   0.360  0.00  0.00    +0.259 C 
ATOM     13  O   UNL     1       2.337  -4.114   0.433  0.00  0.00    -0.269 OA
ENDROOT
BRANCH   1  18
ATOM     14  C   UNL     1       0.317   1.460   1.838  0.00  0.00    +0.044 C 
ATOM     15  C   UNL     1       0.267  -0.009   1.504  0.00  0.00    -0.050 A 
ATOM     16  C   UNL     1       0.173  -0.413   0.185  0.00  0.00    +0.005 A 
ATOM     17  C   UNL     1       0.127  -1.758  -0.124  0.00  0.00    +0.024 A 
ATOM     18  C   UNL     1       0.175  -2.705   0.890  0.00  0.00    +0.047 A 
ATOM     19  C   UNL     1       0.271  -2.295   2.214  0.00  0.00    -0.028 A 
ATOM     20  C   UNL     1       0.322  -0.949   2.516  0.00  0.00    +0.008 A 
ATOM     21  C   UNL     1       0.323  -3.319   3.318  0.00  0.00    +0.046 C 
ENDBRANCH   1  18
BRANCH  11  22
ATOM     22  N   UNL     1       3.642  -6.139  -0.237  0.00  0.00    -0.318 N 
ATOM     23  H   UNL     1       3.658  -5.188  -0.046  0.00  0.00    +0.152 HD
BRANCH  22  24
ATOM     24  C   UNL     1       4.828  -6.805  -0.565  0.00  0.00    +0.055 A 
ATOM     25  C   UNL     1       4.807  -8.164  -0.845  0.00  0.00    +0.057 A 
ATOM     26  C   UNL     1       5.979  -8.821  -1.169  0.00  0.00    +0.128 A 
ATOM     27  C   UNL     1       7.175  -8.127  -1.216  0.00  0.00    +0.034 A 
ATOM     28  C   UNL     1       7.206  -6.773  -0.939  0.00  0.00    +0.027 A 
ATOM     29  C   UNL     1       6.033  -6.105  -0.618  0.00  0.00    +0.053 A 
BRANCH  26  30
ATOM     30  N   UNL     1       5.955 -10.270  -1.466  0.00  0.00    +0.056 N 
ATOM     31  O   UNL     1       4.911 -10.878  -1.425  0.00  0.00    -0.126 OA
ATOM     32  O   UNL     1       6.980 -10.846  -1.750  0.00  0.00    -0.126 OA
ENDBRANCH  26  30
BRANCH  29  33
ATOM     33  N   UNL     1       6.060  -4.734  -0.343  0.00  0.00    -0.313 N 
ATOM     34  H   UNL     1       5.264  -4.290  -0.012  0.00  0.00    +0.152 HD
BRANCH  33  35
ATOM     35  C   UNL     1       7.234  -4.004  -0.545  0.00  0.00    +0.031 A 
ATOM     36  C   UNL     1       8.003  -4.223  -1.681  0.00  0.00    +0.023 A 
ATOM     37  C   UNL     1       9.163  -3.499  -1.878  0.00  0.00    +0.002 A 
ATOM     38  C   UNL     1       9.559  -2.558  -0.945  0.00  0.00    +0.000 A 
ATOM     39  C   UNL     1       8.796  -2.338   0.187  0.00  0.00    +0.002 A 
ATOM     40  C   UNL     1       7.632  -3.053   0.387  0.00  0.00    +0.023 A 
ENDBRANCH  33  35
ENDBRANCH  29  33
ENDBRANCH  22  24
ENDBRANCH  11  22
TORSDOF 6
