REMARK  Name = ZINC40003676
REMARK  18 active torsions:
REMARK  status: ('A' for Active; 'I' for Inactive)
REMARK    1  A    between atoms: C_1  and  C_2
REMARK    2  A    between atoms: C_2  and  C_3
REMARK    3  A    between atoms: C_3  and  C_4
REMARK    4  A    between atoms: C_4  and  O_5
REMARK    5  A    between atoms: O_5  and  C_6
REMARK    6  A    between atoms: C_9  and  C_15
REMARK    7  A    between atoms: C_11  and  O_12
REMARK    8  A    between atoms: O_12  and  C_13
REMARK    9  A    between atoms: C_13  and  C_14
REMARK   10  A    between atoms: C_17  and  C_28
REMARK   11  A    between atoms: N_21  and  C_22
REMARK   12  A    between atoms: C_22  and  C_23
REMARK   13  A    between atoms: C_23  and  C_24
REMARK   14  A    between atoms: C_24  and  O_25
REMARK   15  A    between atoms: O_25  and  C_26
REMARK   16  A    between atoms: C_28  and  C_30
REMARK   17  A    between atoms: C_31  and  C_40
REMARK   18  A    between atoms: C_38  and  C_39
REMARK                            x       y       z     vdW  Elec       q    Type
REMARK                         _______ _______ _______ _____ _____    ______ ____
ROOT
ATOM      1  C   UNL     1       3.070  -8.178   3.382  0.00  0.00    +0.145 C 
ATOM      2  C   UNL     1       1.562  -8.103   3.313  0.00  0.00    +0.078 C 
ATOM      3  C   UNL     1       1.231  -8.113   2.003  0.00  0.00    +0.249 C 
ATOM      4  C   UNL     1       2.460  -8.192   1.191  0.00  0.00    +0.288 C 
ATOM      5  O   UNL     1       2.493  -8.218  -0.024  0.00  0.00    -0.266 OA
ATOM      6  N   UNL     1       3.541  -8.231   1.993  0.00  0.00    -0.283 N 
ATOM      7  O   UNL     1      -0.031  -8.059   1.512  0.00  0.00    -0.282 OA
ENDROOT
BRANCH   1  11
ATOM      8  C   UNL     1       4.626  -4.702   5.329  0.00  0.00    +0.162 A 
ATOM      9  C   UNL     1       4.097  -4.606   4.051  0.00  0.00    +0.050 A 
ATOM     10  C   UNL     1       3.595  -5.732   3.425  0.00  0.00    +0.009 A 
ATOM     11  C   UNL     1       3.619  -6.955   4.070  0.00  0.00    -0.019 A 
ATOM     12  C   UNL     1       4.144  -7.057   5.344  0.00  0.00    +0.055 A 
ATOM     13  C   UNL     1       4.655  -5.934   5.976  0.00  0.00    +0.162 A 
BRANCH   8  14
ATOM     14  O   UNL     1       5.120  -3.596   5.946  0.00  0.00    -0.488 OA
BRANCH  14  15
ATOM     15  C   UNL     1       5.057  -2.366   5.222  0.00  0.00    +0.229 C 
BRANCH  15  16
ATOM     16  C   UNL     1       5.656  -1.243   6.071  0.00  0.00    +0.041 C 
BRANCH  16  18
ATOM     17  C   UNL     1       6.187   1.197   6.144  0.00  0.00    +0.004 C 
ATOM     18  C   UNL     1       5.589   0.074   5.295  0.00  0.00    -0.000 C 
ENDBRANCH  16  18
ENDBRANCH  15  16
ENDBRANCH  14  15
ENDBRANCH   8  14
BRANCH  13  19
ATOM     19  O   UNL     1       5.178  -6.034   7.227  0.00  0.00    -0.489 OA
BRANCH  19  20
ATOM     20  C   UNL     1       5.272  -7.345   7.787  0.00  0.00    +0.226 C 
ATOM     21  C   UNL     1       5.886  -7.259   9.186  0.00  0.00    +0.048 C 
ENDBRANCH  19  20
ENDBRANCH  13  19
ENDBRANCH   1  11
BRANCH   2  22
ATOM     22  C   UNL     1       0.636  -8.034   4.451  0.00  0.00    +0.213 C 
ATOM     23  O   UNL     1       0.051  -6.992   4.698  0.00  0.00    -0.285 OA
BRANCH  22  24
ATOM     24  C   UNL     1       0.421  -9.177   5.260  0.00  0.00    +0.116 A 
ATOM     25  C   UNL     1       0.911 -10.457   5.039  0.00  0.00    +0.068 A 
ATOM     26  N   UNL     1       0.488 -11.236   6.019  0.00  0.00    -0.232 NA
ATOM     27  C   UNL     1      -0.254 -10.528   6.871  0.00  0.00    +0.141 A 
ATOM     28  N   UNL     1      -0.313  -9.237   6.431  0.00  0.00    -0.296 N 
ATOM     29  C   UNL     1      -1.008  -8.298   7.126  0.00  0.00    +0.093 A 
ATOM     30  C   UNL     1      -1.653  -8.624   8.270  0.00  0.00    +0.018 A 
ATOM     31  C   UNL     1      -1.611  -9.939   8.750  0.00  0.00    +0.008 A 
ATOM     32  C   UNL     1      -0.922 -10.889   8.055  0.00  0.00    -0.008 A 
ATOM     33  C   UNL     1      -0.864 -12.308   8.558  0.00  0.00    +0.047 C 
ATOM     34  C   UNL     1       1.775 -10.885   3.881  0.00  0.00    +0.068 C 
ENDBRANCH  22  24
ENDBRANCH   2  22
BRANCH   6  35
ATOM     35  C   UNL     1       4.937  -8.312   1.559  0.00  0.00    +0.111 C 
BRANCH  35  36
ATOM     36  C   UNL     1       5.349  -9.780   1.437  0.00  0.00    +0.047 C 
BRANCH  36  37
ATOM     37  C   UNL     1       6.808  -9.864   0.983  0.00  0.00    +0.161 C 
BRANCH  37  38
ATOM     38  O   UNL     1       7.193 -11.236   0.869  0.00  0.00    -0.383 OA
ATOM     39  C   UNL     1       8.545 -11.427   0.449  0.00  0.00    +0.193 C 
ENDBRANCH  37  38
ENDBRANCH  36  37
ENDBRANCH  35  36
ENDBRANCH   6  35
TORSDOF 13
