REMARK  Name = ZINC62362070
REMARK  8 active torsions:
REMARK  status: ('A' for Active; 'I' for Inactive)
REMARK    1  A    between atoms: C_1  and  C_2
REMARK    2  A    between atoms: C_5  and  C_8
REMARK    3  A    between atoms: C_8  and  C_10
REMARK    4  A    between atoms: C_8  and  N_21
REMARK    5  A    between atoms: C_10  and  N_11
REMARK    6  A    between atoms: N_11  and  S_12
REMARK    7  A    between atoms: S_12  and  N_15
REMARK    8  A    between atoms: N_15  and  C_16
REMARK                            x       y       z     vdW  Elec       q    Type
REMARK                         _______ _______ _______ _____ _____    ______ ____
ROOT
ATOM      1  C   UNL     1       0.088  -4.412  -0.109  0.00  0.00    -0.022 C 
ENDROOT
BRANCH   1   6
ATOM      2  C   UNL     1       0.624   1.336   0.148  0.00  0.00    +0.044 C 
ATOM      3  C   UNL     1       0.484  -0.163   0.081  0.00  0.00    -0.050 A 
ATOM      4  C   UNL     1       0.444  -0.799  -1.146  0.00  0.00    +0.003 A 
ATOM      5  C   UNL     1       0.316  -2.174  -1.207  0.00  0.00    +0.002 A 
ATOM      6  C   UNL     1       0.229  -2.913  -0.042  0.00  0.00    -0.060 A 
ATOM      7  C   UNL     1       0.269  -2.277   1.184  0.00  0.00    +0.002 A 
ATOM      8  C   UNL     1       0.402  -0.903   1.246  0.00  0.00    +0.003 A 
ENDBRANCH   1   6
BRANCH   1   9
ATOM      9  N   UNL     1       0.908  -5.029   0.942  0.00  0.00    +0.385 N 
ATOM     10  C   UNL     1       2.302  -4.593   0.792  0.00  0.00    -0.078 C 
ATOM     11  C   UNL     1       3.145  -5.168   1.932  0.00  0.00    -0.019 C 
ATOM     12  C   UNL     1       3.079  -6.697   1.889  0.00  0.00    -0.004 C 
ATOM     13  C   UNL     1       1.614  -7.137   1.972  0.00  0.00    -0.019 C 
ATOM     14  C   UNL     1       0.828  -6.490   0.830  0.00  0.00    -0.078 C 
ATOM     15  H   UNL     1       0.564  -4.742   1.847  0.00  0.00    -0.081 HD
ENDBRANCH   1   9
BRANCH   1  16
ATOM     16  C   UNL     1      -1.379  -4.797   0.097  0.00  0.00    +0.096 C 
BRANCH  16  17
ATOM     17  N   UNL     1      -2.181  -4.271  -1.010  0.00  0.00    -0.181 NA
ATOM     18  H   UNL     1      -1.820  -3.578  -1.585  0.00  0.00    +0.149 HD
BRANCH  17  19
ATOM     19  S   UNL     1      -3.705  -4.859  -1.281  0.00  0.00    +0.095 S 
ATOM     20  O   UNL     1      -4.227  -4.141  -2.390  0.00  0.00    -0.141 OA
ATOM     21  O   UNL     1      -3.601  -6.277  -1.272  0.00  0.00    -0.141 OA
BRANCH  19  22
ATOM     22  N   UNL     1      -4.630  -4.445   0.029  0.00  0.00    -0.177 NA
ATOM     23  H   UNL     1      -4.990  -5.136   0.607  0.00  0.00    +0.149 HD
BRANCH  22  24
ATOM     24  C   UNL     1      -4.904  -3.034   0.315  0.00  0.00    +0.078 C 
ATOM     25  C   UNL     1      -3.928  -2.513   1.389  0.00  0.00    +0.020 C 
ATOM     26  C   UNL     1      -4.785  -1.550   2.247  0.00  0.00    +0.002 C 
ATOM     27  C   UNL     1      -6.155  -2.271   2.304  0.00  0.00    +0.002 C 
ATOM     28  C   UNL     1      -6.321  -2.880   0.896  0.00  0.00    +0.020 C 
ENDBRANCH  22  24
ENDBRANCH  19  22
ENDBRANCH  17  19
ENDBRANCH  16  17
ENDBRANCH   1  16
TORSDOF 7
