REMARK  Name = ZINC55065989
REMARK  7 active torsions:
REMARK  status: ('A' for Active; 'I' for Inactive)
REMARK    1  A    between atoms: C_1  and  C_2
REMARK    2  A    between atoms: C_2  and  C_3
REMARK    3  A    between atoms: C_3  and  C_5
REMARK    4  A    between atoms: C_3  and  N_6
REMARK    5  A    between atoms: N_9  and  S_12
REMARK    6  A    between atoms: S_12  and  C_15
REMARK    7  A    between atoms: C_20  and  N_21
REMARK                            x       y       z     vdW  Elec       q    Type
REMARK                         _______ _______ _______ _____ _____    ______ ____
ROOT
ATOM      1  S   UNL     1      -4.205  -0.688   4.581  0.00  0.00    +0.063 S 
ATOM      2  O   UNL     1      -5.461  -1.075   4.042  0.00  0.00    -0.153 OA
ATOM      3  O   UNL     1      -3.226  -1.634   4.987  0.00  0.00    -0.153 OA
ENDROOT
BRANCH   1   4
ATOM      4  C   UNL     1      -4.548   0.317   5.987  0.00  0.00    +0.127 A 
ATOM      5  C   UNL     1      -5.855   0.565   6.357  0.00  0.00    +0.045 A 
ATOM      6  C   UNL     1      -6.125   1.355   7.461  0.00  0.00    +0.020 A 
ATOM      7  C   UNL     1      -5.087   1.898   8.197  0.00  0.00    +0.017 A 
ATOM      8  C   UNL     1      -3.778   1.654   7.831  0.00  0.00    +0.026 A 
ATOM      9  C   UNL     1      -3.503   0.857   6.727  0.00  0.00    +0.051 A 
ATOM     10 BR   UNL     1      -7.916   1.692   7.964  0.00  0.00    -0.050 Br
BRANCH   9  11
ATOM     11  N   UNL     1      -2.180   0.603   6.358  0.00  0.00    -0.356 N 
ATOM     12  H   UNL     1      -1.986  -0.040   5.658  0.00  0.00    +0.142 HD
ATOM     13  H   UNL     1      -1.455   1.069   6.802  0.00  0.00    +0.142 HD
ENDBRANCH   9  11
ENDBRANCH   1   4
BRANCH   1  17
ATOM     14  N   UNL     1      -2.381   1.066   1.013  0.00  0.00    -0.297 NA
ATOM     15  C   UNL     1      -1.650   0.107   1.852  0.00  0.00    +0.102 C 
ATOM     16  C   UNL     1      -2.019   0.334   3.322  0.00  0.00    +0.125 C 
ATOM     17  N   UNL     1      -3.484   0.283   3.449  0.00  0.00    -0.174 NA
ATOM     18  C   UNL     1      -4.290   1.116   2.545  0.00  0.00    +0.125 C 
ATOM     19  C   UNL     1      -3.832   0.858   1.106  0.00  0.00    +0.102 C 
BRANCH  14  20
ATOM     20  C   UNL     1      -1.927   0.997  -0.382  0.00  0.00    +0.053 C 
ATOM     21  C   UNL     1      -2.150  -0.418  -0.921  0.00  0.00    +0.024 C 
BRANCH  20  23
ATOM     22  C   UNL     1      -0.230   2.796  -0.031  0.00  0.00    +0.005 C 
ATOM     23  C   UNL     1      -0.438   1.340  -0.452  0.00  0.00    +0.015 C 
ENDBRANCH  20  23
ENDBRANCH  14  20
ENDBRANCH   1  17
TORSDOF 5
