REMARK  Name = ZINC36360344
REMARK  7 active torsions:
REMARK  status: ('A' for Active; 'I' for Inactive)
REMARK    1  A    between atoms: C_1  and  O_2
REMARK    2  A    between atoms: O_2  and  C_3
REMARK    3  A    between atoms: C_6  and  C_13
REMARK    4  A    between atoms: C_7  and  O_11
REMARK    5  A    between atoms: C_8  and  O_9
REMARK    6  A    between atoms: O_9  and  C_10
REMARK    7  A    between atoms: O_11  and  C_12
REMARK                            x       y       z     vdW  Elec       q    Type
REMARK                         _______ _______ _______ _____ _____    ______ ____
ROOT
ATOM      1  C   UNL     1       2.595  -2.541   4.320  0.00  0.00    +0.072 C 
ATOM      2  C   UNL     1       4.062  -2.091   4.378  0.00  0.00    +0.109 C 
ATOM      3  C   UNL     1       4.649  -2.369   5.732  0.00  0.00    +0.219 C 
ATOM      4  O   UNL     1       5.802  -2.741   5.796  0.00  0.00    -0.275 OA
ATOM      5  N   UNL     1       3.959  -2.227   6.878  0.00  0.00    -0.270 N 
ATOM      6  C   UNL     1       2.560  -2.000   6.806  0.00  0.00    +0.138 A 
ATOM      7  C   UNL     1       1.939  -2.150   5.598  0.00  0.00    +0.041 A 
ATOM      8  S   UNL     1       0.256  -1.773   5.980  0.00  0.00    -0.055 S 
ATOM      9  C   UNL     1       0.463  -1.483   7.628  0.00  0.00    +0.163 A 
ATOM     10  N   UNL     1       1.756  -1.668   7.810  0.00  0.00    -0.210 NA
ATOM     11  N   UNL     1      -0.495  -1.133   8.566  0.00  0.00    -0.310 N 
ATOM     12  C   UNL     1      -1.903  -0.974   8.176  0.00  0.00    +0.107 C 
ATOM     13  C   UNL     1      -2.769  -1.852   9.084  0.00  0.00    +0.019 C 
ATOM     14  C   UNL     1      -2.480  -1.507  10.547  0.00  0.00    +0.003 C 
ATOM     15  C   UNL     1      -1.009  -1.793  10.859  0.00  0.00    +0.019 C 
ATOM     16  C   UNL     1      -0.124  -0.920   9.972  0.00  0.00    +0.107 C 
ATOM     17  H   UNL     1       4.408  -2.277   7.736  0.00  0.00    +0.156 HD
ENDROOT
BRANCH   1  21
ATOM     18  C   UNL     1       0.626  -0.619   1.042  0.00  0.00    +0.165 A 
ATOM     19  C   UNL     1       1.202   0.138   2.051  0.00  0.00    +0.050 A 
ATOM     20  C   UNL     1       1.837  -0.486   3.109  0.00  0.00    +0.011 A 
ATOM     21  C   UNL     1       1.901  -1.866   3.165  0.00  0.00    +0.007 A 
ATOM     22  C   UNL     1       1.327  -2.630   2.160  0.00  0.00    +0.169 A 
ATOM     23  C   UNL     1       0.683  -2.006   1.098  0.00  0.00    +0.204 A 
BRANCH  18  25
ATOM     24  C   UNL     1      -0.017   1.425   0.010  0.00  0.00    +0.277 C 
ATOM     25  O   UNL     1       0.002  -0.004   0.002  0.00  0.00    -0.491 OA
ENDBRANCH  18  25
BRANCH  23  26
ATOM     26  O   UNL     1       0.114  -2.752   0.113  0.00  0.00    -0.488 OA
ATOM     27  C   UNL     1       0.939  -3.090  -1.004  0.00  0.00    +0.277 C 
ENDBRANCH  23  26
BRANCH  22  28
ATOM     28  O   UNL     1       1.391  -3.987   2.216  0.00  0.00    -0.491 OA
ATOM     29  C   UNL     1       0.325  -4.659   2.888  0.00  0.00    +0.277 C 
ENDBRANCH  22  28
ENDBRANCH   1  21
TORSDOF 4
