REMARK  Name = ZINC00555584
REMARK  8 active torsions:
REMARK  status: ('A' for Active; 'I' for Inactive)
REMARK    1  A    between atoms: C_1  and  C_2
REMARK    2  A    between atoms: C_2  and  O_3
REMARK    3  A    between atoms: O_3  and  C_4
REMARK    4  A    between atoms: C_7  and  C_12
REMARK    5  A    between atoms: C_9  and  O_10
REMARK    6  A    between atoms: O_10  and  C_11
REMARK    7  A    between atoms: C_14  and  C_25
REMARK    8  A    between atoms: C_15  and  N_24
REMARK                            x       y       z     vdW  Elec       q    Type
REMARK                         _______ _______ _______ _____ _____    ______ ____
ROOT
ATOM      1  C   UNL     1      -1.358   2.097   0.020  0.00  0.00    +0.101 C 
ATOM      2  C   UNL     1      -1.205   3.529  -0.407  0.00  0.00    +0.098 C 
ATOM      3  C   UNL     1       0.012   4.125  -0.383  0.00  0.00    +0.198 C 
ATOM      4  O   UNL     1       1.106   3.465   0.026  0.00  0.00    -0.445 OA
ATOM      5  C   UNL     1       1.123   2.119   0.003  0.00  0.00    +0.115 C 
ATOM      6  C   UNL     1      -0.017   1.404   0.010  0.00  0.00    +0.046 C 
ATOM      7  C   UNL     1       0.002  -0.004   0.002  0.00  0.00    +0.163 C 
ATOM      8  O   UNL     1      -1.048  -0.615  -0.011  0.00  0.00    -0.292 OA
ATOM      9  C   UNL     1       1.299  -0.766   0.010  0.00  0.00    +0.080 C 
ATOM     10  C   UNL     1       2.371   0.086   0.699  0.00  0.00    +0.016 C 
ATOM     11  C   UNL     1       2.466   1.427  -0.029  0.00  0.00    +0.075 C 
ENDROOT
BRANCH   1  15
ATOM     12  C   UNL     1      -2.983   1.977   3.974  0.00  0.00    +0.162 A 
ATOM     13  C   UNL     1      -1.767   2.600   3.740  0.00  0.00    +0.050 A 
ATOM     14  C   UNL     1      -1.242   2.632   2.462  0.00  0.00    +0.008 A 
ATOM     15  C   UNL     1      -1.933   2.054   1.413  0.00  0.00    -0.031 A 
ATOM     16  C   UNL     1      -3.146   1.431   1.639  0.00  0.00    +0.054 A 
ATOM     17  C   UNL     1      -3.675   1.391   2.919  0.00  0.00    +0.162 A 
BRANCH  17  18
ATOM     18  O   UNL     1      -4.869   0.778   3.144  0.00  0.00    -0.491 OA
ATOM     19  C   UNL     1      -5.523   0.198   2.014  0.00  0.00    +0.277 C 
ENDBRANCH  17  18
BRANCH  12  20
ATOM     20  O   UNL     1      -3.498   1.940   5.232  0.00  0.00    -0.489 OA
BRANCH  20  22
ATOM     21  C   UNL     1      -3.467   2.420   7.600  0.00  0.00    +0.048 C 
ATOM     22  C   UNL     1      -2.733   2.562   6.266  0.00  0.00    +0.226 C 
ENDBRANCH  20  22
ENDBRANCH  12  20
ENDBRANCH   1  15
BRANCH   3  23
ATOM     23  N   UNL     1       0.127   5.433  -0.786  0.00  0.00    -0.328 N 
ATOM     24  H   UNL     1       0.993   5.870  -0.773  0.00  0.00    +0.145 HD
ATOM     25  H   UNL     1      -0.657   5.919  -1.084  0.00  0.00    +0.145 HD
ENDBRANCH   3  23
BRANCH   2  26
ATOM     26  C   UNL     1      -2.351   4.266  -0.846  0.00  0.00    +0.101 C 
ATOM     27  N   UNL     1      -3.260   4.851  -1.194  0.00  0.00    -0.191 NA
ENDBRANCH   2  26
TORSDOF 6
