REMARK  Name = ZINC23259846
REMARK  9 active torsions:
REMARK  status: ('A' for Active; 'I' for Inactive)
REMARK    1  A    between atoms: C_1  and  C_2
REMARK    2  A    between atoms: C_2  and  C_4
REMARK    3  A    between atoms: C_2  and  N_14
REMARK    4  A    between atoms: C_7  and  S_10
REMARK    5  A    between atoms: S_10  and  N_13
REMARK    6  A    between atoms: N_14  and  C_15
REMARK    7  A    between atoms: N_14  and  C_16
REMARK    8  A    between atoms: C_16  and  C_17
REMARK    9  A    between atoms: N_19  and  C_20
REMARK                            x       y       z     vdW  Elec       q    Type
REMARK                         _______ _______ _______ _____ _____    ______ ____
ROOT
ATOM      1  N   UNL     1      -2.662   5.064   5.918  0.00  0.00    +0.388 N 
ATOM      2  C   UNL     1      -2.759   6.527   5.997  0.00  0.00    -0.095 C 
ATOM      3  H   UNL     1      -1.607   4.804   5.744  0.00  0.00    -0.081 HD
ENDROOT
BRANCH   1   5
ATOM      4  C   UNL     1      -4.872   5.096   4.863  0.00  0.00    -0.008 C 
ATOM      5  C   UNL     1      -3.446   4.544   4.790  0.00  0.00    -0.041 C 
BRANCH   5   6
ATOM      6  C   UNL     1      -2.808   4.973   3.494  0.00  0.00    -0.061 A 
ATOM      7  C   UNL     1      -3.592   5.192   2.377  0.00  0.00    +0.004 A 
ATOM      8  C   UNL     1      -3.006   5.586   1.188  0.00  0.00    +0.029 A 
ATOM      9  C   UNL     1      -1.637   5.761   1.117  0.00  0.00    +0.105 A 
ATOM     10  C   UNL     1      -0.853   5.538   2.233  0.00  0.00    +0.029 A 
ATOM     11  C   UNL     1      -1.439   5.149   3.423  0.00  0.00    +0.004 A 
BRANCH   9  12
ATOM     12  S   UNL     1      -0.890   6.263  -0.398  0.00  0.00    +0.056 S 
ATOM     13  O   UNL     1      -1.778   5.873  -1.437  0.00  0.00    -0.153 OA
ATOM     14  O   UNL     1       0.462   5.829  -0.348  0.00  0.00    -0.153 OA
BRANCH  12  15
ATOM     15  N   UNL     1      -0.856   7.919  -0.402  0.00  0.00    -0.204 NA
ATOM     16  H   UNL     1      -0.395   8.274  -1.336  0.00  0.00    +0.144 HD
ATOM     17  H   UNL     1      -0.267   8.275   0.456  0.00  0.00    +0.144 HD
ENDBRANCH  12  15
ENDBRANCH   9  12
ENDBRANCH   5   6
ENDBRANCH   1   5
BRANCH   1  18
ATOM     18  C   UNL     1      -3.078   4.439   7.181  0.00  0.00    +0.019 C 
BRANCH  18  19
ATOM     19  C   UNL     1      -2.101   4.806   8.268  0.00  0.00    +0.201 C 
ATOM     20  O   UNL     1      -1.151   5.517   8.016  0.00  0.00    -0.278 OA
ATOM     21  N   UNL     1      -2.283   4.343   9.521  0.00  0.00    -0.285 N 
ATOM     22  H   UNL     1      -3.175   3.747   9.763  0.00  0.00    +0.155 HD
BRANCH  21  23
ATOM     23  C   UNL     1      -1.335   4.621  10.514  0.00  0.00    +0.073 A 
ATOM     24  C   UNL     1       0.021   4.535  10.226  0.00  0.00    +0.082 A 
ATOM     25  C   UNL     1       0.954   4.816  11.207  0.00  0.00    +0.063 A 
ATOM     26  C   UNL     1       0.538   5.170  12.479  0.00  0.00    +0.043 A 
ATOM     27  C   UNL     1      -0.812   5.250  12.770  0.00  0.00    +0.063 A 
ATOM     28  C   UNL     1      -1.750   4.976  11.791  0.00  0.00    +0.082 A 
ATOM     29 CL   UNL     1      -3.444   5.078  12.158  0.00  0.00    -0.080 Cl
ATOM     30 CL   UNL     1      -1.329   5.696  14.367  0.00  0.00    -0.082 Cl
ATOM     31 CL   UNL     1       2.649   4.718  10.846  0.00  0.00    -0.082 Cl
ATOM     32 CL   UNL     1       0.544   4.084   8.633  0.00  0.00    -0.080 Cl
ENDBRANCH  21  23
ENDBRANCH  18  19
ENDBRANCH   1  18
TORSDOF 7
