REMARK  Name = ZINC40174440
REMARK  13 active torsions:
REMARK  status: ('A' for Active; 'I' for Inactive)
REMARK    1  A    between atoms: C_1  and  C_2
REMARK    2  A    between atoms: C_2  and  C_3
REMARK    3  A    between atoms: C_3  and  C_5
REMARK    4  A    between atoms: C_3  and  N_23
REMARK    5  A    between atoms: N_7  and  C_8
REMARK    6  A    between atoms: C_11  and  S_14
REMARK    7  A    between atoms: S_14  and  N_17
REMARK    8  A    between atoms: C_27  and  S_28
REMARK    9  A    between atoms: S_28  and  C_29
REMARK   10  A    between atoms: C_29  and  C_30
REMARK   11  A    between atoms: C_30  and  O_32
REMARK   12  A    between atoms: O_32  and  C_33
REMARK   13  A    between atoms: C_33  and  C_34
REMARK                            x       y       z     vdW  Elec       q    Type
REMARK                         _______ _______ _______ _____ _____    ______ ____
ROOT
ATOM      1  C   UNL     1      -1.553  -0.254  -1.534  0.00  0.00    +0.240 C 
ATOM      2  O   UNL     1      -1.543  -1.126  -2.377  0.00  0.00    -0.273 OA
ATOM      3  N   UNL     1      -2.166   0.920  -1.786  0.00  0.00    -0.284 N 
ATOM      4  H   UNL     1      -2.254   1.582  -1.083  0.00  0.00    +0.155 HD
ENDROOT
BRANCH   3   5
ATOM      5  C   UNL     1      -2.675   1.183  -3.063  0.00  0.00    +0.034 A 
ATOM      6  C   UNL     1      -3.154   0.143  -3.849  0.00  0.00    +0.025 A 
ATOM      7  C   UNL     1      -3.656   0.406  -5.109  0.00  0.00    +0.030 A 
ATOM      8  C   UNL     1      -3.683   1.704  -5.587  0.00  0.00    +0.106 A 
ATOM      9  C   UNL     1      -3.207   2.741  -4.806  0.00  0.00    +0.030 A 
ATOM     10  C   UNL     1      -2.709   2.486  -3.543  0.00  0.00    +0.025 A 
BRANCH   8  11
ATOM     11  S   UNL     1      -4.324   2.035  -7.194  0.00  0.00    +0.061 S 
ATOM     12  O   UNL     1      -3.736   3.256  -7.622  0.00  0.00    -0.153 OA
ATOM     13  O   UNL     1      -4.203   0.830  -7.936  0.00  0.00    -0.153 OA
BRANCH  11  14
ATOM     14  N   UNL     1      -5.946   2.325  -7.024  0.00  0.00    -0.177 NA
ATOM     15  C   UNL     1      -6.915   1.224  -7.100  0.00  0.00    +0.109 C 
ATOM     16  C   UNL     1      -7.792   1.250  -5.844  0.00  0.00    +0.017 C 
ATOM     17  C   UNL     1      -8.425   2.635  -5.697  0.00  0.00    +0.003 C 
ATOM     18  C   UNL     1      -7.324   3.687  -5.540  0.00  0.00    +0.017 C 
ATOM     19  C   UNL     1      -6.442   3.688  -6.787  0.00  0.00    +0.109 C 
ENDBRANCH  11  14
ENDBRANCH   8  11
ENDBRANCH   3   5
BRANCH   1  20
ATOM     20  C   UNL     1      -0.880  -0.482  -0.205  0.00  0.00    +0.178 C 
BRANCH  20  21
ATOM     21  N   UNL     1      -0.878  -1.915   0.101  0.00  0.00    -0.279 N 
ATOM     22  C   UNL     1      -0.289  -2.895  -0.648  0.00  0.00    +0.216 A 
ATOM     23  N   UNL     1      -0.501  -4.042  -0.052  0.00  0.00    -0.113 NA
ATOM     24  N   UNL     1      -1.245  -3.796   1.110  0.00  0.00    -0.121 NA
ATOM     25  C   UNL     1      -1.458  -2.505   1.188  0.00  0.00    +0.194 A 
ATOM     26  N   UNL     1       0.410  -2.708  -1.833  0.00  0.00    -0.328 N 
ATOM     27  H   UNL     1       0.515  -1.815  -2.199  0.00  0.00    +0.145 HD
ATOM     28  H   UNL     1       0.795  -3.469  -2.295  0.00  0.00    +0.145 HD
BRANCH  25  29
ATOM     29  S   UNL     1      -2.342  -1.677   2.468  0.00  0.00    -0.075 S 
BRANCH  29  30
ATOM     30  C   UNL     1      -2.845  -3.011   3.589  0.00  0.00    +0.197 C 
BRANCH  30  31
ATOM     31  C   UNL     1      -3.620  -2.432   4.744  0.00  0.00    +0.317 C 
ATOM     32  O   UNL     1      -3.813  -1.241   4.804  0.00  0.00    -0.250 OA
BRANCH  31  33
ATOM     33  O   UNL     1      -4.096  -3.239   5.705  0.00  0.00    -0.464 OA
BRANCH  33  34
ATOM     34  C   UNL     1      -4.822  -2.622   6.770  0.00  0.00    +0.229 C 
ATOM     35  C   UNL     1      -5.281  -3.693   7.762  0.00  0.00    +0.048 C 
ENDBRANCH  33  34
ENDBRANCH  31  33
ENDBRANCH  30  31
ENDBRANCH  29  30
ENDBRANCH  25  29
ENDBRANCH  20  21
BRANCH  20  37
ATOM     36  C   UNL     1       1.182  -0.023   1.128  0.00  0.00    +0.006 C 
ATOM     37  C   UNL     1       0.561   0.028  -0.269  0.00  0.00    +0.031 C 
ENDBRANCH  20  37
ENDBRANCH   1  20
TORSDOF 11
