REMARK  Name = ZINC08883420
REMARK  8 active torsions:
REMARK  status: ('A' for Active; 'I' for Inactive)
REMARK    1  A    between atoms: C_1  and  C_2
REMARK    2  A    between atoms: C_2  and  C_24
REMARK    3  A    between atoms: N_5  and  N_9
REMARK    4  A    between atoms: C_10  and  C_12
REMARK    5  A    between atoms: C_12  and  O_13
REMARK    6  A    between atoms: O_13  and  C_14
REMARK    7  A    between atoms: C_14  and  C_16
REMARK    8  A    between atoms: C_21  and  O_22
REMARK                            x       y       z     vdW  Elec       q    Type
REMARK                         _______ _______ _______ _____ _____    ______ ____
ROOT
ATOM      1  N   UNL     1      -2.518  -1.955   1.783  0.00  0.00    -0.221 N 
ATOM      2  C   UNL     1      -2.586  -3.298   1.684  0.00  0.00    +0.267 C 
ATOM      3  O   UNL     1      -1.682  -3.914   1.162  0.00  0.00    -0.271 OA
ATOM      4  H   UNL     1      -3.242  -1.462   2.200  0.00  0.00    +0.174 HD
ENDROOT
BRANCH   1   9
ATOM      5  C   UNL     1      -0.019   1.526   0.010  0.00  0.00    +0.047 C 
ATOM      6  C   UNL     1       0.002  -0.004   0.002  0.00  0.00    +0.137 C 
ATOM      7  C   UNL     1      -1.403  -0.557   0.139  0.00  0.00    +0.267 C 
ATOM      8  O   UNL     1      -2.332  -0.392  -0.621  0.00  0.00    -0.271 OA
ATOM      9  N   UNL     1      -1.403  -1.272   1.282  0.00  0.00    -0.137 N 
ATOM     10  C   UNL     1      -0.206  -1.247   1.879  0.00  0.00    +0.327 C 
ATOM     11  O   UNL     1       0.040  -1.819   2.924  0.00  0.00    -0.251 OA
ATOM     12  N   UNL     1       0.695  -0.520   1.195  0.00  0.00    -0.280 N 
ATOM     13  H   UNL     1       1.621  -0.365   1.440  0.00  0.00    +0.152 HD
BRANCH   6  14
ATOM     14  C   UNL     1       0.657  -0.517  -1.255  0.00  0.00    -0.015 A 
ATOM     15  C   UNL     1      -0.107  -0.772  -2.378  0.00  0.00    +0.006 A 
ATOM     16  C   UNL     1       0.493  -1.242  -3.530  0.00  0.00    +0.000 A 
ATOM     17  C   UNL     1       1.859  -1.457  -3.560  0.00  0.00    +0.000 A 
ATOM     18  C   UNL     1       2.623  -1.202  -2.437  0.00  0.00    +0.000 A 
ATOM     19  C   UNL     1       2.023  -0.727  -1.286  0.00  0.00    +0.006 A 
ENDBRANCH   6  14
ENDBRANCH   1   9
BRANCH   2  20
ATOM     20  C   UNL     1      -3.787  -4.033   2.223  0.00  0.00    +0.329 C 
BRANCH  20  21
ATOM     21  O   UNL     1      -3.625  -5.435   2.002  0.00  0.00    -0.452 OA
BRANCH  21  22
ATOM     22  C   UNL     1      -4.618  -6.240   2.428  0.00  0.00    +0.343 C 
ATOM     23  O   UNL     1      -5.594  -5.765   2.972  0.00  0.00    -0.245 OA
BRANCH  22  24
ATOM     24  C   UNL     1      -4.520  -7.698   2.233  0.00  0.00    +0.101 A 
ATOM     25  C   UNL     1      -3.396  -8.250   1.613  0.00  0.00    +0.034 A 
ATOM     26  C   UNL     1      -3.310  -9.615   1.435  0.00  0.00    +0.019 A 
ATOM     27  C   UNL     1      -4.334 -10.442   1.868  0.00  0.00    +0.019 A 
ATOM     28  C   UNL     1      -5.449  -9.909   2.483  0.00  0.00    +0.047 A 
ATOM     29  C   UNL     1      -5.550  -8.540   2.675  0.00  0.00    +0.131 A 
ATOM     30 BR   UNL     1      -1.789 -10.361   0.594  0.00  0.00    -0.050 Br
BRANCH  29  31
ATOM     31  O   UNL     1      -6.644  -8.016   3.284  0.00  0.00    -0.506 OA
ATOM     32  H   UNL     1      -7.360  -7.786   2.676  0.00  0.00    +0.292 HD
ENDBRANCH  29  31
ENDBRANCH  22  24
ENDBRANCH  21  22
ENDBRANCH  20  21
ENDBRANCH   2  20
TORSDOF 7
