REMARK  Name = ZINC32823468
REMARK  7 active torsions:
REMARK  status: ('A' for Active; 'I' for Inactive)
REMARK    1  A    between atoms: C_1  and  C_2
REMARK    2  A    between atoms: N_4  and  C_5
REMARK    3  A    between atoms: C_7  and  C_15
REMARK    4  A    between atoms: C_9  and  N_11
REMARK    5  A    between atoms: C_12  and  C_14
REMARK    6  A    between atoms: N_17  and  N_18
REMARK    7  A    between atoms: C_19  and  C_21
REMARK                            x       y       z     vdW  Elec       q    Type
REMARK                         _______ _______ _______ _____ _____    ______ ____
ROOT
ATOM      1  C   UNL     1      -0.186   5.269  -0.441  0.00  0.00    +0.260 C 
ATOM      2  O   UNL     1       0.845   5.892  -0.605  0.00  0.00    -0.269 OA
ATOM      3  N   UNL     1      -1.369   5.913  -0.439  0.00  0.00    -0.230 N 
ATOM      4  H   UNL     1      -2.302   5.349  -0.291  0.00  0.00    +0.173 HD
ENDROOT
BRANCH   1   7
ATOM      5  C   UNL     1      -1.277   1.713   0.123  0.00  0.00    +0.036 A 
ATOM      6  C   UNL     1      -1.322   3.087  -0.056  0.00  0.00    +0.036 A 
ATOM      7  C   UNL     1      -0.141   3.804  -0.244  0.00  0.00    +0.042 A 
ATOM      8  C   UNL     1       1.084   3.136  -0.245  0.00  0.00    +0.036 A 
ATOM      9  C   UNL     1       1.123   1.762  -0.060  0.00  0.00    +0.036 A 
ATOM     10  C   UNL     1      -0.056   1.052   0.126  0.00  0.00    +0.046 A 
BRANCH   5  14
ATOM     11  C   UNL     1      -4.830   0.523  -0.233  0.00  0.00    +0.109 C 
ATOM     12  C   UNL     1      -3.582   1.359  -0.348  0.00  0.00    +0.214 C 
ATOM     13  O   UNL     1      -3.584   2.362  -1.030  0.00  0.00    -0.276 OA
ATOM     14  N   UNL     1      -2.462   0.992   0.306  0.00  0.00    -0.286 N 
ATOM     15  H   UNL     1      -2.480   0.126   0.984  0.00  0.00    +0.155 HD
ENDBRANCH   5  14
BRANCH   9  16
ATOM     16  N   UNL     1       2.351   1.091  -0.062  0.00  0.00    -0.286 N 
ATOM     17  C   UNL     1       3.451   1.699   0.424  0.00  0.00    +0.214 C 
ATOM     18  O   UNL     1       3.361   2.790   0.946  0.00  0.00    -0.276 OA
ATOM     19  C   UNL     1       4.794   1.022   0.318  0.00  0.00    +0.109 C 
ATOM     20  H   UNL     1       2.417   0.068  -0.459  0.00  0.00    +0.155 HD
ENDBRANCH   9  16
ENDBRANCH   1   7
BRANCH   3  21
ATOM     21  N   UNL     1      -1.412   7.301  -0.627  0.00  0.00    -0.230 N 
ATOM     22  C   UNL     1      -2.596   7.945  -0.625  0.00  0.00    +0.267 C 
ATOM     23  O   UNL     1      -3.628   7.321  -0.460  0.00  0.00    -0.268 OA
ATOM     24  H   UNL     1      -0.480   7.865  -0.775  0.00  0.00    +0.173 HD
BRANCH  22  25
ATOM     25  C   UNL     1      -2.641   9.397  -0.821  0.00  0.00    +0.076 A 
ATOM     26  C   UNL     1      -3.737  10.240  -0.853  0.00  0.00    +0.024 A 
ATOM     27  C   UNL     1      -3.513  11.597  -1.049  0.00  0.00    -0.036 A 
ATOM     28  C   UNL     1      -2.227  11.980  -1.222  0.00  0.00    -0.006 A 
ATOM     29  S   UNL     1      -1.294  10.542  -1.073  0.00  0.00    -0.088 S 
ATOM     30  C   UNL     1      -1.731  13.380  -1.503  0.00  0.00    +0.043 C 
ATOM     31  C   UNL     1      -1.976  14.212  -0.232  0.00  0.00    +0.005 C 
ATOM     32  C   UNL     1      -3.425  14.629  -0.150  0.00  0.00    +0.001 C 
ATOM     33  C   UNL     1      -4.419  13.543   0.172  0.00  0.00    +0.005 C 
ATOM     34  C   UNL     1      -4.660  12.614  -1.019  0.00  0.00    +0.036 C 
ENDBRANCH  22  25
ENDBRANCH   3  21
TORSDOF 5
