REMARK  Name = ZINC38612445
REMARK  9 active torsions:
REMARK  status: ('A' for Active; 'I' for Inactive)
REMARK    1  A    between atoms: C_1  and  C_2
REMARK    2  A    between atoms: C_2  and  O_3
REMARK    3  A    between atoms: O_3  and  C_4
REMARK    4  A    between atoms: C_4  and  C_6
REMARK    5  A    between atoms: C_8  and  N_17
REMARK    6  A    between atoms: C_18  and  C_20
REMARK    7  A    between atoms: C_20  and  C_21
REMARK    8  A    between atoms: C_21  and  C_22
REMARK    9  A    between atoms: C_21  and  C_28
REMARK                            x       y       z     vdW  Elec       q    Type
REMARK                         _______ _______ _______ _____ _____    ______ ____
ROOT
ATOM      1  N   UNL     1       0.152  -1.283  -4.266  0.00  0.00    -0.286 N 
ATOM      2  C   UNL     1      -0.752  -1.339  -5.264  0.00  0.00    +0.218 C 
ATOM      3  O   UNL     1      -1.188  -2.410  -5.627  0.00  0.00    -0.275 OA
ATOM      4  H   UNL     1       0.439  -0.424  -3.919  0.00  0.00    +0.155 HD
ENDROOT
BRANCH   1   6
ATOM      5  C   UNL     1       0.474  -3.838  -4.271  0.00  0.00    +0.234 C 
ATOM      6  C   UNL     1       0.662  -2.433  -3.743  0.00  0.00    +0.053 C 
ATOM      7  C   UNL     1       1.462  -2.558  -2.620  0.00  0.00    +0.019 A 
ATOM      8  C   UNL     1       1.978  -1.609  -1.705  0.00  0.00    +0.026 A 
ATOM      9  C   UNL     1       2.752  -2.024  -0.671  0.00  0.00    +0.019 A 
ATOM     10  C   UNL     1       3.058  -3.376  -0.481  0.00  0.00    +0.017 A 
ATOM     11  C   UNL     1       2.598  -4.338  -1.317  0.00  0.00    +0.027 A 
ATOM     12  C   UNL     1       1.782  -3.982  -2.422  0.00  0.00    +0.045 A 
ATOM     13  N   UNL     1       1.219  -4.716  -3.363  0.00  0.00    -0.367 N 
ATOM     14 BR   UNL     1       3.434  -0.745   0.542  0.00  0.00    -0.050 Br
ATOM     15  H   UNL     1       1.286  -5.681  -3.442  0.00  0.00    +0.161 HD
BRANCH   5  16
ATOM     16  C   UNL     1       1.029  -3.946  -5.668  0.00  0.00    +0.336 C 
ATOM     17  O   UNL     1       2.169  -4.308  -5.840  0.00  0.00    -0.248 OA
BRANCH  16  18
ATOM     18  O   UNL     1       0.256  -3.640  -6.723  0.00  0.00    -0.463 OA
BRANCH  18  20
ATOM     19  C   UNL     1      -0.178  -3.377  -9.085  0.00  0.00    +0.048 C 
ATOM     20  C   UNL     1       0.847  -3.766  -8.018  0.00  0.00    +0.229 C 
ENDBRANCH  18  20
ENDBRANCH  16  18
ENDBRANCH   5  16
ENDBRANCH   1   6
BRANCH   2  21
ATOM     21  C   UNL     1      -1.221  -0.070  -5.928  0.00  0.00    +0.109 C 
BRANCH  21  22
ATOM     22  C   UNL     1      -2.238  -0.411  -7.019  0.00  0.00    +0.058 C 
BRANCH  22  23
ATOM     23  C   UNL     1      -3.469  -1.010  -6.389  0.00  0.00    -0.040 A 
ATOM     24  C   UNL     1      -4.271  -1.868  -7.117  0.00  0.00    +0.004 A 
ATOM     25  C   UNL     1      -5.400  -2.417  -6.539  0.00  0.00    +0.000 A 
ATOM     26  C   UNL     1      -5.727  -2.108  -5.232  0.00  0.00    +0.000 A 
ATOM     27  C   UNL     1      -4.925  -1.251  -4.503  0.00  0.00    +0.000 A 
ATOM     28  C   UNL     1      -3.793  -0.705  -5.080  0.00  0.00    +0.004 A 
ENDBRANCH  22  23
BRANCH  22  29
ATOM     29  C   UNL     1      -2.615   0.843  -7.765  0.00  0.00    -0.040 A 
ATOM     30  C   UNL     1      -3.091   1.941  -7.074  0.00  0.00    +0.004 A 
ATOM     31  C   UNL     1      -3.437   3.091  -7.758  0.00  0.00    +0.000 A 
ATOM     32  C   UNL     1      -3.305   3.144  -9.133  0.00  0.00    +0.000 A 
ATOM     33  C   UNL     1      -2.828   2.046  -9.824  0.00  0.00    +0.000 A 
ATOM     34  C   UNL     1      -2.478   0.897  -9.139  0.00  0.00    +0.004 A 
ENDBRANCH  22  29
ENDBRANCH  21  22
ENDBRANCH   2  21
TORSDOF 8
