REMARK  Name = ZINC34747412
REMARK  6 active torsions:
REMARK  status: ('A' for Active; 'I' for Inactive)
REMARK    1  A    between atoms: C_4  and  C_7
REMARK    2  A    between atoms: C_7  and  C_8
REMARK    3  A    between atoms: C_8  and  C_9
REMARK    4  A    between atoms: C_9  and  N_10
REMARK    5  A    between atoms: N_23  and  C_26
REMARK    6  A    between atoms: C_26  and  C_27
REMARK                            x       y       z     vdW  Elec       q    Type
REMARK                         _______ _______ _______ _____ _____    ______ ____
ROOT
ATOM      1  N   UNL     1       6.040  -2.023   2.720  0.00  0.00    -0.280 N 
ATOM      2  C   UNL     1       6.891  -1.159   3.304  0.00  0.00    +0.264 A 
ATOM      3  O   UNL     1       7.374  -0.240   2.665  0.00  0.00    -0.267 OA
ATOM      4  C   UNL     1       7.222  -1.335   4.685  0.00  0.00    +0.076 A 
ATOM      5  C   UNL     1       8.117  -0.526   5.514  0.00  0.00    -0.023 A 
ATOM      6  C   UNL     1       8.264  -0.900   6.801  0.00  0.00    -0.004 A 
ATOM      7  S   UNL     1       7.236  -2.333   6.985  0.00  0.00    -0.073 S 
ATOM      8  C   UNL     1       6.610  -2.425   5.327  0.00  0.00    +0.117 A 
ATOM      9  N   UNL     1       5.777  -3.241   4.691  0.00  0.00    -0.208 NA
ATOM     10  C   UNL     1       5.485  -3.053   3.421  0.00  0.00    +0.202 A 
ATOM     11  N   UNL     1       4.616  -3.909   2.792  0.00  0.00    -0.304 N 
ATOM     12  C   UNL     1       5.106  -5.114   2.104  0.00  0.00    +0.089 C 
ATOM     13  C   UNL     1       4.290  -6.316   2.590  0.00  0.00    -0.059 C 
ATOM     14  N   UNL     1       2.860  -6.047   2.396  0.00  0.00    +0.387 N 
ATOM     15  C   UNL     1       2.444  -4.920   3.240  0.00  0.00    -0.059 C 
ATOM     16  C   UNL     1       3.168  -3.651   2.791  0.00  0.00    +0.089 C 
ATOM     17  C   UNL     1       9.116  -0.245   7.846  0.00  0.00    +0.043 C 
ATOM     18  C   UNL     1      10.095   0.707   7.145  0.00  0.00    +0.005 C 
ATOM     19  C   UNL     1       9.316   1.559   6.139  0.00  0.00    +0.005 C 
ATOM     20  C   UNL     1       8.858   0.690   4.966  0.00  0.00    +0.037 C 
ATOM     21  H   UNL     1       2.691  -5.821   1.427  0.00  0.00    -0.081 HD
ENDROOT
BRANCH   1  22
ATOM     22  C   UNL     1       5.697  -1.849   1.307  0.00  0.00    +0.128 C 
BRANCH  22  23
ATOM     23  C   UNL     1       4.555  -0.838   1.180  0.00  0.00    +0.026 C 
BRANCH  23  24
ATOM     24  C   UNL     1       4.197  -0.656  -0.297  0.00  0.00    +0.037 C 
BRANCH  24  28
ATOM     25  C   UNL     1       1.009   2.164  -0.654  0.00  0.00    +0.000 A 
ATOM     26  C   UNL     1       2.321   2.598  -0.679  0.00  0.00    +0.000 A 
ATOM     27  C   UNL     1       3.353   1.685  -0.563  0.00  0.00    +0.003 A 
ATOM     28  C   UNL     1       3.072   0.339  -0.422  0.00  0.00    -0.047 A 
ATOM     29  C   UNL     1       1.760  -0.095  -0.396  0.00  0.00    +0.003 A 
ATOM     30  C   UNL     1       0.728   0.818  -0.513  0.00  0.00    +0.000 A 
ENDBRANCH  24  28
ENDBRANCH  23  24
ENDBRANCH  22  23
ENDBRANCH   1  22
BRANCH  14  31
ATOM     31  C   UNL     1       2.085  -7.241   2.759  0.00  0.00    +0.018 C 
BRANCH  31  32
ATOM     32  C   UNL     1       0.630  -7.010   2.444  0.00  0.00    +0.194 C 
ATOM     33  O   UNL     1       0.273  -5.954   1.965  0.00  0.00    -0.278 OA
ATOM     34  N   UNL     1      -0.276  -7.976   2.696  0.00  0.00    -0.331 N 
ATOM     35  H   UNL     1       0.009  -8.820   3.079  0.00  0.00    +0.145 HD
ATOM     36  H   UNL     1      -1.213  -7.827   2.493  0.00  0.00    +0.145 HD
ENDBRANCH  31  32
ENDBRANCH  14  31
TORSDOF 6
