REMARK  Name = ZINC34812547
REMARK  2 active torsions:
REMARK  status: ('A' for Active; 'I' for Inactive)
REMARK    1  A    between atoms: C_22  and  C_24
REMARK    2  A    between atoms: C_29  and  C_30
REMARK                            x       y       z     vdW  Elec       q    Type
REMARK                         _______ _______ _______ _____ _____    ______ ____
ROOT
ATOM      1  C   UNL     1      -0.470   1.179   0.630  0.00  0.00    +0.001 A 
ATOM      2  C   UNL     1       0.628   2.020   0.654  0.00  0.00    +0.004 A 
ATOM      3  C   UNL     1       1.902   1.507   0.490  0.00  0.00    +0.047 A 
ATOM      4  C   UNL     1       2.084   0.149   0.293  0.00  0.00    +0.139 A 
ATOM      5  C   UNL     1       0.975  -0.703   0.247  0.00  0.00    +0.057 A 
ATOM      6  C   UNL     1      -0.305  -0.176   0.430  0.00  0.00    +0.015 A 
ATOM      7  C   UNL     1       1.145  -2.139  -0.026  0.00  0.00    +0.133 C 
ATOM      8  N   UNL     1       2.102  -2.875   0.423  0.00  0.00    -0.228 NA
ATOM      9  C   UNL     1       3.117  -2.486   1.245  0.00  0.00    +0.108 A 
ATOM     10  C   UNL     1       3.529  -3.349   2.265  0.00  0.00    +0.031 A 
ATOM     11  C   UNL     1       4.575  -2.995   3.094  0.00  0.00    +0.002 A 
ATOM     12  C   UNL     1       5.222  -1.786   2.918  0.00  0.00    +0.004 A 
ATOM     13  C   UNL     1       4.815  -0.919   1.919  0.00  0.00    +0.048 A 
ATOM     14  C   UNL     1       3.758  -1.255   1.090  0.00  0.00    +0.154 A 
ATOM     15  O   UNL     1       3.336  -0.355   0.164  0.00  0.00    -0.453 OA
ATOM     16  N   UNL     1       0.204  -2.745  -0.826  0.00  0.00    -0.312 N 
ATOM     17  C   UNL     1      -0.822  -1.947  -1.512  0.00  0.00    +0.125 C 
ATOM     18  C   UNL     1      -0.756  -2.251  -3.014  0.00  0.00    +0.127 C 
ATOM     19  N   UNL     1      -0.753  -3.709  -3.198  0.00  0.00    -0.295 N 
ATOM     20  C   UNL     1       0.272  -4.507  -2.513  0.00  0.00    +0.127 C 
ATOM     21  C   UNL     1       0.210  -4.203  -1.015  0.00  0.00    +0.125 C 
ATOM     22  C   UNL     1      -1.675  -4.303  -3.982  0.00  0.00    +0.247 C 
ATOM     23  O   UNL     1      -2.473  -3.627  -4.601  0.00  0.00    -0.270 OA
ENDROOT
BRANCH  22  24
ATOM     24  C   UNL     1      -1.716  -5.777  -4.088  0.00  0.00    +0.049 A 
ATOM     25  C   UNL     1      -0.581  -6.482  -4.493  0.00  0.00    +0.013 A 
ATOM     26  C   UNL     1      -0.625  -7.857  -4.590  0.00  0.00    +0.001 A 
ATOM     27  C   UNL     1      -1.791  -8.538  -4.287  0.00  0.00    +0.001 A 
ATOM     28  C   UNL     1      -2.919  -7.845  -3.885  0.00  0.00    +0.013 A 
ATOM     29  C   UNL     1      -2.887  -6.470  -3.779  0.00  0.00    +0.067 A 
BRANCH  29  30
ATOM     30  C   UNL     1      -4.115  -5.717  -3.335  0.00  0.00    +0.418 C 
ATOM     31  F   UNL     1      -5.151  -6.623  -3.084  0.00  0.00    -0.166 F 
ATOM     32  F   UNL     1      -3.827  -5.003  -2.167  0.00  0.00    -0.166 F 
ATOM     33  F   UNL     1      -4.506  -4.828  -4.341  0.00  0.00    -0.166 F 
ENDBRANCH  29  30
ENDBRANCH  22  24
TORSDOF 2
