REMARK  Name = ZINC09530623
REMARK  8 active torsions:
REMARK  status: ('A' for Active; 'I' for Inactive)
REMARK    1  A    between atoms: C_1  and  C_2
REMARK    2  A    between atoms: C_5  and  C_8
REMARK    3  A    between atoms: C_8  and  C_10
REMARK    4  A    between atoms: C_8  and  N_49
REMARK    5  A    between atoms: C_15  and  C_16
REMARK    6  A    between atoms: C_15  and  N_49
REMARK    7  A    between atoms: N_18  and  C_19
REMARK    8  A    between atoms: C_24  and  N_25
REMARK                            x       y       z     vdW  Elec       q    Type
REMARK                         _______ _______ _______ _____ _____    ______ ____
ROOT
ATOM      1  C   UNL     1       0.012   1.105   0.003  0.00  0.00    +0.016 C 
ENDROOT
BRANCH   1   2
ATOM      2  C   UNL     1      -0.728   1.592  -1.216  0.00  0.00    +0.200 C 
ATOM      3  O   UNL     1      -1.727   2.268  -1.089  0.00  0.00    -0.278 OA
ATOM      4  N   UNL     1      -0.280   1.278  -2.447  0.00  0.00    -0.285 N 
ATOM      5  H   UNL     1       0.555   0.793  -2.550  0.00  0.00    +0.155 HD
BRANCH   4   6
ATOM      6  C   UNL     1      -1.017   1.649  -3.577  0.00  0.00    +0.060 A 
ATOM      7  C   UNL     1      -1.718   2.847  -3.588  0.00  0.00    +0.045 A 
ATOM      8  C   UNL     1      -2.442   3.214  -4.707  0.00  0.00    +0.043 A 
ATOM      9  C   UNL     1      -2.479   2.384  -5.814  0.00  0.00    +0.022 A 
ATOM     10  C   UNL     1      -1.788   1.188  -5.810  0.00  0.00    +0.031 A 
ATOM     11  C   UNL     1      -1.055   0.814  -4.693  0.00  0.00    +0.088 A 
ATOM     12 CL   UNL     1      -3.313   4.715  -4.720  0.00  0.00    -0.083 Cl
BRANCH  11  13
ATOM     13  N   UNL     1      -0.354  -0.401  -4.686  0.00  0.00    -0.218 N 
ATOM     14  C   UNL     1      -0.219  -1.261  -5.714  0.00  0.00    +0.225 A 
ATOM     15  N   UNL     1       0.508  -2.269  -5.305  0.00  0.00    -0.222 NA
ATOM     16  C   UNL     1       0.848  -2.095  -4.029  0.00  0.00    +0.245 A 
ATOM     17  N   UNL     1       0.343  -0.965  -3.605  0.00  0.00    -0.153 NA
ENDBRANCH  11  13
ENDBRANCH   4   6
ENDBRANCH   1   2
BRANCH   1  18
ATOM     18  N   UNL     1      -0.682   1.584   1.213  0.00  0.00    +0.392 N 
ATOM     19  H   UNL     1      -0.704   2.611   1.206  0.00  0.00    -0.084 HD
ATOM     20  H   UNL     1      -1.642   1.221   1.220  0.00  0.00    -0.084 HD
BRANCH  18  21
ATOM     21  C   UNL     1       0.022   1.121   2.424  0.00  0.00    -0.003 C 
BRANCH  21  26
ATOM     22  C   UNL     1      -3.716   0.909   6.826  0.00  0.00    +0.044 C 
ATOM     23  C   UNL     1      -2.741   0.965   5.678  0.00  0.00    -0.050 A 
ATOM     24  C   UNL     1      -1.794  -0.030   5.528  0.00  0.00    +0.003 A 
ATOM     25  C   UNL     1      -0.899   0.020   4.475  0.00  0.00    +0.002 A 
ATOM     26  C   UNL     1      -0.953   1.066   3.572  0.00  0.00    -0.057 A 
ATOM     27  C   UNL     1      -1.897   2.064   3.725  0.00  0.00    +0.002 A 
ATOM     28  C   UNL     1      -2.795   2.010   4.776  0.00  0.00    +0.003 A 
ENDBRANCH  21  26
BRANCH  21  29
ATOM     29  C   UNL     1       1.136   2.080   2.757  0.00  0.00    -0.020 A 
ATOM     30  C   UNL     1       2.384   1.813   3.212  0.00  0.00    +0.010 A 
ATOM     31  C   UNL     1       3.251   2.864   3.448  0.00  0.00    +0.008 A 
ATOM     32  C   UNL     1       2.822   4.131   3.228  0.00  0.00    +0.045 A 
ATOM     33  S   UNL     1       1.150   3.863   2.662  0.00  0.00    -0.103 S 
ENDBRANCH  21  29
ENDBRANCH  18  21
ENDBRANCH   1  18
TORSDOF 7
