REMARK  Name = ZINC02916678
REMARK  10 active torsions:
REMARK  status: ('A' for Active; 'I' for Inactive)
REMARK    1  A    between atoms: C_1  and  O_2
REMARK    2  A    between atoms: O_2  and  C_3
REMARK    3  A    between atoms: C_6  and  O_34
REMARK    4  A    between atoms: C_7  and  C_9
REMARK    5  A    between atoms: C_22  and  C_24
REMARK    6  A    between atoms: C_26  and  O_32
REMARK    7  A    between atoms: C_29  and  O_30
REMARK    8  A    between atoms: O_30  and  C_31
REMARK    9  A    between atoms: O_32  and  C_33
REMARK   10  A    between atoms: O_34  and  C_35
REMARK                            x       y       z     vdW  Elec       q    Type
REMARK                         _______ _______ _______ _____ _____    ______ ____
ROOT
ATOM      1  C   UNL     1      -0.411   3.787   2.374  0.00  0.00    +0.017 C 
ATOM      2  C   UNL     1      -0.470   3.087   1.229  0.00  0.00    -0.023 C 
ATOM      3  C   UNL     1      -0.238   1.592   1.218  0.00  0.00    +0.037 C 
ATOM      4  C   UNL     1       0.641   1.276  -0.000  0.00  0.00    +0.009 C 
ATOM      5  C   UNL     1      -0.109   1.665  -1.272  0.00  0.00    +0.035 C 
ATOM      6  C   UNL     1      -0.581   3.087  -1.216  0.00  0.00    -0.020 C 
ATOM      7  C   UNL     1      -0.762   3.756  -0.060  0.00  0.00    +0.046 C 
ATOM      8  N   UNL     1      -1.204   5.045  -0.047  0.00  0.00    -0.326 N 
ATOM      9  C   UNL     1      -1.483   5.748  -1.116  0.00  0.00    +0.215 C 
ATOM     10  N   UNL     1      -1.923   7.016  -1.276  0.00  0.00    -0.206 NA
ATOM     11  C   UNL     1      -2.062   7.292  -2.543  0.00  0.00    +0.203 C 
ATOM     12  N   UNL     1      -1.716   6.204  -3.285  0.00  0.00    -0.251 N 
ATOM     13  N   UNL     1      -1.343   5.208  -2.379  0.00  0.00    -0.210 N 
ATOM     14  C   UNL     1      -0.876   3.825  -2.510  0.00  0.00    +0.159 C 
ATOM     15  H   UNL     1      -1.685   6.003  -4.366  0.00  0.00    +0.171 HD
ATOM     16  H   UNL     1      -1.322   5.491   0.952  0.00  0.00    +0.169 HD
ENDROOT
BRANCH   1  21
ATOM     17  C   UNL     1      -0.790   1.196   5.065  0.00  0.00    +0.121 A 
ATOM     18  C   UNL     1      -0.042   1.760   6.090  0.00  0.00    +0.049 A 
ATOM     19  C   UNL     1       0.584   2.979   5.908  0.00  0.00    +0.050 A 
ATOM     20  C   UNL     1       0.469   3.647   4.701  0.00  0.00    +0.127 A 
ATOM     21  C   UNL     1      -0.284   3.084   3.661  0.00  0.00    +0.020 A 
ATOM     22  C   UNL     1      -0.919   1.854   3.855  0.00  0.00    +0.057 A 
BRANCH  17  24
ATOM     23  C   UNL     1      -1.232  -0.626   6.528  0.00  0.00    +0.277 C 
ATOM     24  O   UNL     1      -1.402  -0.004   5.253  0.00  0.00    -0.495 OA
ENDBRANCH  17  24
BRANCH  20  25
ATOM     25  O   UNL     1       1.085   4.845   4.523  0.00  0.00    -0.495 OA
ATOM     26  C   UNL     1       1.835   5.358   5.626  0.00  0.00    +0.277 C 
ENDBRANCH  20  25
ENDBRANCH   1  21
BRANCH  14  27
ATOM     27  C   UNL     1      -1.923   3.047  -3.264  0.00  0.00    +0.024 A 
ATOM     28  C   UNL     1      -3.246   3.442  -3.215  0.00  0.00    +0.055 A 
ATOM     29  C   UNL     1      -4.209   2.730  -3.913  0.00  0.00    +0.121 A 
ATOM     30  C   UNL     1      -3.846   1.613  -4.652  0.00  0.00    +0.049 A 
ATOM     31  C   UNL     1      -2.524   1.215  -4.697  0.00  0.00    +0.049 A 
ATOM     32  C   UNL     1      -1.560   1.931  -4.003  0.00  0.00    +0.126 A 
BRANCH  32  33
ATOM     33  O   UNL     1      -0.259   1.539  -4.047  0.00  0.00    -0.495 OA
ATOM     34  C   UNL     1       0.044   0.381  -4.828  0.00  0.00    +0.277 C 
ENDBRANCH  32  33
BRANCH  29  35
ATOM     35  O   UNL     1      -5.511   3.122  -3.869  0.00  0.00    -0.495 OA
ATOM     36  C   UNL     1      -6.450   2.338  -4.607  0.00  0.00    +0.277 C 
ENDBRANCH  29  35
ENDBRANCH  14  27
TORSDOF 6
