REMARK  Name = ZINC67392977
REMARK  8 active torsions:
REMARK  status: ('A' for Active; 'I' for Inactive)
REMARK    1  A    between atoms: C_1  and  C_2
REMARK    2  A    between atoms: N_7  and  C_9
REMARK    3  A    between atoms: C_9  and  C_10
REMARK    4  A    between atoms: C_9  and  C_11
REMARK    5  A    between atoms: C_9  and  C_12
REMARK    6  A    between atoms: C_12  and  N_13
REMARK    7  A    between atoms: C_14  and  C_16
REMARK    8  A    between atoms: N_18  and  C_19
REMARK                            x       y       z     vdW  Elec       q    Type
REMARK                         _______ _______ _______ _____ _____    ______ ____
ROOT
ATOM      1  N   UNL     1      -0.032  -4.433   2.029  0.00  0.00    -0.309 N 
ATOM      2  C   UNL     1      -0.391  -5.713   2.250  0.00  0.00    +0.299 C 
ATOM      3  O   UNL     1       0.431  -6.515   2.642  0.00  0.00    -0.265 OA
ATOM      4  H   UNL     1      -0.689  -3.792   1.716  0.00  0.00    +0.149 HD
ENDROOT
BRANCH   2   5
ATOM      5  C   UNL     1      -1.802  -6.144   2.015  0.00  0.00    +0.303 C 
ATOM      6  O   UNL     1      -2.624  -5.341   1.623  0.00  0.00    -0.265 OA
ATOM      7  N   UNL     1      -2.162  -7.423   2.237  0.00  0.00    -0.277 N 
ATOM      8  H   UNL     1      -1.492  -8.079   2.485  0.00  0.00    +0.155 HD
BRANCH   7   9
ATOM      9  C   UNL     1      -3.500  -7.805   2.109  0.00  0.00    +0.048 A 
ATOM     10  C   UNL     1      -4.335  -7.132   1.226  0.00  0.00    +0.024 A 
ATOM     11  C   UNL     1      -5.657  -7.511   1.102  0.00  0.00    +0.002 A 
ATOM     12  C   UNL     1      -6.150  -8.561   1.856  0.00  0.00    +0.001 A 
ATOM     13  C   UNL     1      -5.323  -9.234   2.736  0.00  0.00    +0.017 A 
ATOM     14  C   UNL     1      -3.997  -8.863   2.860  0.00  0.00    +0.039 A 
ATOM     15 BR   UNL     1      -2.864  -9.789   4.058  0.00  0.00    -0.048 Br
ENDBRANCH   7   9
ENDBRANCH   2   5
BRANCH   1  16
ATOM     16  C   UNL     1       1.352  -4.011   2.260  0.00  0.00    +0.092 C 
BRANCH  16  17
ATOM     17  C   UNL     1       1.470  -2.502   2.030  0.00  0.00    -0.055 C 
ATOM     18  C   UNL     1       2.929  -2.074   2.197  0.00  0.00    -0.008 C 
ATOM     19  C   UNL     1       0.601  -1.762   3.048  0.00  0.00    -0.008 C 
BRANCH  17  25
ATOM     20  C   UNL     1       0.809   1.119  -1.197  0.00  0.00    +0.005 C 
ATOM     21  C   UNL     1       0.635  -0.381  -0.951  0.00  0.00    -0.031 C 
ATOM     22  C   UNL     1       1.406  -1.166  -2.016  0.00  0.00    -0.001 C 
ATOM     23  C   UNL     1       1.290  -2.663  -1.716  0.00  0.00    -0.018 C 
ATOM     24  C   UNL     1       1.812  -2.936  -0.303  0.00  0.00    -0.078 C 
ATOM     25  N   UNL     1       1.017  -2.178   0.671  0.00  0.00    +0.384 N 
ATOM     26  C   UNL     1       1.179  -0.738   0.433  0.00  0.00    -0.075 C 
ATOM     27  H   UNL     1       0.043  -2.425   0.575  0.00  0.00    -0.081 HD
ENDBRANCH  17  25
ENDBRANCH  16  17
ENDBRANCH   1  16
TORSDOF 5
