REMARK  Name = ZINC43295324
REMARK  9 active torsions:
REMARK  status: ('A' for Active; 'I' for Inactive)
REMARK    1  A    between atoms: C_1  and  C_2
REMARK    2  A    between atoms: C_8  and  O_14
REMARK    3  A    between atoms: O_14  and  C_15
REMARK    4  A    between atoms: C_15  and  C_17
REMARK    5  A    between atoms: C_15  and  C_19
REMARK    6  A    between atoms: C_17  and  N_18
REMARK    7  A    between atoms: C_19  and  C_20
REMARK    8  A    between atoms: C_19  and  C_21
REMARK    9  A    between atoms: C_19  and  C_22
REMARK                            x       y       z     vdW  Elec       q    Type
REMARK                         _______ _______ _______ _____ _____    ______ ____
ROOT
ATOM      1  C   UNL     1       0.037   1.468   0.710  0.00  0.00    +0.073 C 
ATOM      2  C   UNL     1       0.047  -0.032   0.566  0.00  0.00    +0.076 A 
ATOM      3  N   UNL     1      -0.964  -0.854   0.492  0.00  0.00    -0.243 NA
ATOM      4  C   UNL     1      -0.814  -2.190   0.362  0.00  0.00    +0.093 A 
ATOM      5  C   UNL     1       0.521  -2.649   0.310  0.00  0.00    +0.044 A 
ATOM      6  S   UNL     1       1.445  -1.138   0.444  0.00  0.00    -0.072 S 
ATOM      7  C   UNL     1       0.834  -3.985   0.180  0.00  0.00    +0.063 A 
ATOM      8  C   UNL     1      -0.142  -4.932   0.093  0.00  0.00    +0.130 A 
ATOM      9  C   UNL     1      -1.516  -4.551   0.138  0.00  0.00    +0.033 A 
ATOM     10  C   UNL     1      -1.807  -3.188   0.271  0.00  0.00    +0.049 A 
ATOM     11  S   UNL     1      -3.581  -3.131   0.286  0.00  0.00    -0.094 S 
ATOM     12  C   UNL     1      -3.910  -4.875   0.119  0.00  0.00    +0.046 A 
ATOM     13  C   UNL     1      -2.686  -5.418   0.060  0.00  0.00    +0.020 A 
ENDROOT
BRANCH   8  14
ATOM     14  O   UNL     1       0.194  -6.243  -0.036  0.00  0.00    -0.490 OA
BRANCH  14  15
ATOM     15  C   UNL     1       1.585  -6.547  -0.156  0.00  0.00    +0.162 C 
BRANCH  15  16
ATOM     16  C   UNL     1       1.860  -7.923   0.454  0.00  0.00    -0.003 C 
ATOM     17  C   UNL     1       1.041  -8.982  -0.287  0.00  0.00    +0.014 C 
ATOM     18  C   UNL     1       3.350  -8.248   0.326  0.00  0.00    +0.014 C 
ATOM     19  C   UNL     1       1.466  -7.914   1.932  0.00  0.00    +0.014 C 
ENDBRANCH  15  16
BRANCH  15  20
ATOM     20  C   UNL     1       1.980  -6.555  -1.634  0.00  0.00    -0.041 C 
BRANCH  20  21
ATOM     21  N   UNL     1       1.828  -5.204  -2.189  0.00  0.00    +0.381 N 
ATOM     22  H   UNL     1       2.088  -5.210  -3.164  0.00  0.00    -0.090 HD
ATOM     23  H   UNL     1       0.867  -4.909  -2.099  0.00  0.00    -0.090 HD
ATOM     24  H   UNL     1       2.425  -4.564  -1.685  0.00  0.00    -0.090 HD
ENDBRANCH  20  21
ENDBRANCH  15  20
ENDBRANCH  14  15
ENDBRANCH   8  14
TORSDOF 5
