REMARK  Name = ZINC24463205
REMARK  10 active torsions:
REMARK  status: ('A' for Active; 'I' for Inactive)
REMARK    1  A    between atoms: C_1  and  C_2
REMARK    2  A    between atoms: C_7  and  C_9
REMARK    3  A    between atoms: C_7  and  C_10
REMARK    4  A    between atoms: N_13  and  C_17
REMARK    5  A    between atoms: C_17  and  C_18
REMARK    6  A    between atoms: N_20  and  N_21
REMARK    7  A    between atoms: C_22  and  C_24
REMARK    8  A    between atoms: C_27  and  C_29
REMARK    9  A    between atoms: C_29  and  O_30
REMARK   10  A    between atoms: O_30  and  C_31
REMARK                            x       y       z     vdW  Elec       q    Type
REMARK                         _______ _______ _______ _____ _____    ______ ____
ROOT
ATOM      1  C   UNL     1      -2.293  -3.324  -4.361  0.00  0.00    +0.247 C 
ATOM      2  O   UNL     1      -1.950  -2.184  -4.591  0.00  0.00    -0.273 OA
ATOM      3  N   UNL     1      -3.319  -3.870  -5.043  0.00  0.00    -0.233 N 
ATOM      4  H   UNL     1      -3.593  -4.782  -4.859  0.00  0.00    +0.173 HD
ENDROOT
BRANCH   3   5
ATOM      5  N   UNL     1      -3.990  -3.119  -6.018  0.00  0.00    -0.228 N 
ATOM      6  C   UNL     1      -5.017  -3.665  -6.700  0.00  0.00    +0.295 C 
ATOM      7  O   UNL     1      -5.361  -4.810  -6.469  0.00  0.00    -0.265 OA
ATOM      8  H   UNL     1      -3.716  -2.207  -6.202  0.00  0.00    +0.173 HD
BRANCH   6   9
ATOM      9  C   UNL     1      -5.719  -2.880  -7.720  0.00  0.00    +0.191 A 
ATOM     10  C   UNL     1      -6.773  -3.307  -8.476  0.00  0.00    +0.055 A 
ATOM     11  C   UNL     1      -7.127  -2.238  -9.314  0.00  0.00    +0.049 A 
ATOM     12  C   UNL     1      -6.284  -1.219  -9.037  0.00  0.00    +0.143 A 
ATOM     13  O   UNL     1      -5.441  -1.607  -8.071  0.00  0.00    -0.452 OA
BRANCH  12  14
ATOM     14  C   UNL     1      -6.295   0.134  -9.700  0.00  0.00    +0.303 C 
BRANCH  14  15
ATOM     15  O   UNL     1      -7.154   1.015  -8.973  0.00  0.00    -0.484 OA
BRANCH  15  16
ATOM     16  C   UNL     1      -7.277   2.284  -9.443  0.00  0.00    +0.121 A 
ATOM     17  C   UNL     1      -6.589   2.673 -10.583  0.00  0.00    +0.045 A 
ATOM     18  C   UNL     1      -6.716   3.964 -11.058  0.00  0.00    +0.004 A 
ATOM     19  C   UNL     1      -7.527   4.868 -10.398  0.00  0.00    +0.000 A 
ATOM     20  C   UNL     1      -8.214   4.483  -9.261  0.00  0.00    +0.004 A 
ATOM     21  C   UNL     1      -8.095   3.192  -8.785  0.00  0.00    +0.045 A 
ENDBRANCH  15  16
ENDBRANCH  14  15
ENDBRANCH  12  14
ENDBRANCH   6   9
ENDBRANCH   3   5
BRANCH   1  22
ATOM     22  C   UNL     1      -1.571  -4.131  -3.313  0.00  0.00    +0.215 C 
BRANCH  22  34
ATOM     23  C   UNL     1      -0.019   1.528   0.010  0.00  0.00    +0.007 C 
ATOM     24  C   UNL     1       0.002  -0.004   0.002  0.00  0.00    -0.011 C 
ATOM     25  C   UNL     1       0.726  -0.492  -1.255  0.00  0.00    +0.038 C 
ATOM     26  C   UNL     1       0.711  -2.014  -1.298  0.00  0.00    +0.113 C 
ATOM     27  C   UNL     1       1.264  -2.646  -0.036  0.00  0.00    +0.041 C 
ATOM     28  C   UNL     1       0.787  -2.030   1.268  0.00  0.00    -0.032 C 
ATOM     29  C   UNL     1       0.764  -0.507   1.226  0.00  0.00    +0.009 C 
ATOM     30  C   UNL     1      -0.596  -2.567   1.647  0.00  0.00    +0.011 C 
ATOM     31  C   UNL     1       1.769  -2.455   2.382  0.00  0.00    +0.011 C 
ATOM     32  C   UNL     1      -0.665  -2.529  -1.638  0.00  0.00    +0.247 C 
ATOM     33  O   UNL     1      -1.716  -2.282  -1.086  0.00  0.00    -0.273 OA
ATOM     34  N   UNL     1      -0.504  -3.320  -2.721  0.00  0.00    -0.215 N 
ATOM     35  C   UNL     1       0.750  -3.268  -3.183  0.00  0.00    +0.310 C 
ATOM     36  O   UNL     1       1.137  -3.883  -4.158  0.00  0.00    -0.252 OA
ATOM     37  N   UNL     1       1.532  -2.462  -2.446  0.00  0.00    -0.285 N 
ATOM     38  H   UNL     1       2.452  -2.214  -2.618  0.00  0.00    +0.151 HD
ENDBRANCH  22  34
ENDBRANCH   1  22
TORSDOF 7
