REMARK  Name = ZINC13073630
REMARK  5 active torsions:
REMARK  status: ('A' for Active; 'I' for Inactive)
REMARK    1  A    between atoms: C_3  and  N_8
REMARK    2  A    between atoms: N_11  and  C_14
REMARK    3  A    between atoms: C_14  and  N_15
REMARK    4  A    between atoms: N_18  and  S_21
REMARK    5  A    between atoms: S_21  and  C_24
REMARK                            x       y       z     vdW  Elec       q    Type
REMARK                         _______ _______ _______ _____ _____    ______ ____
ROOT
ATOM      1  N   UNL     1      -0.018   1.465   0.010  0.00  0.00    -0.281 NA
ATOM      2  C   UNL     1      -0.809   1.987  -1.113  0.00  0.00    +0.103 C 
ATOM      3  C   UNL     1      -0.956   3.505  -0.967  0.00  0.00    +0.125 C 
ATOM      4  N   UNL     1       0.385   4.093  -0.824  0.00  0.00    -0.174 NA
ATOM      5  C   UNL     1       1.287   3.529   0.191  0.00  0.00    +0.125 C 
ATOM      6  C   UNL     1       1.346   2.010   0.000  0.00  0.00    +0.103 C 
ENDROOT
BRANCH   4   7
ATOM      7  S   UNL     1       0.865   5.356  -1.781  0.00  0.00    +0.061 S 
ATOM      8  O   UNL     1      -0.319   6.010  -2.215  0.00  0.00    -0.153 OA
ATOM      9  O   UNL     1       1.894   6.034  -1.073  0.00  0.00    -0.153 OA
BRANCH   7  10
ATOM     10  C   UNL     1       1.614   4.665  -3.218  0.00  0.00    +0.108 A 
ATOM     11  C   UNL     1       2.973   4.411  -3.234  0.00  0.00    +0.031 A 
ATOM     12  C   UNL     1       3.562   3.864  -4.359  0.00  0.00    +0.043 A 
ATOM     13  C   UNL     1       2.793   3.580  -5.474  0.00  0.00    +0.159 A 
ATOM     14  C   UNL     1       1.431   3.840  -5.460  0.00  0.00    +0.160 A 
ATOM     15  C   UNL     1       0.844   4.383  -4.330  0.00  0.00    +0.069 A 
ATOM     16  F   UNL     1       0.679   3.564  -6.547  0.00  0.00    -0.202 F 
ATOM     17  F   UNL     1       3.369   3.050  -6.575  0.00  0.00    -0.202 F 
ENDBRANCH   7  10
ENDBRANCH   4   7
BRANCH   1  18
ATOM     18  C   UNL     1       0.002  -0.004   0.002  0.00  0.00    +0.233 C 
BRANCH  18  22
ATOM     19  N   UNL     1      -3.144  -1.233   1.245  0.00  0.00    -0.278 N 
ATOM     20  C   UNL     1      -3.382  -1.225  -0.109  0.00  0.00    +0.228 A 
ATOM     21  N   UNL     1      -2.321  -0.797  -0.716  0.00  0.00    -0.158 NA
ATOM     22  N   UNL     1      -1.349  -0.512   0.252  0.00  0.00    -0.226 N 
ATOM     23  C   UNL     1      -1.886  -0.798   1.457  0.00  0.00    +0.184 A 
ATOM     24  S   UNL     1      -1.112  -0.633   2.975  0.00  0.00    -0.011 S 
BRANCH  19  27
ATOM     25  C   UNL     1      -6.235  -1.515   3.220  0.00  0.00    +0.003 A 
ATOM     26  C   UNL     1      -5.342  -1.120   2.243  0.00  0.00    +0.026 A 
ATOM     27  C   UNL     1      -4.051  -1.632   2.235  0.00  0.00    +0.051 A 
ATOM     28  C   UNL     1      -3.664  -2.546   3.207  0.00  0.00    +0.046 A 
ATOM     29  C   UNL     1      -4.561  -2.934   4.184  0.00  0.00    +0.043 A 
ATOM     30  C   UNL     1      -5.846  -2.421   4.189  0.00  0.00    +0.020 A 
ATOM     31 CL   UNL     1      -4.076  -4.071   5.403  0.00  0.00    -0.083 Cl
ENDBRANCH  19  27
ENDBRANCH  18  22
ENDBRANCH   1  18
TORSDOF 5
