REMARK  Name = ZINC64160149
REMARK  6 active torsions:
REMARK  status: ('A' for Active; 'I' for Inactive)
REMARK    1  A    between atoms: C_1  and  C_2
REMARK    2  A    between atoms: C_5  and  C_8
REMARK    3  A    between atoms: C_11  and  C_13
REMARK    4  A    between atoms: C_13  and  C_14
REMARK    5  A    between atoms: C_14  and  N_15
REMARK    6  A    between atoms: C_16  and  C_18
REMARK                            x       y       z     vdW  Elec       q    Type
REMARK                         _______ _______ _______ _____ _____    ______ ____
ROOT
ATOM      1  N   UNL     1       7.316  -4.186  -5.299  0.00  0.00    -0.310 N 
ATOM      2  C   UNL     1       8.584  -3.756  -5.457  0.00  0.00    +0.265 C 
ATOM      3  O   UNL     1       8.921  -2.679  -5.004  0.00  0.00    -0.268 OA
ATOM      4  H   UNL     1       7.047  -5.045  -5.660  0.00  0.00    +0.149 HD
ENDROOT
BRANCH   2   5
ATOM      5  C   UNL     1       9.561  -4.591  -6.179  0.00  0.00    +0.154 A 
ATOM      6  C   UNL     1      10.971  -4.272  -6.437  0.00  0.00    +0.032 A 
ATOM      7  C   UNL     1      11.818  -3.207  -6.143  0.00  0.00    +0.012 A 
ATOM      8  C   UNL     1      13.121  -3.246  -6.553  0.00  0.00    +0.001 A 
ATOM      9  C   UNL     1      13.606  -4.338  -7.260  0.00  0.00    +0.002 A 
ATOM     10  C   UNL     1      12.785  -5.402  -7.562  0.00  0.00    +0.028 A 
ATOM     11  C   UNL     1      11.456  -5.383  -7.154  0.00  0.00    +0.066 A 
ATOM     12  N   UNL     1      10.397  -6.244  -7.279  0.00  0.00    -0.276 N 
ATOM     13  N   UNL     1       9.344  -5.772  -6.715  0.00  0.00    -0.168 NA
ATOM     14  H   UNL     1      10.438  -7.101  -7.732  0.00  0.00    +0.189 HD
ENDBRANCH   2   5
BRANCH   1  15
ATOM     15  C   UNL     1       6.346  -3.356  -4.581  0.00  0.00    +0.109 C 
BRANCH  15  16
ATOM     16  C   UNL     1       4.993  -4.071  -4.544  0.00  0.00    +0.061 C 
BRANCH  16  20
ATOM     17  C   UNL     1       2.394  -1.955  -2.133  0.00  0.00    +0.034 A 
ATOM     18  C   UNL     1       2.320  -1.597  -3.470  0.00  0.00    +0.017 A 
ATOM     19  C   UNL     1       3.168  -2.273  -4.317  0.00  0.00    +0.012 A 
ATOM     20  C   UNL     1       3.994  -3.217  -3.806  0.00  0.00    -0.008 A 
ATOM     21  S   UNL     1       3.656  -3.214  -2.160  0.00  0.00    -0.092 S 
BRANCH  17  25
ATOM     22  C   UNL     1      -0.019   1.526   0.010  0.00  0.00    +0.044 C 
ATOM     23  C   UNL     1       0.002  -0.004   0.002  0.00  0.00    +0.160 C 
ATOM     24  N   UNL     1       0.759  -0.520  -1.156  0.00  0.00    -0.273 NA
ATOM     25  C   UNL     1       1.636  -1.432  -0.994  0.00  0.00    +0.061 C 
ATOM     26  C   UNL     1       1.876  -1.963   0.412  0.00  0.00    +0.127 C 
ATOM     27  S   UNL     1       1.011  -0.664   1.401  0.00  0.00    -0.128 S 
ENDBRANCH  17  25
ENDBRANCH  16  20
ENDBRANCH  15  16
ENDBRANCH   1  15
TORSDOF 5
