REMARK  Name = ZINC16033033
REMARK  7 active torsions:
REMARK  status: ('A' for Active; 'I' for Inactive)
REMARK    1  A    between atoms: C_1  and  C_2
REMARK    2  A    between atoms: C_17  and  C_20
REMARK    3  A    between atoms: C_20  and  C_22
REMARK    4  A    between atoms: C_20  and  O_23
REMARK    5  A    between atoms: N_26  and  C_29
REMARK    6  A    between atoms: C_29  and  C_30
REMARK    7  A    between atoms: C_30  and  C_31
REMARK                            x       y       z     vdW  Elec       q    Type
REMARK                         _______ _______ _______ _____ _____    ______ ____
ROOT
ATOM      1  C   UNL     1      -0.018   1.503   0.010  0.00  0.00    +0.044 C 
ATOM      2  C   UNL     1       0.002  -0.004   0.002  0.00  0.00    -0.049 A 
ATOM      3  C   UNL     1       0.006  -0.691  -1.200  0.00  0.00    +0.011 A 
ATOM      4  C   UNL     1       0.025  -2.068  -1.207  0.00  0.00    +0.005 A 
ATOM      5  C   UNL     1       0.039  -2.783  -0.013  0.00  0.00    +0.057 A 
ATOM      6  C   UNL     1       0.036  -2.084   1.193  0.00  0.00    +0.063 A 
ATOM      7  C   UNL     1       0.023  -0.703   1.195  0.00  0.00    +0.025 A 
ATOM      8 CL   UNL     1       0.054  -2.951   2.696  0.00  0.00    -0.082 Cl
ATOM      9  N   UNL     1       0.053  -4.156  -0.272  0.00  0.00    -0.282 N 
ATOM     10  C   UNL     1       0.052  -4.423  -1.592  0.00  0.00    +0.243 C 
ATOM     11  O   UNL     1       0.061  -5.520  -2.109  0.00  0.00    -0.273 OA
ATOM     12  C   UNL     1       0.035  -3.096  -2.302  0.00  0.00    +0.136 C 
ATOM     13  C   UNL     1      -1.189  -2.963  -3.214  0.00  0.00    +0.122 C 
ATOM     14  C   UNL     1      -0.675  -2.169  -4.447  0.00  0.00    +0.109 C 
ATOM     15  C   UNL     1       0.814  -1.897  -4.149  0.00  0.00    +0.096 C 
ATOM     16  N   UNL     1       1.212  -2.941  -3.177  0.00  0.00    -0.293 NA
ATOM     17  C   UNL     1      -1.455  -0.876  -4.378  0.00  0.00    +0.227 C 
ATOM     18  O   UNL     1      -1.362   0.042  -5.165  0.00  0.00    -0.275 OA
ATOM     19  N   UNL     1      -2.264  -0.900  -3.313  0.00  0.00    -0.241 N 
ATOM     20  C   UNL     1      -2.202  -2.036  -2.581  0.00  0.00    +0.228 C 
ATOM     21  O   UNL     1      -2.845  -2.278  -1.583  0.00  0.00    -0.275 OA
ATOM     22  H   UNL     1       0.064  -4.837   0.418  0.00  0.00    +0.155 HD
ATOM     23  H   UNL     1       2.022  -2.658  -2.647  0.00  0.00    +0.124 HD
ENDROOT
BRANCH  15  24
ATOM     24  C   UNL     1       1.641  -1.996  -5.433  0.00  0.00    +0.129 C 
ATOM     25  C   UNL     1       3.126  -1.846  -5.095  0.00  0.00    +0.039 C 
BRANCH  24  26
ATOM     26  O   UNL     1       1.418  -3.267  -6.046  0.00  0.00    -0.390 OA
ATOM     27  H   UNL     1       1.662  -4.020  -5.491  0.00  0.00    +0.210 HD
ENDBRANCH  24  26
ENDBRANCH  15  24
BRANCH  19  28
ATOM     28  C   UNL     1      -3.154   0.211  -2.968  0.00  0.00    +0.121 C 
BRANCH  28  29
ATOM     29  C   UNL     1      -4.508   0.013  -3.654  0.00  0.00    +0.054 C 
BRANCH  29  30
ATOM     30  C   UNL     1      -5.423   1.156  -3.299  0.00  0.00    -0.046 A 
ATOM     31  C   UNL     1      -6.231   1.073  -2.181  0.00  0.00    +0.004 A 
ATOM     32  C   UNL     1      -7.071   2.122  -1.855  0.00  0.00    +0.000 A 
ATOM     33  C   UNL     1      -7.101   3.254  -2.647  0.00  0.00    +0.000 A 
ATOM     34  C   UNL     1      -6.292   3.338  -3.765  0.00  0.00    +0.000 A 
ATOM     35  C   UNL     1      -5.449   2.291  -4.088  0.00  0.00    +0.004 A 
ENDBRANCH  29  30
ENDBRANCH  28  29
ENDBRANCH  19  28
TORSDOF 5
