REMARK  Name = ZINC38700475
REMARK  6 active torsions:
REMARK  status: ('A' for Active; 'I' for Inactive)
REMARK    1  A    between atoms: C_3  and  C_8
REMARK    2  A    between atoms: C_13  and  O_22
REMARK    3  A    between atoms: C_17  and  N_21
REMARK    4  A    between atoms: C_18  and  C_19
REMARK    5  A    between atoms: O_22  and  C_23
REMARK    6  A    between atoms: C_23  and  C_25
REMARK                            x       y       z     vdW  Elec       q    Type
REMARK                         _______ _______ _______ _____ _____    ______ ____
ROOT
ATOM      1  C   UNL     1       3.692   2.131  -0.049  0.00  0.00    +0.098 C 
ATOM      2  C   UNL     1       4.487   1.790   1.183  0.00  0.00    +0.008 A 
ATOM      3  C   UNL     1       4.181   2.408   2.383  0.00  0.00    +0.012 A 
ATOM      4  C   UNL     1       4.899   2.108   3.523  0.00  0.00    +0.047 A 
ATOM      5  C   UNL     1       5.933   1.183   3.469  0.00  0.00    +0.135 A 
ATOM      6  C   UNL     1       6.242   0.563   2.269  0.00  0.00    +0.093 A 
ATOM      7  C   UNL     1       5.518   0.866   1.123  0.00  0.00    +0.138 A 
ATOM      8  O   UNL     1       5.832   0.250  -0.043  0.00  0.00    -0.441 OA
ATOM      9  C   UNL     1       5.436   0.783  -1.210  0.00  0.00    +0.199 C 
ATOM     10  C   UNL     1       4.427   1.679  -1.279  0.00  0.00    +0.098 C 
ENDROOT
BRANCH   1  13
ATOM     11  C   UNL     1      -0.039   1.559   0.065  0.00  0.00    +0.003 A 
ATOM     12  C   UNL     1       1.190   2.190   0.007  0.00  0.00    +0.005 A 
ATOM     13  C   UNL     1       2.353   1.442   0.014  0.00  0.00    -0.032 A 
ATOM     14  C   UNL     1       2.288   0.063   0.078  0.00  0.00    +0.043 A 
ATOM     15  C   UNL     1       1.058  -0.570   0.135  0.00  0.00    +0.124 A 
ATOM     16  C   UNL     1      -0.106   0.180   0.129  0.00  0.00    +0.038 A 
ATOM     17  F   UNL     1       0.994  -1.918   0.197  0.00  0.00    -0.205 F 
ENDBRANCH   1  13
BRANCH   9  18
ATOM     18  N   UNL     1       6.073   0.405  -2.366  0.00  0.00    -0.328 N 
ATOM     19  H   UNL     1       6.798  -0.239  -2.332  0.00  0.00    +0.145 HD
ATOM     20  H   UNL     1       5.798   0.780  -3.217  0.00  0.00    +0.145 HD
ENDBRANCH   9  18
BRANCH  10  21
ATOM     21  C   UNL     1       4.051   2.209  -2.556  0.00  0.00    +0.101 C 
ATOM     22  N   UNL     1       3.753   2.629  -3.568  0.00  0.00    -0.191 NA
ENDBRANCH  10  21
BRANCH   5  23
ATOM     23  O   UNL     1       6.641   0.887   4.590  0.00  0.00    -0.422 OA
BRANCH  23  24
ATOM     24  C   UNL     1       7.925   1.296   4.655  0.00  0.00    +0.353 C 
ATOM     25  O   UNL     1       8.384   1.999   3.775  0.00  0.00    -0.244 OA
BRANCH  24  26
ATOM     26  C   UNL     1       8.766   0.894   5.786  0.00  0.00    +0.116 A 
ATOM     27  C   UNL     1      10.070   1.207   6.027  0.00  0.00    +0.070 A 
ATOM     28  C   UNL     1      10.705   0.717   7.183  0.00  0.00    +0.008 A 
ATOM     29  C   UNL     1      12.043   0.929   7.606  0.00  0.00    +0.012 A 
ATOM     30  C   UNL     1      12.503   0.377   8.758  0.00  0.00    +0.021 A 
ATOM     31  C   UNL     1      11.690  -0.412   9.565  0.00  0.00    +0.042 A 
ATOM     32  C   UNL     1      10.381  -0.644   9.190  0.00  0.00    +0.035 A 
ATOM     33  C   UNL     1       9.900  -0.090   8.022  0.00  0.00    +0.023 A 
ATOM     34  S   UNL     1       8.333  -0.121   7.188  0.00  0.00    -0.080 S 
ATOM     35 CL   UNL     1      12.315  -1.101  11.030  0.00  0.00    -0.084 Cl
ATOM     36 CL   UNL     1      10.945   2.209   4.912  0.00  0.00    -0.082 Cl
ENDBRANCH  24  26
ENDBRANCH  23  24
ENDBRANCH   5  23
TORSDOF 6
