REMARK  Name = ZINC22798304
REMARK  8 active torsions:
REMARK  status: ('A' for Active; 'I' for Inactive)
REMARK    1  A    between atoms: C_1  and  N_2
REMARK    2  A    between atoms: N_5  and  C_8
REMARK    3  A    between atoms: C_8  and  C_10
REMARK    4  A    between atoms: C_8  and  C_26
REMARK    5  A    between atoms: C_10  and  N_11
REMARK    6  A    between atoms: N_11  and  S_12
REMARK    7  A    between atoms: S_12  and  C_15
REMARK    8  A    between atoms: C_19  and  C_21
REMARK                            x       y       z     vdW  Elec       q    Type
REMARK                         _______ _______ _______ _____ _____    ______ ____
ROOT
ATOM      1  C   UNL     1       1.143   3.595   0.010  0.00  0.00    +0.102 C 
ENDROOT
BRANCH   1   2
ATOM      2  C   UNL     1       1.074   2.093   0.103  0.00  0.00    -0.025 A 
ATOM      3  C   UNL     1       2.095   1.322  -0.420  0.00  0.00    +0.009 A 
ATOM      4  C   UNL     1       2.037  -0.057  -0.337  0.00  0.00    +0.050 A 
ATOM      5  C   UNL     1       0.952  -0.669   0.271  0.00  0.00    +0.166 A 
ATOM      6  C   UNL     1      -0.077   0.107   0.797  0.00  0.00    +0.167 A 
ATOM      7  C   UNL     1      -0.011   1.489   0.709  0.00  0.00    +0.054 A 
ATOM      8  O   UNL     1      -1.018  -0.722   1.335  0.00  0.00    -0.453 OA
ATOM      9  C   UNL     1      -0.362  -1.993   1.498  0.00  0.00    +0.466 C 
ATOM     10  O   UNL     1       0.656  -1.985   0.480  0.00  0.00    -0.453 OA
ENDBRANCH   1   2
BRANCH   1  15
ATOM     11  C   UNL     1      -2.896   4.253  -3.884  0.00  0.00    -0.096 C 
ATOM     12  N   UNL     1      -1.899   3.776  -2.916  0.00  0.00    +0.379 N 
ATOM     13  C   UNL     1      -0.545   4.197  -3.303  0.00  0.00    -0.064 C 
ATOM     14  C   UNL     1       0.469   3.614  -2.316  0.00  0.00    +0.066 C 
ATOM     15  N   UNL     1       0.146   4.073  -0.958  0.00  0.00    -0.298 NA
ATOM     16  C   UNL     1      -1.207   3.652  -0.571  0.00  0.00    +0.066 C 
ATOM     17  C   UNL     1      -2.222   4.234  -1.558  0.00  0.00    -0.064 C 
ATOM     18  H   UNL     1      -1.926   2.676  -2.919  0.00  0.00    -0.082 HD
ENDBRANCH   1  15
BRANCH   1  19
ATOM     19  C   UNL     1       0.854   4.205   1.383  0.00  0.00    +0.129 C 
BRANCH  19  20
ATOM     20  N   UNL     1       0.803   5.665   1.269  0.00  0.00    -0.188 NA
ATOM     21  H   UNL     1       1.342   6.171   0.455  0.00  0.00    +0.148 HD
BRANCH  20  22
ATOM     22  S   UNL     1       0.149   6.569   2.492  0.00  0.00    +0.058 S 
ATOM     23  O   UNL     1       0.269   7.930   2.100  0.00  0.00    -0.153 OA
ATOM     24  O   UNL     1      -1.102   5.976   2.811  0.00  0.00    -0.153 OA
BRANCH  22  25
ATOM     25  C   UNL     1       1.181   6.359   3.904  0.00  0.00    +0.106 A 
ATOM     26  C   UNL     1       0.923   5.340   4.803  0.00  0.00    +0.031 A 
ATOM     27  C   UNL     1       1.735   5.171   5.909  0.00  0.00    +0.041 A 
ATOM     28  C   UNL     1       2.801   6.029   6.122  0.00  0.00    +0.135 A 
ATOM     29  C   UNL     1       3.055   7.052   5.224  0.00  0.00    +0.092 A 
ATOM     30  C   UNL     1       2.245   7.215   4.116  0.00  0.00    +0.043 A 
ATOM     31  F   UNL     1       3.592   5.868   7.205  0.00  0.00    -0.205 F 
BRANCH  29  32
ATOM     32  C   UNL     1       4.215   7.986   5.454  0.00  0.00    +0.420 C 
ATOM     33  F   UNL     1       4.268   8.927   4.421  0.00  0.00    -0.166 F 
ATOM     34  F   UNL     1       4.048   8.644   6.677  0.00  0.00    -0.166 F 
ATOM     35  F   UNL     1       5.407   7.253   5.478  0.00  0.00    -0.166 F 
ENDBRANCH  29  32
ENDBRANCH  22  25
ENDBRANCH  20  22
ENDBRANCH  19  20
ENDBRANCH   1  19
TORSDOF 7
