REMARK  Name = ZINC08765494
REMARK  13 active torsions:
REMARK  status: ('A' for Active; 'I' for Inactive)
REMARK    1  A    between atoms: C_1  and  C_2
REMARK    2  A    between atoms: C_12  and  C_13
REMARK    3  A    between atoms: C_13  and  C_14
REMARK    4  A    between atoms: C_14  and  C_15
REMARK    5  A    between atoms: N_17  and  C_18
REMARK    6  A    between atoms: C_18  and  C_19
REMARK    7  A    between atoms: C_19  and  C_20
REMARK    8  A    between atoms: C_19  and  C_21
REMARK    9  A    between atoms: C_19  and  C_22
REMARK   10  A    between atoms: C_22  and  N_66
REMARK   11  A    between atoms: C_23  and  N_66
REMARK   12  A    between atoms: C_24  and  N_66
REMARK   13  A    between atoms: C_27  and  C_28
REMARK                            x       y       z     vdW  Elec       q    Type
REMARK                         _______ _______ _______ _____ _____    ______ ____
ROOT
ATOM      1  C   UNL     1      -2.635  -2.055   0.515  0.00  0.00    +0.045 C 
ATOM      2  C   UNL     1      -1.201  -1.593   0.537  0.00  0.00    -0.030 A 
ATOM      3  C   UNL     1      -0.102  -2.558   0.640  0.00  0.00    +0.022 A 
ATOM      4  C   UNL     1      -0.358  -3.927   0.719  0.00  0.00    +0.024 A 
ATOM      5  C   UNL     1       0.705  -4.812   0.815  0.00  0.00    +0.029 A 
ATOM      6  C   UNL     1       2.031  -4.338   0.833  0.00  0.00    +0.139 A 
ATOM      7  C   UNL     1       2.279  -2.975   0.754  0.00  0.00    +0.093 A 
ATOM      8  C   UNL     1       1.226  -2.082   0.657  0.00  0.00    +0.143 A 
ATOM      9  O   UNL     1       1.462  -0.753   0.580  0.00  0.00    -0.422 OA
ATOM     10  C   UNL     1       0.459   0.133   0.485  0.00  0.00    +0.341 A 
ATOM     11  O   UNL     1       0.721   1.320   0.417  0.00  0.00    -0.245 OA
ATOM     12  C   UNL     1      -0.892  -0.274   0.462  0.00  0.00    +0.041 A 
ATOM     13  O   UNL     1       2.841  -5.413   0.932  0.00  0.00    -0.462 OA
ATOM     14  C   UNL     1       2.132  -6.553   0.979  0.00  0.00    +0.204 A 
ATOM     15  C   UNL     1       0.810  -6.281   0.914  0.00  0.00    +0.028 A 
ENDROOT
BRANCH  15  16
ATOM     16  C   UNL     1      -0.306  -7.257   0.935  0.00  0.00    -0.014 A 
ATOM     17  C   UNL     1      -1.373  -7.080   1.814  0.00  0.00    +0.008 A 
ATOM     18  C   UNL     1      -2.412  -7.989   1.826  0.00  0.00    +0.001 A 
ATOM     19  C   UNL     1      -2.389  -9.080   0.976  0.00  0.00    +0.000 A 
ATOM     20  C   UNL     1      -1.330  -9.264   0.105  0.00  0.00    +0.001 A 
ATOM     21  C   UNL     1      -0.289  -8.358   0.081  0.00  0.00    +0.008 A 
ENDBRANCH  15  16
BRANCH  12  22
ATOM     22  C   UNL     1      -1.989   0.753   0.349  0.00  0.00    +0.052 C 
BRANCH  22  23
ATOM     23  C   UNL     1      -2.420   1.196   1.748  0.00  0.00    +0.100 C 
BRANCH  23  24
ATOM     24  C   UNL     1      -3.516   2.224   1.635  0.00  0.00    +0.213 C 
ATOM     25  O   UNL     1      -3.914   2.568   0.542  0.00  0.00    -0.276 OA
ATOM     26  N   UNL     1      -4.055   2.760   2.748  0.00  0.00    -0.315 N 
ATOM     27  H   UNL     1      -3.736   2.485   3.622  0.00  0.00    +0.149 HD
BRANCH  26  28
ATOM     28  C   UNL     1      -5.121   3.759   2.638  0.00  0.00    +0.108 C 
BRANCH  28  29
ATOM     29  C   UNL     1      -5.551   4.202   4.037  0.00  0.00    -0.034 C 
ATOM     30  C   UNL     1      -6.065   2.992   4.820  0.00  0.00    +0.010 C 
ATOM     31  C   UNL     1      -4.355   4.812   4.770  0.00  0.00    +0.010 C 
BRANCH  29  32
ATOM     32  C   UNL     1      -6.665   5.245   3.922  0.00  0.00    -0.072 C 
BRANCH  32  35
ATOM     33  C   UNL     1      -6.345   6.620   5.890  0.00  0.00    -0.097 C 
ATOM     34  C   UNL     1      -8.579   5.976   5.212  0.00  0.00    -0.097 C 
ATOM     35  N   UNL     1      -7.165   5.552   5.279  0.00  0.00    +0.376 N 
ATOM     36  H   UNL     1      -7.097   4.707   5.859  0.00  0.00    -0.083 HD
ENDBRANCH  32  35
ENDBRANCH  29  32
ENDBRANCH  28  29
ENDBRANCH  26  28
ENDBRANCH  23  24
ENDBRANCH  22  23
ENDBRANCH  12  22
TORSDOF 8
