REMARK  Name = ZINC12599670
REMARK  8 active torsions:
REMARK  status: ('A' for Active; 'I' for Inactive)
REMARK    1  A    between atoms: C_1  and  O_2
REMARK    2  A    between atoms: O_2  and  C_3
REMARK    3  A    between atoms: C_6  and  C_9
REMARK    4  A    between atoms: C_9  and  C_11
REMARK    5  A    between atoms: C_9  and  C_27
REMARK    6  A    between atoms: C_11  and  N_12
REMARK    7  A    between atoms: C_13  and  C_15
REMARK    8  A    between atoms: C_15  and  N_16
REMARK                            x       y       z     vdW  Elec       q    Type
REMARK                         _______ _______ _______ _____ _____    ______ ____
ROOT
ATOM      1  C   UNL     1      -2.513   0.977   0.019  0.00  0.00    +0.068 C 
ENDROOT
BRANCH   1   2
ATOM      2  C   UNL     1      -3.314   1.336  -1.206  0.00  0.00    -0.013 A 
ATOM      3  C   UNL     1      -3.767   2.557  -1.534  0.00  0.00    +0.088 A 
ATOM      4  N   UNL     1      -4.451   2.498  -2.718  0.00  0.00    -0.360 N 
ATOM      5  H   UNL     1      -4.868   3.254  -3.159  0.00  0.00    +0.165 HD
ATOM      6  C   UNL     1      -4.464   1.203  -3.187  0.00  0.00    +0.047 A 
ATOM      7  C   UNL     1      -3.752   0.419  -2.261  0.00  0.00    +0.003 A 
ATOM      8  C   UNL     1      -3.601  -0.951  -2.479  0.00  0.00    +0.010 A 
ATOM      9  C   UNL     1      -4.146  -1.525  -3.594  0.00  0.00    +0.001 A 
ATOM     10  C   UNL     1      -4.849  -0.756  -4.510  0.00  0.00    +0.002 A 
ATOM     11  C   UNL     1      -5.010   0.599  -4.314  0.00  0.00    +0.026 A 
ENDBRANCH   1   2
BRANCH   1  15
ATOM     12  C   UNL     1       1.155   3.169   0.008  0.00  0.00    +0.120 A 
ATOM     13  C   UNL     1       1.175   1.782   0.000  0.00  0.00    +0.046 A 
ATOM     14  C   UNL     1      -0.013   1.076   0.008  0.00  0.00    +0.008 A 
ATOM     15  C   UNL     1      -1.220   1.750   0.017  0.00  0.00    -0.038 A 
ATOM     16  C   UNL     1      -1.242   3.133   0.031  0.00  0.00    +0.008 A 
ATOM     17  C   UNL     1      -0.057   3.844   0.023  0.00  0.00    +0.046 A 
BRANCH  12  19
ATOM     18  C   UNL     1       2.225   5.292   0.009  0.00  0.00    +0.277 C 
ATOM     19  O   UNL     1       2.322   3.866   0.000  0.00  0.00    -0.495 OA
ENDBRANCH  12  19
ENDBRANCH   1  15
BRANCH   1  20
ATOM     20  C   UNL     1      -3.315   1.327   1.274  0.00  0.00    +0.117 C 
BRANCH  20  21
ATOM     21  N   UNL     1      -4.515   0.489   1.336  0.00  0.00    -0.313 N 
ATOM     22  C   UNL     1      -5.378   0.623   2.363  0.00  0.00    +0.231 C 
ATOM     23  O   UNL     1      -5.161   1.438   3.235  0.00  0.00    -0.274 OA
ATOM     24  H   UNL     1      -4.689  -0.162   0.638  0.00  0.00    +0.149 HD
BRANCH  22  25
ATOM     25  C   UNL     1      -6.613  -0.239   2.427  0.00  0.00    +0.213 C 
BRANCH  25  26
ATOM     26  N   UNL     1      -7.381   0.097   3.628  0.00  0.00    -0.215 N 
ATOM     27  C   UNL     1      -8.346   1.040   3.674  0.00  0.00    +0.247 C 
ATOM     28  O   UNL     1      -8.729   1.745   2.765  0.00  0.00    -0.273 OA
ATOM     29  C   UNL     1      -8.845   1.030   5.096  0.00  0.00    +0.113 C 
ATOM     30  C   UNL     1     -10.341   0.692   5.153  0.00  0.00    +0.035 C 
ATOM     31  C   UNL     1     -10.873   1.543   6.335  0.00  0.00    +0.003 C 
ATOM     32  C   UNL     1     -10.063   2.858   6.204  0.00  0.00    +0.003 C 
ATOM     33  C   UNL     1      -8.658   2.395   5.761  0.00  0.00    +0.035 C 
ATOM     34  N   UNL     1      -8.045  -0.002   5.758  0.00  0.00    -0.285 N 
ATOM     35  C   UNL     1      -7.217  -0.498   4.817  0.00  0.00    +0.310 C 
ATOM     36  O   UNL     1      -6.410  -1.383   5.025  0.00  0.00    -0.252 OA
ATOM     37  H   UNL     1      -8.102  -0.276   6.687  0.00  0.00    +0.151 HD
ENDBRANCH  25  26
ENDBRANCH  22  25
ENDBRANCH  20  21
ENDBRANCH   1  20
TORSDOF 7
