REMARK  Name = ZINC12375675
REMARK  5 active torsions:
REMARK  status: ('A' for Active; 'I' for Inactive)
REMARK    1  A    between atoms: C_4  and  S_10
REMARK    2  A    between atoms: C_5  and  N_7
REMARK    3  A    between atoms: S_10  and  C_11
REMARK    4  A    between atoms: C_16  and  C_32
REMARK    5  A    between atoms: C_22  and  C_30
REMARK                            x       y       z     vdW  Elec       q    Type
REMARK                         _______ _______ _______ _____ _____    ______ ____
ROOT
ATOM      1  C   UNL     1      -0.804   1.620  -1.214  0.00  0.00    +0.070 C 
ATOM      2  C   UNL     1      -0.013   1.086   0.008  0.00  0.00    +0.022 C 
ATOM      3  C   UNL     1      -0.767   1.597   1.228  0.00  0.00    +0.024 C 
ATOM      4  C   UNL     1       0.031   1.929   2.469  0.00  0.00    +0.104 C 
ATOM      5  N   UNL     1      -0.947   2.395   3.475  0.00  0.00    -0.336 N 
ATOM      6  C   UNL     1      -2.080   3.112   3.094  0.00  0.00    +0.031 A 
ATOM      7  C   UNL     1      -2.962   3.551   4.081  0.00  0.00    +0.024 A 
ATOM      8  C   UNL     1      -4.093   4.237   3.748  0.00  0.00    +0.017 A 
ATOM      9  C   UNL     1      -4.380   4.509   2.407  0.00  0.00    +0.064 A 
ATOM     10  C   UNL     1      -3.497   4.080   1.410  0.00  0.00    +0.021 A 
ATOM     11  C   UNL     1      -2.358   3.393   1.751  0.00  0.00    -0.021 A 
ATOM     12  C   UNL     1      -1.388   2.930   0.722  0.00  0.00    +0.045 C 
ATOM     13  C   UNL     1      -1.941   2.514  -0.642  0.00  0.00    +0.101 C 
ATOM     14 CL   UNL     1      -3.464   1.569  -0.452  0.00  0.00    -0.120 Cl
ATOM     15  H   UNL     1      -0.798   2.198   4.413  0.00  0.00    +0.147 HD
ENDROOT
BRANCH   4  16
ATOM     16  C   UNL     1       0.746   0.700   2.970  0.00  0.00    -0.027 A 
ATOM     17  C   UNL     1       0.047  -0.272   3.661  0.00  0.00    +0.008 A 
ATOM     18  C   UNL     1       0.700  -1.402   4.116  0.00  0.00    +0.038 A 
ATOM     19  C   UNL     1       2.057  -1.554   3.889  0.00  0.00    +0.123 A 
ATOM     20  C   UNL     1       2.757  -0.578   3.202  0.00  0.00    +0.038 A 
ATOM     21  C   UNL     1       2.101   0.549   2.743  0.00  0.00    +0.008 A 
ATOM     22  F   UNL     1       2.698  -2.656   4.339  0.00  0.00    -0.205 F 
ENDBRANCH   4  16
BRANCH   9  23
ATOM     23  C   UNL     1      -5.604   5.245   2.045  0.00  0.00    +0.387 C 
ATOM     24  O   UNL     1      -5.850   5.480   0.878  0.00  0.00    -0.241 OA
ATOM     25  O   UNL     1      -6.451   5.658   3.009  0.00  0.00    -0.241 OA
ENDBRANCH   9  23
BRANCH   1  26
ATOM     26  S   UNL     1      -1.510   0.237  -2.152  0.00  0.00    -0.118 S 
BRANCH  26  30
ATOM     27  C   UNL     1      -3.376   2.211  -5.776  0.00  0.00    +0.002 A 
ATOM     28  C   UNL     1      -2.734   2.982  -4.825  0.00  0.00    +0.001 A 
ATOM     29  C   UNL     1      -2.164   2.384  -3.719  0.00  0.00    +0.017 A 
ATOM     30  C   UNL     1      -2.236   1.005  -3.562  0.00  0.00    +0.038 A 
ATOM     31  C   UNL     1      -2.877   0.233  -4.523  0.00  0.00    +0.140 A 
ATOM     32  C   UNL     1      -3.450   0.838  -5.624  0.00  0.00    +0.034 A 
BRANCH  31  33
ATOM     33  N   UNL     1      -2.951  -1.237  -4.364  0.00  0.00    +0.058 N 
ATOM     34  O   UNL     1      -3.513  -1.913  -5.206  0.00  0.00    -0.126 OA
ATOM     35  O   UNL     1      -2.450  -1.770  -3.390  0.00  0.00    -0.126 OA
ENDBRANCH  31  33
ENDBRANCH  26  30
ENDBRANCH   1  26
TORSDOF 5
