REMARK  Name = ZINC21225325
REMARK  14 active torsions:
REMARK  status: ('A' for Active; 'I' for Inactive)
REMARK    1  A    between atoms: C_1  and  O_2
REMARK    2  A    between atoms: O_2  and  C_3
REMARK    3  A    between atoms: C_6  and  C_13
REMARK    4  A    between atoms: C_7  and  O_11
REMARK    5  A    between atoms: C_8  and  O_9
REMARK    6  A    between atoms: O_9  and  C_10
REMARK    7  A    between atoms: O_11  and  C_12
REMARK    8  A    between atoms: C_24  and  C_27
REMARK    9  A    between atoms: C_29  and  O_37
REMARK   10  A    between atoms: C_30  and  O_35
REMARK   11  A    between atoms: C_31  and  O_33
REMARK   12  A    between atoms: O_33  and  C_34
REMARK   13  A    between atoms: O_35  and  C_36
REMARK   14  A    between atoms: O_37  and  C_38
REMARK                            x       y       z     vdW  Elec       q    Type
REMARK                         _______ _______ _______ _____ _____    ______ ____
ROOT
ATOM      1  C   UNL     1      -0.800  -4.218  -0.066  0.00  0.00    +0.066 C 
ATOM      2  C   UNL     1      -1.617  -4.705  -1.264  0.00  0.00    +0.109 C 
ATOM      3  C   UNL     1      -1.159  -3.978  -2.502  0.00  0.00    +0.218 C 
ATOM      4  O   UNL     1      -1.168  -4.544  -3.574  0.00  0.00    -0.275 OA
ATOM      5  N   UNL     1      -0.742  -2.702  -2.420  0.00  0.00    -0.289 N 
ATOM      6  C   UNL     1      -0.747  -2.029  -1.225  0.00  0.00    +0.018 C 
ATOM      7  C   UNL     1      -0.772  -2.707  -0.059  0.00  0.00    +0.020 C 
ATOM      8  C   UNL     1      -0.769  -2.038   1.177  0.00  0.00    +0.162 C 
ATOM      9  O   UNL     1      -0.806  -2.683   2.206  0.00  0.00    -0.292 OA
ATOM     10  C   UNL     1      -0.720  -0.535   1.245  0.00  0.00    +0.088 C 
ATOM     11  C   UNL     1       0.002  -0.004   0.002  0.00  0.00    +0.032 C 
ATOM     12  C   UNL     1      -0.724  -0.521  -1.242  0.00  0.00    +0.059 C 
ATOM     13  H   UNL     1      -0.389  -2.180  -3.322  0.00  0.00    +0.155 HD
ENDROOT
BRANCH   1  17
ATOM     14  C   UNL     1       3.197  -5.716  -0.364  0.00  0.00    +0.165 A 
ATOM     15  C   UNL     1       2.680  -4.902  -1.362  0.00  0.00    +0.050 A 
ATOM     16  C   UNL     1       1.389  -4.420  -1.262  0.00  0.00    +0.011 A 
ATOM     17  C   UNL     1       0.608  -4.746  -0.169  0.00  0.00    +0.006 A 
ATOM     18  C   UNL     1       1.119  -5.554   0.834  0.00  0.00    +0.169 A 
ATOM     19  C   UNL     1       2.415  -6.046   0.736  0.00  0.00    +0.204 A 
BRANCH  14  21
ATOM     20  C   UNL     1       5.214  -5.811  -1.622  0.00  0.00    +0.277 C 
ATOM     21  O   UNL     1       4.468  -6.190  -0.464  0.00  0.00    -0.491 OA
ENDBRANCH  14  21
BRANCH  19  22
ATOM     22  O   UNL     1       2.919  -6.843   1.716  0.00  0.00    -0.488 OA
ATOM     23  C   UNL     1       3.591  -6.196   2.799  0.00  0.00    +0.277 C 
ENDBRANCH  19  22
BRANCH  18  24
ATOM     24  O   UNL     1       0.351  -5.871   1.912  0.00  0.00    -0.491 OA
ATOM     25  C   UNL     1      -0.447  -7.052   1.815  0.00  0.00    +0.277 C 
ENDBRANCH  18  24
ENDBRANCH   1  17
BRANCH  11  26
ATOM     26  C   UNL     1      -0.018   1.503   0.010  0.00  0.00    -0.036 A 
ATOM     27  C   UNL     1      -1.226   2.176   0.020  0.00  0.00    +0.053 A 
ATOM     28  C   UNL     1      -1.249   3.562   0.033  0.00  0.00    +0.165 A 
ATOM     29  C   UNL     1      -0.056   4.275   0.025  0.00  0.00    +0.204 A 
ATOM     30  C   UNL     1       1.156   3.595   0.010  0.00  0.00    +0.165 A 
ATOM     31  C   UNL     1       1.170   2.208   0.003  0.00  0.00    +0.053 A 
BRANCH  30  32
ATOM     32  O   UNL     1       2.326   4.288   0.002  0.00  0.00    -0.491 OA
ATOM     33  C   UNL     1       3.533   3.523  -0.015  0.00  0.00    +0.277 C 
ENDBRANCH  30  32
BRANCH  29  34
ATOM     34  O   UNL     1      -0.074   5.636   0.032  0.00  0.00    -0.488 OA
ATOM     35  C   UNL     1      -0.096   6.291  -1.238  0.00  0.00    +0.277 C 
ENDBRANCH  29  34
BRANCH  28  36
ATOM     36  O   UNL     1      -2.437   4.223   0.048  0.00  0.00    -0.491 OA
ATOM     37  C   UNL     1      -3.623   3.426   0.056  0.00  0.00    +0.277 C 
ENDBRANCH  28  36
ENDBRANCH  11  26
TORSDOF 8
