REMARK  Name = ZINC41090557
REMARK  8 active torsions:
REMARK  status: ('A' for Active; 'I' for Inactive)
REMARK    1  A    between atoms: C_1  and  C_2
REMARK    2  A    between atoms: C_2  and  C_3
REMARK    3  A    between atoms: C_9  and  C_25
REMARK    4  A    between atoms: C_11  and  S_13
REMARK    5  A    between atoms: S_13  and  C_14
REMARK    6  A    between atoms: C_14  and  C_15
REMARK    7  A    between atoms: N_17  and  C_18
REMARK    8  A    between atoms: C_25  and  C_26
REMARK                            x       y       z     vdW  Elec       q    Type
REMARK                         _______ _______ _______ _____ _____    ______ ____
ROOT
ATOM      1  C   UNL     1       0.701  -0.501  -1.232  0.00  0.00    -0.008 A 
ATOM      2  C   UNL     1       2.018  -0.766  -1.417  0.00  0.00    +0.019 A 
ATOM      3  C   UNL     1       2.464  -1.211  -2.649  0.00  0.00    +0.016 A 
ATOM      4  C   UNL     1       1.511  -1.352  -3.640  0.00  0.00    +0.109 A 
ATOM      5  S   UNL     1       0.009  -0.885  -2.834  0.00  0.00    -0.074 S 
ATOM      6  N   UNL     1       1.758  -1.755  -4.904  0.00  0.00    -0.230 NA
ATOM      7  C   UNL     1       3.009  -1.831  -5.292  0.00  0.00    +0.097 C 
ATOM      8  N   UNL     1       4.027  -1.437  -4.463  0.00  0.00    -0.317 N 
ATOM      9  C   UNL     1       3.908  -1.565  -3.002  0.00  0.00    +0.163 C 
ATOM     10  H   UNL     1       4.838  -1.067  -4.845  0.00  0.00    +0.149 HD
ENDROOT
BRANCH   1  12
ATOM     11  C   UNL     1      -0.028   1.517   0.013  0.00  0.00    +0.009 C 
ATOM     12  C   UNL     1      -0.001  -0.013   0.010  0.00  0.00    +0.039 C 
ENDBRANCH   1  12
BRANCH   7  13
ATOM     13  C   UNL     1       3.331  -2.358  -6.667  0.00  0.00    +0.068 C 
ATOM     14  C   UNL     1       2.033  -2.728  -7.388  0.00  0.00    +0.011 C 
ENDBRANCH   7  13
BRANCH   9  15
ATOM     15  S   UNL     1       4.271  -3.269  -2.497  0.00  0.00    -0.124 S 
BRANCH  15  16
ATOM     16  C   UNL     1       5.146  -3.972  -3.921  0.00  0.00    +0.167 C 
BRANCH  16  17
ATOM     17  C   UNL     1       5.511  -5.405  -3.629  0.00  0.00    +0.227 C 
ATOM     18  O   UNL     1       5.209  -5.903  -2.565  0.00  0.00    -0.275 OA
ATOM     19  N   UNL     1       6.172  -6.133  -4.551  0.00  0.00    -0.285 N 
ATOM     20  H   UNL     1       6.354  -5.758  -5.426  0.00  0.00    +0.155 HD
BRANCH  19  21
ATOM     21  C   UNL     1       6.595  -7.431  -4.245  0.00  0.00    +0.036 A 
ATOM     22  C   UNL     1       7.794  -7.911  -4.756  0.00  0.00    +0.023 A 
ATOM     23  C   UNL     1       8.211  -9.192  -4.452  0.00  0.00    +0.005 A 
ATOM     24  C   UNL     1       7.436  -9.999  -3.640  0.00  0.00    +0.038 A 
ATOM     25  C   UNL     1       6.240  -9.525  -3.128  0.00  0.00    +0.125 A 
ATOM     26  C   UNL     1       5.821  -8.240  -3.424  0.00  0.00    +0.061 A 
ATOM     27  F   UNL     1       5.484 -10.315  -2.334  0.00  0.00    -0.205 F 
ENDBRANCH  19  21
ENDBRANCH  16  17
ENDBRANCH  15  16
ENDBRANCH   9  15
TORSDOF 6
