REMARK  Name = ZINC40797149
REMARK  4 active torsions:
REMARK  status: ('A' for Active; 'I' for Inactive)
REMARK    1  A    between atoms: C_6  and  N_7
REMARK    2  A    between atoms: C_14  and  N_28
REMARK    3  A    between atoms: C_15  and  N_19
REMARK    4  A    between atoms: N_19  and  C_20
REMARK                            x       y       z     vdW  Elec       q    Type
REMARK                         _______ _______ _______ _____ _____    ______ ____
ROOT
ATOM      1  N   UNL     1      -1.288  -0.594   0.012  0.00  0.00    -0.327 N 
ATOM      2  C   UNL     1      -2.590   0.081   0.121  0.00  0.00    +0.124 C 
ATOM      3  C   UNL     1      -3.464  -0.347  -1.064  0.00  0.00    +0.125 C 
ATOM      4  N   UNL     1      -3.433  -1.813  -1.166  0.00  0.00    -0.311 N 
ATOM      5  C   UNL     1      -2.131  -2.487  -1.275  0.00  0.00    +0.125 C 
ATOM      6  C   UNL     1      -1.257  -2.059  -0.096  0.00  0.00    +0.124 C 
ATOM      7  C   UNL     1      -4.612  -2.548  -1.159  0.00  0.00    +0.147 A 
ATOM      8  C   UNL     1      -5.218  -2.928  -2.358  0.00  0.00    +0.106 A 
ATOM      9  C   UNL     1      -6.401  -3.665  -2.294  0.00  0.00    +0.149 A 
ATOM     10  N   UNL     1      -6.903  -3.976  -1.101  0.00  0.00    -0.219 NA
ATOM     11  C   UNL     1      -6.300  -3.598   0.007  0.00  0.00    +0.225 A 
ATOM     12  N   UNL     1      -5.178  -2.905  -0.009  0.00  0.00    -0.219 NA
ENDROOT
BRANCH   1  18
ATOM     13  C   UNL     1       1.124  -0.506   0.028  0.00  0.00    +0.026 A 
ATOM     14  C   UNL     1       2.295   0.227   0.020  0.00  0.00    +0.040 A 
ATOM     15  C   UNL     1       2.247   1.610  -0.010  0.00  0.00    +0.124 A 
ATOM     16  C   UNL     1       1.026   2.263  -0.033  0.00  0.00    +0.040 A 
ATOM     17  C   UNL     1      -0.148   1.534  -0.025  0.00  0.00    +0.026 A 
ATOM     18  C   UNL     1      -0.102   0.146   0.005  0.00  0.00    +0.030 A 
ATOM     19  F   UNL     1       3.393   2.325  -0.018  0.00  0.00    -0.205 F 
ENDBRANCH   1  18
BRANCH   8  20
ATOM     20  N   UNL     1      -4.652  -2.577  -3.595  0.00  0.00    -0.353 N 
ATOM     21  H   UNL     1      -3.793  -2.128  -3.625  0.00  0.00    +0.143 HD
ATOM     22  H   UNL     1      -5.121  -2.784  -4.418  0.00  0.00    +0.143 HD
ENDBRANCH   8  20
BRANCH   9  23
ATOM     23  N   UNL     1      -7.045  -4.069  -3.458  0.00  0.00    -0.296 N 
ATOM     24  H   UNL     1      -6.704  -3.792  -4.323  0.00  0.00    +0.154 HD
BRANCH  23  25
ATOM     25  C   UNL     1      -8.187  -4.875  -3.383  0.00  0.00    +0.068 A 
ATOM     26  C   UNL     1      -9.076  -4.724  -2.327  0.00  0.00    +0.027 A 
ATOM     27  C   UNL     1     -10.202  -5.521  -2.255  0.00  0.00    +0.017 A 
ATOM     28  C   UNL     1     -10.445  -6.470  -3.233  0.00  0.00    +0.021 A 
ATOM     29  C   UNL     1      -9.562  -6.623  -4.287  0.00  0.00    +0.055 A 
ATOM     30  C   UNL     1      -8.436  -5.824  -4.368  0.00  0.00    +0.145 A 
ATOM     31  F   UNL     1      -7.577  -5.970  -5.400  0.00  0.00    -0.204 F 
ATOM     32 BR   UNL     1     -11.988  -7.559  -3.128  0.00  0.00    -0.050 Br
ENDBRANCH  23  25
ENDBRANCH   9  23
TORSDOF 4
