REMARK  Name = ZINC21970937
REMARK  8 active torsions:
REMARK  status: ('A' for Active; 'I' for Inactive)
REMARK    1  A    between atoms: C_1  and  C_2
REMARK    2  A    between atoms: C_2  and  C_3
REMARK    3  A    between atoms: C_2  and  C_4
REMARK    4  A    between atoms: C_4  and  C_6
REMARK    5  A    between atoms: C_4  and  N_22
REMARK    6  A    between atoms: N_8  and  N_9
REMARK    7  A    between atoms: C_10  and  C_12
REMARK    8  A    between atoms: C_23  and  C_25
REMARK                            x       y       z     vdW  Elec       q    Type
REMARK                         _______ _______ _______ _____ _____    ______ ____
ROOT
ATOM      1  C   UNL     1      -0.779   3.539  -1.221  0.00  0.00    +0.250 C 
ATOM      2  O   UNL     1      -0.271   4.158  -2.132  0.00  0.00    -0.272 OA
ATOM      3  N   UNL     1      -1.362   4.200  -0.201  0.00  0.00    -0.233 N 
ATOM      4  H   UNL     1      -1.823   3.639   0.626  0.00  0.00    +0.173 HD
ENDROOT
BRANCH   3   5
ATOM      5  N   UNL     1      -1.381   5.601  -0.193  0.00  0.00    -0.230 N 
ATOM      6  C   UNL     1      -1.964   6.261   0.827  0.00  0.00    +0.267 C 
ATOM      7  O   UNL     1      -2.474   5.641   1.741  0.00  0.00    -0.268 OA
ATOM      8  H   UNL     1      -0.920   6.162  -1.020  0.00  0.00    +0.173 HD
BRANCH   6   9
ATOM      9  C   UNL     1      -1.984   7.727   0.835  0.00  0.00    +0.076 A 
ATOM     10  C   UNL     1      -2.523   8.588   1.774  0.00  0.00    +0.024 A 
ATOM     11  C   UNL     1      -2.405   9.954   1.553  0.00  0.00    -0.036 A 
ATOM     12  C   UNL     1      -1.789  10.332   0.410  0.00  0.00    -0.006 A 
ATOM     13  S   UNL     1      -1.311   8.870  -0.361  0.00  0.00    -0.088 S 
ATOM     14  C   UNL     1      -1.585  11.747  -0.082  0.00  0.00    +0.043 C 
ATOM     15  C   UNL     1      -0.579  12.417   0.870  0.00  0.00    +0.005 C 
ATOM     16  C   UNL     1      -1.269  12.847   2.143  0.00  0.00    +0.001 C 
ATOM     17  C   UNL     1      -1.681  11.747   3.088  0.00  0.00    +0.005 C 
ATOM     18  C   UNL     1      -2.902  10.980   2.579  0.00  0.00    +0.036 C 
ENDBRANCH   6   9
ENDBRANCH   3   5
BRANCH   1  19
ATOM     19  C   UNL     1      -0.759   2.033  -1.229  0.00  0.00    +0.163 C 
BRANCH  19  20
ATOM     20  N   UNL     1      -0.073   1.560  -2.434  0.00  0.00    -0.300 N 
ATOM     21  C   UNL     1      -0.347   0.337  -2.930  0.00  0.00    +0.245 C 
ATOM     22  O   UNL     1      -1.163  -0.374  -2.377  0.00  0.00    -0.270 OA
ATOM     23  H   UNL     1       0.665   2.204  -2.935  0.00  0.00    +0.150 HD
BRANCH  21  24
ATOM     24  C   UNL     1       0.345  -0.139  -4.145  0.00  0.00    +0.037 A 
ATOM     25  C   UNL     1       1.278   0.678  -4.786  0.00  0.00    +0.016 A 
ATOM     26  C   UNL     1       1.925   0.226  -5.916  0.00  0.00    +0.039 A 
ATOM     27  C   UNL     1       1.641  -1.033  -6.424  0.00  0.00    +0.123 A 
ATOM     28  C   UNL     1       0.711  -1.846  -5.795  0.00  0.00    +0.039 A 
ATOM     29  C   UNL     1       0.063  -1.406  -4.661  0.00  0.00    +0.016 A 
ATOM     30  F   UNL     1       2.274  -1.469  -7.535  0.00  0.00    -0.205 F 
ENDBRANCH  21  24
ENDBRANCH  19  20
BRANCH  19  32
ATOM     31  C   UNL     1       0.002  -0.004   0.002  0.00  0.00    +0.009 C 
ATOM     32  C   UNL     1      -0.019   1.526   0.010  0.00  0.00    +0.012 C 
ATOM     33  C   UNL     1       1.417   2.055  -0.000  0.00  0.00    +0.009 C 
ENDBRANCH  19  32
ENDBRANCH   1  19
TORSDOF 6
