REMARK  Name = ZINC57631272
REMARK  6 active torsions:
REMARK  status: ('A' for Active; 'I' for Inactive)
REMARK    1  A    between atoms: C_1  and  C_2
REMARK    2  A    between atoms: C_3  and  C_17
REMARK    3  A    between atoms: C_5  and  C_7
REMARK    4  A    between atoms: C_7  and  O_8
REMARK    5  A    between atoms: O_8  and  C_9
REMARK    6  A    between atoms: C_17  and  N_18
REMARK                            x       y       z     vdW  Elec       q    Type
REMARK                         _______ _______ _______ _____ _____    ______ ____
ROOT
ATOM      1  C   UNL     1      -0.018   1.503   0.010  0.00  0.00    +0.066 C 
ATOM      2  C   UNL     1       0.002  -0.004   0.002  0.00  0.00    +0.047 A 
ATOM      3  C   UNL     1       0.006  -0.708  -1.159  0.00  0.00    -0.005 A 
ATOM      4  S   UNL     1       0.032  -2.379  -0.531  0.00  0.00    -0.075 S 
ATOM      5  C   UNL     1       0.036  -2.009   1.111  0.00  0.00    +0.116 A 
ATOM      6  N   UNL     1       0.023  -0.699   1.122  0.00  0.00    -0.246 NA
ENDROOT
BRANCH   5   7
ATOM      7  C   UNL     1       0.055  -2.955   2.284  0.00  0.00    +0.291 C 
BRANCH   7   8
ATOM      8  O   UNL     1      -1.286  -3.272   2.661  0.00  0.00    -0.485 OA
BRANCH   8   9
ATOM      9  C   UNL     1      -1.447  -4.121   3.711  0.00  0.00    +0.124 A 
ATOM     10  C   UNL     1      -0.337  -4.632   4.367  0.00  0.00    +0.065 A 
ATOM     11  C   UNL     1      -0.503  -5.495   5.435  0.00  0.00    +0.046 A 
ATOM     12  C   UNL     1      -1.775  -5.849   5.848  0.00  0.00    +0.040 A 
ATOM     13  C   UNL     1      -2.883  -5.340   5.195  0.00  0.00    +0.046 A 
ATOM     14  C   UNL     1      -2.722  -4.472   4.131  0.00  0.00    +0.065 A 
ATOM     15 CL   UNL     1      -4.478  -5.787   5.715  0.00  0.00    -0.083 Cl
ATOM     16 CL   UNL     1       0.886  -6.135   6.256  0.00  0.00    -0.083 Cl
ENDBRANCH   8   9
ENDBRANCH   7   8
ENDBRANCH   5   7
BRANCH   3  17
ATOM     17  C   UNL     1      -0.008  -0.215  -2.583  0.00  0.00    -0.041 C 
BRANCH  17  18
ATOM     18  N   UNL     1       1.372  -0.035  -3.053  0.00  0.00    +0.381 N 
ATOM     19  H   UNL     1       1.841   0.640  -2.468  0.00  0.00    -0.090 HD
ATOM     20  H   UNL     1       1.860  -0.917  -3.007  0.00  0.00    -0.090 HD
ATOM     21  H   UNL     1       1.363   0.295  -4.006  0.00  0.00    -0.090 HD
ENDBRANCH  17  18
ENDBRANCH   3  17
TORSDOF 5
