REMARK  Name = ZINC67538859
REMARK  9 active torsions:
REMARK  status: ('A' for Active; 'I' for Inactive)
REMARK    1  A    between atoms: C_1  and  C_2
REMARK    2  A    between atoms: C_2  and  C_4
REMARK    3  A    between atoms: C_2  and  N_11
REMARK    4  A    between atoms: C_8  and  O_10
REMARK    5  A    between atoms: N_11  and  C_12
REMARK    6  A    between atoms: N_15  and  C_16
REMARK    7  A    between atoms: C_21  and  S_22
REMARK    8  A    between atoms: S_22  and  C_23
REMARK    9  A    between atoms: C_23  and  C_24
REMARK                            x       y       z     vdW  Elec       q    Type
REMARK                         _______ _______ _______ _____ _____    ______ ____
ROOT
ATOM      1  N   UNL     1       0.543  -0.366  -1.295  0.00  0.00    -0.282 N 
ATOM      2  C   UNL     1       1.967  -0.158  -1.567  0.00  0.00    +0.134 C 
ATOM      3  C   UNL     1      -0.265  -0.846  -2.261  0.00  0.00    +0.307 C 
ATOM      4  O   UNL     1      -1.447  -1.019  -2.034  0.00  0.00    -0.252 OA
ATOM      5  N   UNL     1       0.237  -1.135  -3.478  0.00  0.00    -0.268 N 
ATOM      6  H   UNL     1       1.164  -0.931  -3.681  0.00  0.00    +0.156 HD
ENDROOT
BRANCH   5   7
ATOM      7  C   UNL     1      -0.579  -1.730  -4.450  0.00  0.00    +0.048 A 
ATOM      8  C   UNL     1      -1.928  -1.417  -4.511  0.00  0.00    +0.024 A 
ATOM      9  C   UNL     1      -2.732  -2.006  -5.470  0.00  0.00    +0.002 A 
ATOM     10  C   UNL     1      -2.194  -2.907  -6.371  0.00  0.00    +0.001 A 
ATOM     11  C   UNL     1      -0.850  -3.224  -6.318  0.00  0.00    +0.016 A 
ATOM     12  C   UNL     1      -0.035  -2.634  -5.362  0.00  0.00    +0.029 A 
BRANCH  12  13
ATOM     13  S   UNL     1       1.681  -3.031  -5.296  0.00  0.00    -0.114 S 
BRANCH  13  14
ATOM     14  C   UNL     1       1.908  -4.219  -6.648  0.00  0.00    +0.187 C 
BRANCH  14  15
ATOM     15  C   UNL     1       3.374  -4.653  -6.705  0.00  0.00    +0.399 C 
ATOM     16  F   UNL     1       3.731  -5.253  -5.492  0.00  0.00    -0.170 F 
ATOM     17  F   UNL     1       3.550  -5.569  -7.748  0.00  0.00    -0.170 F 
ATOM     18  F   UNL     1       4.184  -3.533  -6.927  0.00  0.00    -0.170 F 
ENDBRANCH  14  15
ENDBRANCH  13  14
ENDBRANCH  12  13
ENDBRANCH   5   7
BRANCH   1  20
ATOM     19  C   UNL     1       0.345   1.393   0.394  0.00  0.00    +0.033 C 
ATOM     20  C   UNL     1      -0.003  -0.052   0.028  0.00  0.00    +0.104 C 
BRANCH  20  21
ATOM     21  C   UNL     1       0.590  -0.986   1.051  0.00  0.00    -0.024 A 
ATOM     22  C   UNL     1      -0.238  -1.785   1.818  0.00  0.00    +0.006 A 
ATOM     23  C   UNL     1       0.303  -2.643   2.757  0.00  0.00    +0.004 A 
ATOM     24  C   UNL     1       1.673  -2.704   2.932  0.00  0.00    +0.045 A 
ATOM     25  C   UNL     1       2.505  -1.903   2.164  0.00  0.00    +0.117 A 
ATOM     26  C   UNL     1       1.960  -1.047   1.218  0.00  0.00    +0.050 A 
BRANCH  25  27
ATOM     27  O   UNL     1       3.852  -1.960   2.334  0.00  0.00    -0.507 OA
ATOM     28  H   UNL     1       4.291  -2.614   1.773  0.00  0.00    +0.292 HD
ENDBRANCH  25  27
ENDBRANCH  20  21
ENDBRANCH   1  20
TORSDOF 7
