REMARK  Name = ZINC09682223
REMARK  10 active torsions:
REMARK  status: ('A' for Active; 'I' for Inactive)
REMARK    1  A    between atoms: C_1  and  C_2
REMARK    2  A    between atoms: C_2  and  C_3
REMARK    3  A    between atoms: C_2  and  C_4
REMARK    4  A    between atoms: C_4  and  C_5
REMARK    5  A    between atoms: C_5  and  C_7
REMARK    6  A    between atoms: C_5  and  N_22
REMARK    7  A    between atoms: N_12  and  C_15
REMARK    8  A    between atoms: N_22  and  S_23
REMARK    9  A    between atoms: S_23  and  C_26
REMARK   10  A    between atoms: C_35  and  C_37
REMARK                            x       y       z     vdW  Elec       q    Type
REMARK                         _______ _______ _______ _____ _____    ______ ____
ROOT
ATOM      1  C   UNL     1      -0.082   0.850   0.666  0.00  0.00    +0.162 C 
ENDROOT
BRANCH   1   2
ATOM      2  C   UNL     1      -1.363   0.181   1.095  0.00  0.00    +0.234 C 
ATOM      3  O   UNL     1      -1.622  -0.938   0.705  0.00  0.00    -0.274 OA
ATOM      4  N   UNL     1      -2.219   0.826   1.911  0.00  0.00    -0.297 N 
ATOM      5  C   UNL     1      -1.952   2.204   2.349  0.00  0.00    +0.126 C 
ATOM      6  C   UNL     1      -3.204   3.050   2.070  0.00  0.00    +0.124 C 
ATOM      7  N   UNL     1      -4.369   2.414   2.699  0.00  0.00    -0.327 N 
ATOM      8  C   UNL     1      -4.634   1.092   2.116  0.00  0.00    +0.124 C 
ATOM      9  C   UNL     1      -3.443   0.167   2.393  0.00  0.00    +0.126 C 
BRANCH   7  10
ATOM     10  C   UNL     1      -5.497   3.235   2.611  0.00  0.00    +0.030 A 
ATOM     11  C   UNL     1      -6.661   2.758   2.022  0.00  0.00    +0.026 A 
ATOM     12  C   UNL     1      -7.775   3.570   1.941  0.00  0.00    +0.040 A 
ATOM     13  C   UNL     1      -7.730   4.862   2.437  0.00  0.00    +0.124 A 
ATOM     14  C   UNL     1      -6.569   5.341   3.019  0.00  0.00    +0.040 A 
ATOM     15  C   UNL     1      -5.454   4.532   3.108  0.00  0.00    +0.026 A 
ATOM     16  F   UNL     1      -8.820   5.655   2.352  0.00  0.00    -0.205 F 
ENDBRANCH   7  10
ENDBRANCH   1   2
BRANCH   1  17
ATOM     17  N   UNL     1       0.757  -0.114  -0.050  0.00  0.00    -0.178 NA
ATOM     18  H   UNL     1       0.350  -0.761  -0.648  0.00  0.00    +0.149 HD
BRANCH  17  19
ATOM     19  S   UNL     1       2.399  -0.100   0.161  0.00  0.00    +0.059 S 
ATOM     20  O   UNL     1       2.916  -1.184  -0.599  0.00  0.00    -0.153 OA
ATOM     21  O   UNL     1       2.823   1.241  -0.041  0.00  0.00    -0.153 OA
BRANCH  19  22
ATOM     22  C   UNL     1       2.711  -0.477   1.853  0.00  0.00    +0.106 A 
ATOM     23  C   UNL     1       2.877  -1.791   2.251  0.00  0.00    +0.030 A 
ATOM     24  C   UNL     1       3.121  -2.090   3.575  0.00  0.00    +0.026 A 
ATOM     25  C   UNL     1       3.201  -1.069   4.524  0.00  0.00    +0.040 A 
ATOM     26  C   UNL     1       3.032   0.244   4.115  0.00  0.00    -0.023 A 
ATOM     27  C   UNL     1       2.794   0.539   2.786  0.00  0.00    +0.034 A 
ATOM     28  C   UNL     1       3.164   1.145   5.322  0.00  0.00    +0.056 C 
ATOM     29  C   UNL     1       3.432   0.186   6.493  0.00  0.00    +0.118 C 
ATOM     30  N   UNL     1       3.436  -1.153   5.899  0.00  0.00    -0.271 N 
ATOM     31  C   UNL     1       3.636  -2.300   6.580  0.00  0.00    +0.217 C 
ATOM     32  O   UNL     1       3.620  -3.362   5.996  0.00  0.00    -0.276 OA
ATOM     33  C   UNL     1       3.881  -2.261   8.066  0.00  0.00    +0.109 C 
ENDBRANCH  19  22
ENDBRANCH  17  19
ENDBRANCH   1  17
BRANCH   1  34
ATOM     34  C   UNL     1      -0.406   2.028  -0.255  0.00  0.00    +0.032 C 
BRANCH  34  36
ATOM     35  C   UNL     1      -2.375   0.904  -1.306  0.00  0.00    +0.007 C 
ATOM     36  C   UNL     1      -0.991   1.502  -1.568  0.00  0.00    -0.015 C 
ATOM     37  C   UNL     1      -1.114   2.654  -2.568  0.00  0.00    +0.007 C 
ENDBRANCH  34  36
ENDBRANCH   1  34
TORSDOF 7
