REMARK  Name = ZINC32485680
REMARK  6 active torsions:
REMARK  status: ('A' for Active; 'I' for Inactive)
REMARK    1  A    between atoms: C_1  and  C_2
REMARK    2  A    between atoms: C_2  and  C_4
REMARK    3  A    between atoms: C_2  and  N_12
REMARK    4  A    between atoms: C_13  and  C_15
REMARK    5  A    between atoms: C_18  and  N_24
REMARK    6  A    between atoms: C_19  and  N_21
REMARK                            x       y       z     vdW  Elec       q    Type
REMARK                         _______ _______ _______ _____ _____    ______ ____
ROOT
ATOM      1  N   UNL     1       4.864   1.061   0.387  0.00  0.00    -0.305 N 
ATOM      2  C   UNL     1       3.767   1.842   0.348  0.00  0.00    +0.245 C 
ATOM      3  O   UNL     1       3.846   3.018   0.646  0.00  0.00    -0.270 OA
ATOM      4  H   UNL     1       4.792  -0.003   0.117  0.00  0.00    +0.150 HD
ENDROOT
BRANCH   2   5
ATOM      5  C   UNL     1       2.467   1.270  -0.057  0.00  0.00    +0.039 A 
ATOM      6  C   UNL     1       2.373  -0.081  -0.400  0.00  0.00    +0.015 A 
ATOM      7  C   UNL     1       1.160  -0.612  -0.777  0.00  0.00    +0.029 A 
ATOM      8  C   UNL     1       0.028   0.196  -0.816  0.00  0.00    +0.078 A 
ATOM      9  C   UNL     1       0.118   1.541  -0.475  0.00  0.00    +0.151 A 
ATOM     10  C   UNL     1       1.328   2.078  -0.098  0.00  0.00    +0.048 A 
BRANCH   8  11
ATOM     11  N   UNL     1      -1.203  -0.347  -1.199  0.00  0.00    -0.304 N 
ATOM     12  C   UNL     1      -1.837  -1.418  -0.622  0.00  0.00    +0.112 A 
ATOM     13  C   UNL     1      -2.989  -1.597  -1.295  0.00  0.00    +0.130 A 
ATOM     14  N   UNL     1      -3.058  -0.670  -2.263  0.00  0.00    -0.244 NA
ATOM     15  C   UNL     1      -1.995   0.085  -2.216  0.00  0.00    +0.204 A 
ENDBRANCH   8  11
BRANCH   9  16
ATOM     16  N   UNL     1      -1.088   2.397  -0.524  0.00  0.00    +0.058 N 
ATOM     17  O   UNL     1      -0.988   3.600  -0.362  0.00  0.00    -0.126 OA
ATOM     18  O   UNL     1      -2.181   1.899  -0.727  0.00  0.00    -0.126 OA
ENDBRANCH   9  16
ENDBRANCH   2   5
BRANCH   1  20
ATOM     19  C   UNL     1       6.301   1.535   2.309  0.00  0.00    +0.033 C 
ATOM     20  C   UNL     1       6.154   1.629   0.789  0.00  0.00    +0.102 C 
BRANCH  20  21
ATOM     21  C   UNL     1       7.269   0.861   0.127  0.00  0.00    -0.009 A 
ATOM     22  C   UNL     1       7.099  -0.476  -0.181  0.00  0.00    +0.008 A 
ATOM     23  C   UNL     1       8.121  -1.181  -0.788  0.00  0.00    +0.020 A 
ATOM     24  C   UNL     1       9.316  -0.549  -1.086  0.00  0.00    +0.042 A 
ATOM     25  C   UNL     1       9.486   0.789  -0.778  0.00  0.00    +0.040 A 
ATOM     26  C   UNL     1       8.460   1.495  -0.177  0.00  0.00    +0.047 A 
ATOM     27 CL   UNL     1       8.670   3.176   0.204  0.00  0.00    -0.083 Cl
ATOM     28 CL   UNL     1      10.600  -1.435  -1.848  0.00  0.00    -0.083 Cl
ENDBRANCH  20  21
ENDBRANCH   1  20
TORSDOF 5
