REMARK  Name = ZINC02377215
REMARK  10 active torsions:
REMARK  status: ('A' for Active; 'I' for Inactive)
REMARK    1  A    between atoms: C_1  and  C_2
REMARK    2  A    between atoms: C_2  and  O_3
REMARK    3  A    between atoms: O_3  and  C_4
REMARK    4  A    between atoms: C_4  and  C_6
REMARK    5  A    between atoms: C_7  and  N_17
REMARK    6  A    between atoms: C_10  and  C_16
REMARK    7  A    between atoms: C_18  and  C_20
REMARK    8  A    between atoms: C_22  and  C_28
REMARK    9  A    between atoms: C_23  and  C_27
REMARK   10  A    between atoms: C_25  and  C_26
REMARK                            x       y       z     vdW  Elec       q    Type
REMARK                         _______ _______ _______ _____ _____    ______ ____
ROOT
ATOM      1  C   UNL     1      -3.322   2.397  -0.203  0.00  0.00    +0.147 A 
ATOM      2  C   UNL     1      -2.604   1.265   0.127  0.00  0.00    +0.074 A 
ATOM      3  C   UNL     1      -1.265   1.717   0.513  0.00  0.00    +0.022 A 
ATOM      4  C   UNL     1      -0.111   1.052   0.940  0.00  0.00    +0.015 A 
ATOM      5  C   UNL     1       1.016   1.767   1.230  0.00  0.00    -0.050 A 
ATOM      6  C   UNL     1       1.024   3.150   1.108  0.00  0.00    +0.005 A 
ATOM      7  C   UNL     1      -0.101   3.826   0.695  0.00  0.00    +0.026 A 
ATOM      8  C   UNL     1      -1.263   3.119   0.394  0.00  0.00    +0.049 A 
ATOM      9  N   UNL     1      -2.511   3.510  -0.033  0.00  0.00    -0.348 N 
ATOM     10  H   UNL     1      -2.781   4.426  -0.201  0.00  0.00    +0.166 HD
ATOM     11  C   UNL     1       2.260   1.048   1.684  0.00  0.00    +0.044 C 
ENDROOT
BRANCH   2  12
ATOM     12  N   UNL     1      -3.062  -0.047   0.099  0.00  0.00    -0.279 N 
ATOM     13  C   UNL     1      -2.249  -1.036  -0.321  0.00  0.00    +0.249 C 
ATOM     14  O   UNL     1      -1.085  -0.797  -0.579  0.00  0.00    -0.270 OA
ATOM     15  H   UNL     1      -3.967  -0.250   0.382  0.00  0.00    +0.155 HD
BRANCH  13  16
ATOM     16  C   UNL     1      -2.772  -2.410  -0.468  0.00  0.00    +0.040 A 
ATOM     17  C   UNL     1      -4.125  -2.673  -0.249  0.00  0.00    +0.017 A 
ATOM     18  C   UNL     1      -4.608  -3.957  -0.393  0.00  0.00    -0.047 A 
ATOM     19  C   UNL     1      -3.751  -4.986  -0.742  0.00  0.00    -0.047 A 
ATOM     20  C   UNL     1      -2.408  -4.734  -0.956  0.00  0.00    +0.007 A 
ATOM     21  C   UNL     1      -1.913  -3.453  -0.821  0.00  0.00    -0.038 A 
ATOM     22  C   UNL     1      -0.450  -3.180  -1.055  0.00  0.00    +0.044 C 
ATOM     23  C   UNL     1      -4.284  -6.388  -0.891  0.00  0.00    +0.044 C 
ATOM     24  C   UNL     1      -6.069  -4.241  -0.161  0.00  0.00    +0.044 C 
ENDBRANCH  13  16
ENDBRANCH   2  12
BRANCH   1  25
ATOM     25  C   UNL     1      -4.672   2.419  -0.635  0.00  0.00    +0.358 C 
ATOM     26  O   UNL     1      -5.323   1.391  -0.652  0.00  0.00    -0.243 OA
BRANCH  25  27
ATOM     27  O   UNL     1      -5.236   3.581  -1.026  0.00  0.00    -0.460 OA
BRANCH  27  29
ATOM     28  C   UNL     1      -7.062   4.932  -1.853  0.00  0.00    +0.048 C 
ATOM     29  C   UNL     1      -6.600   3.530  -1.449  0.00  0.00    +0.229 C 
ENDBRANCH  27  29
ENDBRANCH  25  27
ENDBRANCH   1  25
TORSDOF 5
