REMARK  Name = ZINC09279604
REMARK  6 active torsions:
REMARK  status: ('A' for Active; 'I' for Inactive)
REMARK    1  A    between atoms: C_1  and  O_2
REMARK    2  A    between atoms: O_2  and  C_3
REMARK    3  A    between atoms: C_3  and  C_4
REMARK    4  A    between atoms: C_4  and  N_5
REMARK    5  A    between atoms: N_14  and  C_15
REMARK    6  A    between atoms: C_15  and  C_17
REMARK                            x       y       z     vdW  Elec       q    Type
REMARK                         _______ _______ _______ _____ _____    ______ ____
ROOT
ATOM      1  N   UNL     1       4.959  -4.167  -0.053  0.00  0.00    -0.319 N 
ATOM      2  C   UNL     1       6.228  -4.714  -0.027  0.00  0.00    +0.058 A 
ATOM      3  C   UNL     1       6.592  -6.070  -0.007  0.00  0.00    +0.028 A 
ATOM      4  C   UNL     1       7.914  -6.444   0.018  0.00  0.00    +0.017 A 
ATOM      5  C   UNL     1       8.927  -5.498   0.024  0.00  0.00    +0.019 A 
ATOM      6  C   UNL     1       8.597  -4.154   0.004  0.00  0.00    +0.032 A 
ATOM      7  C   UNL     1       7.274  -3.780  -0.021  0.00  0.00    +0.040 A 
ATOM      8  S   UNL     1       6.428  -2.220  -0.058  0.00  0.00    -0.052 S 
ATOM      9  C   UNL     1       4.799  -2.816  -0.070  0.00  0.00    +0.167 A 
ATOM     10  N   UNL     1       3.668  -2.120  -0.096  0.00  0.00    -0.152 NA
ATOM     11 BR   UNL     1      10.739  -6.038   0.059  0.00  0.00    -0.050 Br
ENDROOT
BRANCH  10  12
ATOM     12  C   UNL     1       3.705  -0.783  -0.109  0.00  0.00    +0.269 C 
ATOM     13  O   UNL     1       4.777  -0.203  -0.099  0.00  0.00    -0.268 OA
BRANCH  12  14
ATOM     14  C   UNL     1       2.446  -0.009  -0.138  0.00  0.00    +0.040 A 
ATOM     15  C   UNL     1       1.208  -0.666  -0.150  0.00  0.00    +0.015 A 
ATOM     16  C   UNL     1       0.040   0.023  -0.176  0.00  0.00    +0.029 A 
ATOM     17  C   UNL     1       0.032   1.438  -0.192  0.00  0.00    +0.078 A 
ATOM     18  C   UNL     1       1.293   2.081  -0.179  0.00  0.00    +0.040 A 
ATOM     19  C   UNL     1       2.474   1.387  -0.153  0.00  0.00    +0.030 A 
ATOM     20  S   UNL     1       0.836   3.796  -0.206  0.00  0.00    -0.075 S 
ATOM     21  C   UNL     1      -0.886   3.575  -0.231  0.00  0.00    +0.157 A 
ATOM     22  N   UNL     1      -1.022   2.277  -0.223  0.00  0.00    -0.247 NA
ENDBRANCH  12  14
ENDBRANCH  10  12
BRANCH   1  23
ATOM     23  C   UNL     1       3.784  -5.042  -0.062  0.00  0.00    +0.152 C 
BRANCH  23  24
ATOM     24  C   UNL     1       2.673  -4.413   0.780  0.00  0.00    +0.181 C 
BRANCH  24  26
ATOM     25  C   UNL     1       0.480  -4.832   1.653  0.00  0.00    +0.194 C 
ATOM     26  O   UNL     1       1.578  -5.326   0.883  0.00  0.00    -0.381 OA
ENDBRANCH  24  26
ENDBRANCH  23  24
ENDBRANCH   1  23
TORSDOF 5
