REMARK  Name = ZINC63213877
REMARK  4 active torsions:
REMARK  status: ('A' for Active; 'I' for Inactive)
REMARK    1  A    between atoms: C_2  and  S_8
REMARK    2  A    between atoms: S_8  and  N_11
REMARK    3  A    between atoms: N_11  and  C_12
REMARK    4  A    between atoms: C_19  and  N_21
REMARK                            x       y       z     vdW  Elec       q    Type
REMARK                         _______ _______ _______ _____ _____    ______ ____
ROOT
ATOM      1  N   UNL     1       1.985   4.169   1.425  0.00  0.00    -0.188 NA
ATOM      2  H   UNL     1       1.482   4.532   2.172  0.00  0.00    +0.148 HD
ENDROOT
BRANCH   1   3
ATOM      3  C   UNL     1       3.406   3.852   1.585  0.00  0.00    +0.062 C 
ATOM      4  C   UNL     1       3.538   2.421   2.140  0.00  0.00    +0.019 C 
ATOM      5  C   UNL     1       4.928   2.140   2.742  0.00  0.00    +0.001 C 
ATOM      6  C   UNL     1       6.043   2.708   1.908  0.00  0.00    -0.000 C 
ATOM      7  C   UNL     1       6.404   4.104   2.457  0.00  0.00    -0.002 C 
ATOM      8  C   UNL     1       5.479   5.133   2.006  0.00  0.00    -0.015 C 
ATOM      9  C   UNL     1       4.035   4.878   2.488  0.00  0.00    -0.056 C 
BRANCH   9  10
ATOM     10  N   UNL     1       3.267   6.128   2.426  0.00  0.00    +0.381 N 
ATOM     11  H   UNL     1       2.319   5.955   2.725  0.00  0.00    -0.090 HD
ATOM     12  H   UNL     1       3.691   6.814   3.032  0.00  0.00    -0.090 HD
ATOM     13  H   UNL     1       3.262   6.474   1.478  0.00  0.00    -0.090 HD
ENDBRANCH   9  10
ENDBRANCH   1   3
BRANCH   1  14
ATOM     14  S   UNL     1       1.236   3.908  -0.028  0.00  0.00    +0.061 S 
ATOM     15  O   UNL     1      -0.110   4.336   0.126  0.00  0.00    -0.153 OA
ATOM     16  O   UNL     1       1.575   2.587  -0.428  0.00  0.00    -0.153 OA
BRANCH  14  18
ATOM     17  C   UNL     1       2.716   4.491  -2.256  0.00  0.00    +0.057 A 
ATOM     18  C   UNL     1       1.979   4.995  -1.199  0.00  0.00    +0.132 A 
ATOM     19  C   UNL     1       1.837   6.338  -1.079  0.00  0.00    +0.106 A 
ATOM     20  S   UNL     1       2.760   6.936  -2.485  0.00  0.00    -0.063 S 
ATOM     21  C   UNL     1       3.274   5.356  -3.139  0.00  0.00    +0.081 A 
ATOM     22 CL   UNL     1       4.239   5.016  -4.542  0.00  0.00    -0.076 Cl
ATOM     23 CL   UNL     1       0.979   7.242   0.129  0.00  0.00    -0.074 Cl
ENDBRANCH  14  18
ENDBRANCH   1  14
TORSDOF 4
