REMARK  Name = ZINC01740154
REMARK  3 active torsions:
REMARK  status: ('A' for Active; 'I' for Inactive)
REMARK    1  A    between atoms: C_5  and  C_7
REMARK    2  A    between atoms: N_8  and  N_9
REMARK    3  A    between atoms: N_12  and  C_15
REMARK                            x       y       z     vdW  Elec       q    Type
REMARK                         _______ _______ _______ _____ _____    ______ ____
ROOT
ATOM      1  N   UNL     1       3.592   5.951  -0.106  0.00  0.00    -0.253 N 
ATOM      2  C   UNL     1       4.882   5.254  -0.227  0.00  0.00    +0.144 C 
ATOM      3  C   UNL     1       5.629   5.830  -1.440  0.00  0.00    +0.125 C 
ATOM      4  N   UNL     1       5.723   7.290  -1.304  0.00  0.00    -0.327 N 
ATOM      5  C   UNL     1       4.392   7.912  -1.313  0.00  0.00    +0.125 C 
ATOM      6  C   UNL     1       3.594   7.422  -0.101  0.00  0.00    +0.144 C 
ENDROOT
BRANCH   4   7
ATOM      7  C   UNL     1       6.538   7.834  -2.300  0.00  0.00    +0.030 A 
ATOM      8  C   UNL     1       6.045   8.827  -3.137  0.00  0.00    +0.024 A 
ATOM      9  C   UNL     1       6.854   9.368  -4.116  0.00  0.00    +0.022 A 
ATOM     10  C   UNL     1       8.152   8.913  -4.272  0.00  0.00    +0.041 A 
ATOM     11  C   UNL     1       8.644   7.920  -3.444  0.00  0.00    +0.022 A 
ATOM     12  C   UNL     1       7.841   7.380  -2.459  0.00  0.00    +0.024 A 
ATOM     13 CL   UNL     1       9.164   9.590  -5.509  0.00  0.00    -0.084 Cl
ENDBRANCH   4   7
BRANCH   1  15
ATOM     14  C   UNL     1       1.260   5.863   0.027  0.00  0.00    +0.139 C 
ATOM     15  N   UNL     1       2.394   5.233   0.007  0.00  0.00    -0.192 NA
BRANCH  14  20
ATOM     16  C   UNL     1      -2.406   5.062   0.032  0.00  0.00    +0.001 A 
ATOM     17  C   UNL     1      -2.380   3.679   0.007  0.00  0.00    +0.001 A 
ATOM     18  C   UNL     1      -1.173   3.004  -0.020  0.00  0.00    +0.016 A 
ATOM     19  C   UNL     1       0.015   3.707  -0.012  0.00  0.00    +0.027 A 
ATOM     20  C   UNL     1      -0.004   5.104   0.018  0.00  0.00    +0.008 A 
ATOM     21  C   UNL     1      -1.228   5.778   0.040  0.00  0.00    +0.010 A 
ATOM     22 BR   UNL     1       1.664   2.782  -0.040  0.00  0.00    -0.050 Br
ENDBRANCH  14  20
ENDBRANCH   1  15
TORSDOF 3
