REMARK  Name = ZINC40709733
REMARK  5 active torsions:
REMARK  status: ('A' for Active; 'I' for Inactive)
REMARK    1  A    between atoms: C_6  and  S_7
REMARK    2  A    between atoms: S_7  and  C_8
REMARK    3  A    between atoms: C_9  and  N_22
REMARK    4  A    between atoms: C_10  and  S_14
REMARK    5  A    between atoms: S_14  and  C_15
REMARK                            x       y       z     vdW  Elec       q    Type
REMARK                         _______ _______ _______ _____ _____    ______ ____
ROOT
ATOM      1  C   UNL     1      -1.005  -2.587  -0.152  0.00  0.00    +0.126 A 
ATOM      2  C   UNL     1      -1.953  -3.603  -0.292  0.00  0.00    +0.090 A 
ATOM      3  C   UNL     1      -1.498  -4.917  -0.418  0.00  0.00    +0.126 A 
ATOM      4  N   UNL     1      -0.187  -5.150  -0.400  0.00  0.00    -0.227 NA
ATOM      5  C   UNL     1       0.675  -4.162  -0.265  0.00  0.00    +0.223 A 
ATOM      6  N   UNL     1       0.288  -2.908  -0.149  0.00  0.00    -0.227 NA
ENDROOT
BRANCH   2   7
ATOM      7  N   UNL     1      -3.326  -3.311  -0.306  0.00  0.00    -0.354 N 
ATOM      8  H   UNL     1      -3.627  -2.393  -0.217  0.00  0.00    +0.142 HD
ATOM      9  H   UNL     1      -3.973  -4.027  -0.404  0.00  0.00    +0.142 HD
ENDBRANCH   2   7
BRANCH   1  10
ATOM     10  S   UNL     1      -1.510  -0.907   0.012  0.00  0.00    -0.068 S 
BRANCH  10  16
ATOM     11  C   UNL     1       0.591   0.360  -1.198  0.00  0.00    +0.016 A 
ATOM     12  C   UNL     1       1.777   1.069  -1.199  0.00  0.00    +0.021 A 
ATOM     13  C   UNL     1       2.379   1.414  -0.002  0.00  0.00    +0.041 A 
ATOM     14  C   UNL     1       1.795   1.052   1.200  0.00  0.00    +0.021 A 
ATOM     15  C   UNL     1       0.609   0.344   1.207  0.00  0.00    +0.016 A 
ATOM     16  C   UNL     1       0.003  -0.004   0.006  0.00  0.00    +0.014 A 
ATOM     17 CL   UNL     1       3.870   2.303  -0.007  0.00  0.00    -0.084 Cl
ENDBRANCH  10  16
ENDBRANCH   1  10
BRANCH   3  18
ATOM     18  S   UNL     1      -2.640  -6.246  -0.598  0.00  0.00    -0.068 S 
BRANCH  18  19
ATOM     19  C   UNL     1      -1.626  -7.687  -0.568  0.00  0.00    +0.014 A 
ATOM     20  C   UNL     1      -1.264  -8.259   0.645  0.00  0.00    +0.016 A 
ATOM     21  C   UNL     1      -0.470  -9.388   0.665  0.00  0.00    +0.021 A 
ATOM     22  C   UNL     1      -0.034  -9.950  -0.522  0.00  0.00    +0.041 A 
ATOM     23  C   UNL     1      -0.393  -9.383  -1.732  0.00  0.00    +0.021 A 
ATOM     24  C   UNL     1      -1.191  -8.257  -1.758  0.00  0.00    +0.016 A 
ATOM     25 CL   UNL     1       0.965 -11.370  -0.492  0.00  0.00    -0.084 Cl
ENDBRANCH  18  19
ENDBRANCH   3  18
TORSDOF 5
