REMARK  Name = ZINC59326721
REMARK  5 active torsions:
REMARK  status: ('A' for Active; 'I' for Inactive)
REMARK    1  A    between atoms: C_1  and  C_2
REMARK    2  A    between atoms: C_2  and  C_9
REMARK    3  A    between atoms: C_13  and  N_15
REMARK    4  A    between atoms: C_16  and  C_18
REMARK    5  A    between atoms: C_18  and  C_19
REMARK                            x       y       z     vdW  Elec       q    Type
REMARK                         _______ _______ _______ _____ _____    ______ ____
ROOT
ATOM      1  C   UNL     1       0.416  -1.248  -1.347  0.00  0.00    -0.014 A 
ATOM      2  C   UNL     1       1.787  -1.307  -1.170  0.00  0.00    +0.006 A 
ATOM      3  C   UNL     1       2.636  -1.040  -2.227  0.00  0.00    +0.002 A 
ATOM      4  C   UNL     1       2.119  -0.712  -3.465  0.00  0.00    +0.023 A 
ATOM      5  C   UNL     1       0.744  -0.651  -3.647  0.00  0.00    +0.034 A 
ATOM      6  C   UNL     1      -0.107  -0.926  -2.584  0.00  0.00    +0.029 A 
ENDROOT
BRANCH   1   8
ATOM      7  C   UNL     1      -1.406  -0.337   0.094  0.00  0.00    +0.047 C 
ATOM      8  C   UNL     1      -0.506  -1.541  -0.192  0.00  0.00    +0.135 C 
ATOM      9  C   UNL     1      -1.339  -2.776  -0.471  0.00  0.00    +0.248 C 
ATOM     10  O   UNL     1      -2.134  -2.935  -1.373  0.00  0.00    -0.273 OA
ATOM     11  N   UNL     1      -1.012  -3.661   0.491  0.00  0.00    -0.238 N 
ATOM     12  C   UNL     1      -0.098  -3.161   1.331  0.00  0.00    +0.307 C 
ATOM     13  O   UNL     1       0.354  -3.773   2.279  0.00  0.00    -0.252 OA
ATOM     14  N   UNL     1       0.266  -1.907   1.007  0.00  0.00    -0.282 N 
ATOM     15  H   UNL     1      -1.393  -4.550   0.567  0.00  0.00    +0.159 HD
ATOM     16  H   UNL     1       0.911  -1.353   1.473  0.00  0.00    +0.152 HD
ENDBRANCH   1   8
BRANCH   5  17
ATOM     17  N   UNL     1       0.216  -0.319  -4.900  0.00  0.00    -0.285 N 
ATOM     18  C   UNL     1       0.860  -0.694  -6.023  0.00  0.00    +0.218 C 
ATOM     19  O   UNL     1       1.843  -1.400  -5.951  0.00  0.00    -0.275 OA
ATOM     20  H   UNL     1      -0.613   0.181  -4.960  0.00  0.00    +0.155 HD
BRANCH  18  21
ATOM     21  C   UNL     1       0.357  -0.236  -7.368  0.00  0.00    +0.103 C 
BRANCH  21  22
ATOM     22  C   UNL     1       1.260  -0.798  -8.468  0.00  0.00    -0.019 C 
ATOM     23  C   UNL     1       1.243  -2.327  -8.411  0.00  0.00    +0.011 C 
ATOM     24  C   UNL     1       2.146  -2.888  -9.511  0.00  0.00    -0.009 C 
ATOM     25  C   UNL     1       1.636  -2.423 -10.876  0.00  0.00    +0.007 C 
ATOM     26  C   UNL     1       1.653  -0.894 -10.933  0.00  0.00    -0.009 C 
ATOM     27  C   UNL     1       0.750  -0.333  -9.833  0.00  0.00    +0.011 C 
ATOM     28  C   UNL     1       3.083  -0.392 -10.725  0.00  0.00    +0.021 C 
ATOM     29  C   UNL     1       3.594  -0.857  -9.359  0.00  0.00    +0.027 C 
ATOM     30  C   UNL     1       3.576  -2.386  -9.302  0.00  0.00    +0.021 C 
ATOM     31  C   UNL     1       2.691  -0.296  -8.259  0.00  0.00    +0.025 C 
ATOM     32 BR   UNL     1       5.431  -0.212  -9.092  0.00  0.00    -0.084 Br
ENDBRANCH  21  22
ENDBRANCH  18  21
ENDBRANCH   5  17
TORSDOF 4
