REMARK  Name = ZINC63588935
REMARK  9 active torsions:
REMARK  status: ('A' for Active; 'I' for Inactive)
REMARK    1  A    between atoms: C_1  and  C_2
REMARK    2  A    between atoms: C_5  and  C_9
REMARK    3  A    between atoms: C_9  and  N_11
REMARK    4  A    between atoms: N_13  and  C_14
REMARK    5  A    between atoms: C_16  and  C_21
REMARK    6  A    between atoms: C_18  and  C_20
REMARK    7  A    between atoms: N_22  and  C_23
REMARK    8  A    between atoms: C_23  and  C_24
REMARK    9  A    between atoms: C_24  and  C_25
REMARK                            x       y       z     vdW  Elec       q    Type
REMARK                         _______ _______ _______ _____ _____    ______ ____
ROOT
ATOM      1  N   UNL     1      -0.887  -5.282   0.989  0.00  0.00    -0.143 NA
ATOM      2  C   UNL     1       0.139  -6.119   0.975  0.00  0.00    +0.194 C 
ATOM      3  N   UNL     1       0.571  -6.651  -0.205  0.00  0.00    -0.328 N 
ATOM      4  N   UNL     1       0.765  -6.449   2.142  0.00  0.00    -0.357 N 
ATOM      5  H   UNL     1       0.914  -7.558  -0.232  0.00  0.00    +0.169 HD
ATOM      6  H   UNL     1       0.415  -6.127   2.987  0.00  0.00    +0.162 HD
ENDROOT
BRANCH   3   7
ATOM      7  C   UNL     1       0.518  -5.888  -1.377  0.00  0.00    +0.042 A 
ATOM      8  C   UNL     1       0.421  -4.505  -1.303  0.00  0.00    +0.029 A 
ATOM      9  C   UNL     1       0.369  -3.755  -2.462  0.00  0.00    -0.048 A 
ATOM     10  C   UNL     1       0.414  -4.380  -3.694  0.00  0.00    +0.006 A 
ATOM     11  C   UNL     1       0.511  -5.758  -3.771  0.00  0.00    -0.048 A 
ATOM     12  C   UNL     1       0.569  -6.513  -2.616  0.00  0.00    +0.029 A 
ATOM     13  C   UNL     1       0.558  -6.435  -5.117  0.00  0.00    +0.044 C 
ATOM     14  C   UNL     1       0.264  -2.254  -2.383  0.00  0.00    +0.044 C 
ENDBRANCH   3   7
BRANCH   1  15
ATOM     15  C   UNL     1      -1.768  -5.285  -0.021  0.00  0.00    +0.270 C 
ATOM     16  O   UNL     1      -1.700  -6.142  -0.885  0.00  0.00    -0.268 OA
BRANCH  15  21
ATOM     17  C   UNL     1      -5.872  -1.254  -0.284  0.00  0.00    +0.047 C 
ATOM     18  C   UNL     1      -4.798  -2.309  -0.215  0.00  0.00    -0.015 A 
ATOM     19  C   UNL     1      -4.654  -3.215  -1.250  0.00  0.00    +0.007 A 
ATOM     20  C   UNL     1      -3.672  -4.183  -1.192  0.00  0.00    +0.013 A 
ATOM     21  C   UNL     1      -2.822  -4.248  -0.088  0.00  0.00    +0.042 A 
ATOM     22  C   UNL     1      -2.970  -3.332   0.953  0.00  0.00    +0.051 A 
ATOM     23  C   UNL     1      -3.954  -2.363   0.883  0.00  0.00    +0.127 A 
ATOM     24  F   UNL     1      -4.096  -1.472   1.888  0.00  0.00    -0.205 F 
ENDBRANCH  15  21
ENDBRANCH   1  15
BRANCH   4  25
ATOM     25  C   UNL     1       1.965  -7.289   2.117  0.00  0.00    +0.120 C 
BRANCH  25  26
ATOM     26  C   UNL     1       2.400  -7.599   3.550  0.00  0.00    +0.054 C 
BRANCH  26  27
ATOM     27  C   UNL     1       3.700  -8.361   3.527  0.00  0.00    -0.040 C 
ATOM     28  C   UNL     1       4.945  -7.849   3.648  0.00  0.00    -0.001 A 
ATOM     29  C   UNL     1       5.444  -6.481   3.831  0.00  0.00    +0.010 A 
ATOM     30  C   UNL     1       6.778  -6.276   3.921  0.00  0.00    +0.001 A 
ATOM     31  C   UNL     1       7.694  -7.334   3.844  0.00  0.00    +0.002 A 
ATOM     32  C   UNL     1       7.312  -8.618   3.677  0.00  0.00    +0.026 A 
ATOM     33  C   UNL     1       5.933  -8.950   3.571  0.00  0.00    +0.043 A 
ATOM     34  N   UNL     1       5.321 -10.097   3.407  0.00  0.00    -0.380 N 
ATOM     35  C   UNL     1       3.874  -9.855   3.369  0.00  0.00    +0.144 C 
ATOM     36  H   UNL     1       5.752 -10.963   3.329  0.00  0.00    +0.160 HD
ENDBRANCH  26  27
ENDBRANCH  25  26
ENDBRANCH   4  25
TORSDOF 6
