REMARK  Name = ZINC64793862
REMARK  7 active torsions:
REMARK  status: ('A' for Active; 'I' for Inactive)
REMARK    1  A    between atoms: C_4  and  N_29
REMARK    2  A    between atoms: C_5  and  C_10
REMARK    3  A    between atoms: C_13  and  S_21
REMARK    4  A    between atoms: N_14  and  C_15
REMARK    5  A    between atoms: S_21  and  C_22
REMARK    6  A    between atoms: C_22  and  C_23
REMARK    7  A    between atoms: N_25  and  C_26
REMARK                            x       y       z     vdW  Elec       q    Type
REMARK                         _______ _______ _______ _____ _____    ______ ____
ROOT
ATOM      1  C   UNL     1       6.226   1.346  -0.049  0.00  0.00    +0.174 A 
ATOM      2  N   UNL     1       6.775   2.542  -0.042  0.00  0.00    -0.128 NA
ATOM      3  N   UNL     1       8.056   2.436  -0.055  0.00  0.00    -0.122 NA
ATOM      4  C   UNL     1       8.406   1.170  -0.072  0.00  0.00    +0.193 A 
ATOM      5  N   UNL     1       7.255   0.430  -0.063  0.00  0.00    -0.299 N 
ENDROOT
BRANCH   1  10
ATOM      6  C   UNL     1      -0.017   1.382   0.010  0.00  0.00    +0.020 A 
ATOM      7  C   UNL     1       1.160   2.094   0.002  0.00  0.00    +0.014 A 
ATOM      8  C   UNL     1       2.389   1.389  -0.013  0.00  0.00    +0.029 A 
ATOM      9  C   UNL     1       3.743   1.919  -0.023  0.00  0.00    +0.052 A 
ATOM     10  C   UNL     1       4.787   1.045  -0.037  0.00  0.00    +0.080 A 
ATOM     11  S   UNL     1       3.994  -0.551  -0.039  0.00  0.00    -0.064 S 
ATOM     12  C   UNL     1       2.299  -0.022  -0.020  0.00  0.00    +0.111 A 
ATOM     13  N   UNL     1       1.149  -0.657  -0.013  0.00  0.00    -0.248 NA
ATOM     14  C   UNL     1       0.002  -0.004   0.002  0.00  0.00    +0.112 A 
BRANCH   9  15
ATOM     15  N   UNL     1       3.969   3.301  -0.018  0.00  0.00    -0.356 N 
ATOM     16  H   UNL     1       3.219   3.916  -0.008  0.00  0.00    +0.142 HD
ATOM     17  H   UNL     1       4.877   3.644  -0.025  0.00  0.00    +0.142 HD
ENDBRANCH   9  15
ENDBRANCH   1  10
BRANCH   5  18
ATOM     18  C   UNL     1       7.141  -1.030  -0.070  0.00  0.00    +0.091 C 
ATOM     19  C   UNL     1       7.809  -1.588  -1.329  0.00  0.00    +0.025 C 
ATOM     20  C   UNL     1       7.690  -3.113  -1.336  0.00  0.00    +0.002 C 
ATOM     21  C   UNL     1       8.380  -3.685  -0.096  0.00  0.00    +0.000 C 
ATOM     22  C   UNL     1       7.712  -3.127   1.162  0.00  0.00    +0.002 C 
ATOM     23  C   UNL     1       7.832  -1.602   1.169  0.00  0.00    +0.025 C 
ENDBRANCH   5  18
BRANCH   4  24
ATOM     24  S   UNL     1      10.052   0.542  -0.095  0.00  0.00    -0.077 S 
BRANCH  24  25
ATOM     25  C   UNL     1      11.090   2.029  -0.089  0.00  0.00    +0.173 C 
BRANCH  25  26
ATOM     26  C   UNL     1      12.542   1.628  -0.107  0.00  0.00    +0.224 C 
ATOM     27  O   UNL     1      12.847   0.455  -0.123  0.00  0.00    -0.275 OA
ATOM     28  N   UNL     1      13.502   2.574  -0.106  0.00  0.00    -0.312 N 
ATOM     29  H   UNL     1      13.258   3.513  -0.093  0.00  0.00    +0.149 HD
BRANCH  28  30
ATOM     30  C   UNL     1      14.914   2.184  -0.124  0.00  0.00    +0.073 C 
ATOM     31  C   UNL     1      15.866   2.933   0.811  0.00  0.00    +0.024 C 
ATOM     32  C   UNL     1      15.917   3.188  -0.696  0.00  0.00    +0.024 C 
ENDBRANCH  28  30
ENDBRANCH  25  26
ENDBRANCH  24  25
ENDBRANCH   4  24
TORSDOF 7
