REMARK  Name = ZINC12877162
REMARK  14 active torsions:
REMARK  status: ('A' for Active; 'I' for Inactive)
REMARK    1  A    between atoms: C_1  and  C_2
REMARK    2  A    between atoms: C_13  and  C_14
REMARK    3  A    between atoms: C_13  and  O_15
REMARK    4  A    between atoms: N_21  and  O_22
REMARK    5  A    between atoms: O_22  and  C_23
REMARK    6  A    between atoms: C_23  and  C_24
REMARK    7  A    between atoms: N_26  and  C_27
REMARK    8  A    between atoms: C_27  and  C_28
REMARK    9  A    between atoms: C_28  and  C_29
REMARK   10  A    between atoms: C_28  and  C_30
REMARK   11  A    between atoms: C_28  and  C_31
REMARK   12  A    between atoms: C_31  and  C_33
REMARK   13  A    between atoms: C_31  and  O_35
REMARK   14  A    between atoms: C_38  and  C_39
REMARK                            x       y       z     vdW  Elec       q    Type
REMARK                         _______ _______ _______ _____ _____    ______ ____
ROOT
ATOM      1  C   UNL     1      -0.020  -7.205  -0.170  0.00  0.00    +0.014 C 
ATOM      2  C   UNL     1       0.039  -6.784  -1.640  0.00  0.00    -0.000 C 
ATOM      3  C   UNL     1       1.295  -5.972  -1.892  0.00  0.00    +0.010 C 
ATOM      4  C   UNL     1       1.296  -4.812  -0.885  0.00  0.00    +0.005 C 
ATOM      5  C   UNL     1       0.033  -3.939  -1.030  0.00  0.00    +0.006 C 
ATOM      6  C   UNL     1      -1.234  -4.800  -0.900  0.00  0.00    -0.003 C 
ATOM      7  C   UNL     1      -1.171  -5.870  -1.974  0.00  0.00    +0.001 C 
ATOM      8  C   UNL     1      -2.327  -6.876  -1.984  0.00  0.00    +0.007 C 
ATOM      9  C   UNL     1      -1.716  -8.100  -2.718  0.00  0.00    +0.035 C 
ATOM     10  C   UNL     1      -0.181  -7.998  -2.536  0.00  0.00    +0.069 C 
ATOM     11  C   UNL     1       0.502  -7.790  -3.888  0.00  0.00    +0.042 C 
ATOM     12  C   UNL     1      -2.460  -3.911  -1.123  0.00  0.00    +0.008 C 
ATOM     13  C   UNL     1      -2.543  -2.861  -0.011  0.00  0.00    +0.032 C 
ATOM     14  C   UNL     1      -1.230  -2.101   0.019  0.00  0.00    -0.058 C 
ATOM     15  C   UNL     1      -1.256  -0.778   0.016  0.00  0.00    +0.031 C 
ATOM     16  C   UNL     1       0.002  -0.004   0.002  0.00  0.00    +0.102 C 
ATOM     17  N   UNL     1      -0.016   1.301   0.009  0.00  0.00    -0.085 NA
ATOM     18  C   UNL     1       1.282  -0.744  -0.014  0.00  0.00    +0.027 C 
ATOM     19  C   UNL     1       1.277  -2.063   0.023  0.00  0.00    -0.014 C 
ATOM     20  C   UNL     1       0.042  -2.893   0.089  0.00  0.00    +0.011 C 
ATOM     21  C   UNL     1       0.052  -3.641   1.424  0.00  0.00    +0.020 C 
ENDROOT
BRANCH  10  22
ATOM     22  O   UNL     1       0.321  -9.177  -1.904  0.00  0.00    -0.388 OA
ATOM     23  H   UNL     1       0.209  -9.983  -2.427  0.00  0.00    +0.210 HD
ENDBRANCH  10  22
BRANCH  17  24
ATOM     24  O   UNL     1       1.201   2.026   0.002  0.00  0.00    -0.384 OA
BRANCH  24  25
ATOM     25  C   UNL     1       1.032   3.445   0.011  0.00  0.00    +0.358 C 
BRANCH  25  26
ATOM     26  C   UNL     1       2.384   4.111   0.001  0.00  0.00    +0.253 C 
ATOM     27  O   UNL     1       3.392   3.438  -0.012  0.00  0.00    -0.272 OA
ATOM     28  N   UNL     1       2.472   5.456   0.008  0.00  0.00    -0.312 N 
ATOM     29  H   UNL     1       1.665   5.995   0.018  0.00  0.00    +0.149 HD
BRANCH  28  30
ATOM     30  C   UNL     1       3.786   6.104  -0.001  0.00  0.00    +0.113 C 
BRANCH  30  31
ATOM     31  C   UNL     1       3.605   7.623   0.009  0.00  0.00    +0.017 C 
ATOM     32  C   UNL     1       2.817   8.052  -1.231  0.00  0.00    +0.015 C 
ATOM     33  C   UNL     1       2.841   8.038   1.267  0.00  0.00    +0.015 C 
BRANCH  31  34
ATOM     34  C   UNL     1       4.978   8.300  -0.001  0.00  0.00    +0.234 C 
BRANCH  34  35
ATOM     35  C   UNL     1       4.800   9.797   0.009  0.00  0.00    +0.384 C 
ATOM     36  O   UNL     1       5.159  10.454  -0.940  0.00  0.00    -0.243 OA
ATOM     37  O   UNL     1       4.243  10.399   1.071  0.00  0.00    -0.243 OA
ENDBRANCH  34  35
BRANCH  34  38
ATOM     38  O   UNL     1       5.691   7.913  -1.177  0.00  0.00    -0.380 OA
ATOM     39  H   UNL     1       5.249   8.153  -2.002  0.00  0.00    +0.211 HD
ENDBRANCH  34  38
ENDBRANCH  31  34
ENDBRANCH  30  31
ENDBRANCH  28  30
ENDBRANCH  25  26
ENDBRANCH  24  25
ENDBRANCH  17  24
TORSDOF 9
