REMARK  Name = ZINC17074842
REMARK  4 active torsions:
REMARK  status: ('A' for Active; 'I' for Inactive)
REMARK    1  A    between atoms: C_3  and  C_8
REMARK    2  A    between atoms: N_10  and  C_11
REMARK    3  A    between atoms: C_11  and  N_13
REMARK    4  A    between atoms: C_19  and  O_23
REMARK                            x       y       z     vdW  Elec       q    Type
REMARK                         _______ _______ _______ _____ _____    ______ ____
ROOT
ATOM      1  C   UNL     1       5.992   2.192  -0.046  0.00  0.00    +0.163 C 
ATOM      2  S   UNL     1       5.975   3.904  -0.049  0.00  0.00    -0.016 S 
ENDROOT
BRANCH   1   3
ATOM      3  N   UNL     1       7.156   1.535  -0.059  0.00  0.00    -0.169 NA
ATOM      4  C   UNL     1       8.067   1.780   0.875  0.00  0.00    +0.163 A 
ATOM      5  N   UNL     1       7.968   2.578   1.976  0.00  0.00    -0.335 N 
ATOM      6  C   UNL     1       9.040   2.707   2.843  0.00  0.00    +0.055 A 
ATOM      7  C   UNL     1       9.105   3.483   4.014  0.00  0.00    +0.030 A 
ATOM      8  C   UNL     1      10.245   3.513   4.780  0.00  0.00    +0.047 A 
ATOM      9  C   UNL     1      11.370   2.779   4.425  0.00  0.00    +0.118 A 
ATOM     10  C   UNL     1      11.333   2.005   3.274  0.00  0.00    +0.062 A 
ATOM     11  C   UNL     1      10.191   1.977   2.510  0.00  0.00    +0.042 A 
ATOM     12  S   UNL     1       9.728   1.141   1.012  0.00  0.00    -0.052 S 
ATOM     13  H   UNL     1       7.144   3.058   2.152  0.00  0.00    +0.168 HD
BRANCH   9  14
ATOM     14  O   UNL     1      12.491   2.820   5.193  0.00  0.00    -0.507 OA
ATOM     15  H   UNL     1      12.517   2.146   5.887  0.00  0.00    +0.292 HD
ENDBRANCH   9  14
ENDBRANCH   1   3
BRANCH   1  18
ATOM     16  C   UNL     1       3.658   2.169  -0.019  0.00  0.00    +0.250 C 
ATOM     17  O   UNL     1       3.646   3.384  -0.020  0.00  0.00    -0.270 OA
ATOM     18  N   UNL     1       4.831   1.507  -0.032  0.00  0.00    -0.262 N 
ATOM     19  H   UNL     1       4.841   0.537  -0.030  0.00  0.00    +0.157 HD
BRANCH  16  22
ATOM     20  C   UNL     1      -0.017   1.394   0.025  0.00  0.00    +0.002 A 
ATOM     21  C   UNL     1       1.168   2.101   0.011  0.00  0.00    +0.013 A 
ATOM     22  C   UNL     1       2.385   1.418  -0.003  0.00  0.00    +0.038 A 
ATOM     23  C   UNL     1       2.396   0.021  -0.001  0.00  0.00    +0.033 A 
ATOM     24  C   UNL     1       1.203  -0.674   0.014  0.00  0.00    +0.042 A 
ATOM     25  C   UNL     1      -0.001   0.011   0.027  0.00  0.00    +0.020 A 
ATOM     26 CL   UNL     1       1.213  -2.410   0.015  0.00  0.00    -0.084 Cl
ENDBRANCH  16  22
ENDBRANCH   1  18
TORSDOF 4
