REMARK  Name = ZINC06046338
REMARK  7 active torsions:
REMARK  status: ('A' for Active; 'I' for Inactive)
REMARK    1  A    between atoms: C_1  and  C_2
REMARK    2  A    between atoms: C_3  and  C_18
REMARK    3  A    between atoms: C_4  and  C_10
REMARK    4  A    between atoms: C_13  and  S_16
REMARK    5  A    between atoms: S_16  and  C_17
REMARK    6  A    between atoms: N_20  and  C_21
REMARK    7  A    between atoms: C_25  and  N_27
REMARK                            x       y       z     vdW  Elec       q    Type
REMARK                         _______ _______ _______ _____ _____    ______ ____
ROOT
ATOM      1  C   UNL     1       0.174   4.477  -0.757  0.00  0.00    +0.061 C 
ATOM      2  C   UNL     1      -0.060   3.138  -0.107  0.00  0.00    +0.019 C 
ATOM      3  C   UNL     1      -1.307   2.795   0.277  0.00  0.00    +0.056 C 
ATOM      4  C   UNL     1      -1.499   1.437   0.922  0.00  0.00    +0.142 C 
ATOM      5  N   UNL     1      -0.298   0.602   1.089  0.00  0.00    -0.288 N 
ATOM      6  C   UNL     1       0.884   1.083   0.653  0.00  0.00    +0.304 C 
ATOM      7  O   UNL     1       1.880   0.399   0.782  0.00  0.00    -0.252 OA
ATOM      8  N   UNL     1       0.995   2.290   0.085  0.00  0.00    -0.273 N 
ATOM      9  H   UNL     1      -0.356  -0.276   1.498  0.00  0.00    +0.151 HD
ATOM     10  H   UNL     1       1.874   2.579  -0.207  0.00  0.00    +0.156 HD
ENDROOT
BRANCH   4  11
ATOM     11  C   UNL     1      -2.104   1.657   2.284  0.00  0.00    -0.022 A 
ATOM     12  C   UNL     1      -1.308   2.076   3.334  0.00  0.00    +0.007 A 
ATOM     13  C   UNL     1      -1.860   2.283   4.582  0.00  0.00    +0.015 A 
ATOM     14  C   UNL     1      -3.216   2.059   4.786  0.00  0.00    +0.008 A 
ATOM     15  C   UNL     1      -4.013   1.632   3.731  0.00  0.00    +0.015 A 
ATOM     16  C   UNL     1      -3.455   1.432   2.483  0.00  0.00    +0.007 A 
BRANCH  14  17
ATOM     17  S   UNL     1      -3.924   2.314   6.379  0.00  0.00    -0.129 S 
ATOM     18  C   UNL     1      -2.525   2.855   7.400  0.00  0.00    +0.090 C 
ENDBRANCH  14  17
ENDBRANCH   4  11
BRANCH   3  19
ATOM     19  C   UNL     1      -2.401   3.673   0.079  0.00  0.00    +0.248 C 
ATOM     20  O   UNL     1      -3.199   3.459  -0.815  0.00  0.00    -0.270 OA
ATOM     21  N   UNL     1      -2.558   4.745   0.881  0.00  0.00    -0.282 N 
ATOM     22  H   UNL     1      -1.883   4.958   1.544  0.00  0.00    +0.155 HD
BRANCH  21  23
ATOM     23  C   UNL     1      -3.695   5.550   0.757  0.00  0.00    +0.036 A 
ATOM     24  C   UNL     1      -4.255   5.776  -0.494  0.00  0.00    +0.023 A 
ATOM     25  C   UNL     1      -5.380   6.567  -0.612  0.00  0.00    +0.004 A 
ATOM     26  C   UNL     1      -5.945   7.142   0.512  0.00  0.00    +0.033 A 
ATOM     27  C   UNL     1      -5.387   6.923   1.758  0.00  0.00    +0.128 A 
ATOM     28  C   UNL     1      -4.264   6.128   1.884  0.00  0.00    +0.056 A 
BRANCH  27  29
ATOM     29  N   UNL     1      -5.994   7.540   2.959  0.00  0.00    +0.056 N 
ATOM     30  O   UNL     1      -5.503   7.347   4.057  0.00  0.00    -0.126 OA
ATOM     31  O   UNL     1      -6.984   8.241   2.849  0.00  0.00    -0.126 OA
ENDBRANCH  27  29
ENDBRANCH  21  23
ENDBRANCH   3  19
TORSDOF 5
