REMARK  Name = ZINC35339220
REMARK  13 active torsions:
REMARK  status: ('A' for Active; 'I' for Inactive)
REMARK    1  A    between atoms: C_1  and  C_2
REMARK    2  A    between atoms: N_8  and  C_9
REMARK    3  A    between atoms: C_9  and  C_10
REMARK    4  A    between atoms: C_10  and  C_11
REMARK    5  A    between atoms: C_11  and  N_12
REMARK    6  A    between atoms: C_13  and  C_15
REMARK    7  A    between atoms: C_18  and  C_20
REMARK    8  A    between atoms: C_20  and  N_21
REMARK    9  A    between atoms: N_21  and  C_22
REMARK   10  A    between atoms: C_22  and  C_23
REMARK   11  A    between atoms: C_23  and  O_24
REMARK   12  A    between atoms: O_24  and  C_25
REMARK   13  A    between atoms: N_28  and  C_29
REMARK                            x       y       z     vdW  Elec       q    Type
REMARK                         _______ _______ _______ _____ _____    ______ ____
ROOT
ATOM      1  C   UNL     1       6.792  -0.076   5.321  0.00  0.00    +0.133 A 
ATOM      2  C   UNL     1       8.065   0.324   5.626  0.00  0.00    +0.080 A 
ATOM      3  S   UNL     1       8.319  -0.390   7.126  0.00  0.00    -0.078 S 
ATOM      4  C   UNL     1       6.838  -1.157   7.316  0.00  0.00    +0.096 A 
ATOM      5  N   UNL     1       6.183  -0.844   6.231  0.00  0.00    -0.238 NA
ENDROOT
BRANCH   1   7
ATOM      6  N   UNL     1       4.872  -0.092   3.809  0.00  0.00    -0.310 N 
ATOM      7  C   UNL     1       6.130   0.320   4.067  0.00  0.00    +0.263 C 
ATOM      8  O   UNL     1       6.717   1.019   3.263  0.00  0.00    -0.269 OA
ATOM      9  H   UNL     1       4.404  -0.650   4.450  0.00  0.00    +0.149 HD
BRANCH   6  10
ATOM     10  C   UNL     1       4.214   0.302   2.561  0.00  0.00    +0.103 C 
BRANCH  10  11
ATOM     11  C   UNL     1       2.805  -0.295   2.518  0.00  0.00    +0.000 C 
BRANCH  11  12
ATOM     12  C   UNL     1       2.117   0.117   1.215  0.00  0.00    -0.077 C 
BRANCH  12  19
ATOM     13  C   UNL     1       0.043   1.566  -0.003  0.00  0.00    -0.013 C 
ATOM     14  C   UNL     1       0.064   0.037  -0.019  0.00  0.00    -0.072 C 
ATOM     15  C   UNL     1      -1.372  -0.492  -0.024  0.00  0.00    -0.016 C 
ATOM     16  C   UNL     1      -1.347  -2.023  -0.041  0.00  0.00    -0.003 C 
ATOM     17  C   UNL     1      -0.548  -2.524   1.166  0.00  0.00    -0.019 C 
ATOM     18  C   UNL     1       0.857  -1.920   1.127  0.00  0.00    -0.078 C 
ATOM     19  N   UNL     1       0.765  -0.456   1.173  0.00  0.00    +0.381 N 
ATOM     20  H   UNL     1       0.258  -0.176   1.999  0.00  0.00    -0.081 HD
ENDBRANCH  12  19
ENDBRANCH  11  12
ENDBRANCH  10  11
ENDBRANCH   6  10
ENDBRANCH   1   7
BRANCH   4  21
ATOM     21  C   UNL     1       6.371  -2.003   8.472  0.00  0.00    +0.172 C 
BRANCH  21  22
ATOM     22  N   UNL     1       6.723  -3.403   8.225  0.00  0.00    -0.277 N 
ATOM     23  C   UNL     1       5.860  -4.211   7.578  0.00  0.00    +0.307 C 
ATOM     24  O   UNL     1       4.789  -3.778   7.199  0.00  0.00    -0.252 OA
ATOM     25  N   UNL     1       6.184  -5.500   7.351  0.00  0.00    -0.267 N 
ATOM     26  H   UNL     1       7.069  -5.825   7.580  0.00  0.00    +0.156 HD
BRANCH  25  27
ATOM     27  C   UNL     1       5.243  -6.370   6.785  0.00  0.00    +0.070 A 
ATOM     28  C   UNL     1       3.886  -6.111   6.921  0.00  0.00    +0.026 A 
ATOM     29  C   UNL     1       2.961  -6.970   6.362  0.00  0.00    +0.002 A 
ATOM     30  C   UNL     1       3.383  -8.088   5.667  0.00  0.00    +0.003 A 
ATOM     31  C   UNL     1       4.734  -8.350   5.528  0.00  0.00    +0.040 A 
ATOM     32  C   UNL     1       5.666  -7.491   6.081  0.00  0.00    +0.145 A 
ATOM     33  F   UNL     1       6.986  -7.744   5.941  0.00  0.00    -0.204 F 
ENDBRANCH  25  27
BRANCH  22  34
ATOM     34  C   UNL     1       8.013  -3.926   8.682  0.00  0.00    +0.138 C 
BRANCH  34  35
ATOM     35  C   UNL     1       7.866  -4.479  10.101  0.00  0.00    +0.178 C 
BRANCH  35  36
ATOM     36  O   UNL     1       6.987  -5.606  10.084  0.00  0.00    -0.381 OA
ATOM     37  C   UNL     1       6.779  -6.201  11.366  0.00  0.00    +0.194 C 
ENDBRANCH  35  36
ENDBRANCH  34  35
ENDBRANCH  22  34
ENDBRANCH  21  22
ENDBRANCH   4  21
TORSDOF 11
