REMARK  Name = ZINC11808670
REMARK  11 active torsions:
REMARK  status: ('A' for Active; 'I' for Inactive)
REMARK    1  A    between atoms: C_1  and  C_2
REMARK    2  A    between atoms: C_2  and  C_3
REMARK    3  A    between atoms: C_3  and  C_4
REMARK    4  A    between atoms: C_8  and  S_10
REMARK    5  A    between atoms: S_10  and  C_11
REMARK    6  A    between atoms: C_11  and  C_12
REMARK    7  A    between atoms: C_13  and  C_27
REMARK    8  A    between atoms: C_14  and  C_20
REMARK    9  A    between atoms: C_27  and  O_29
REMARK   10  A    between atoms: O_29  and  C_30
REMARK   11  A    between atoms: C_30  and  C_31
REMARK                            x       y       z     vdW  Elec       q    Type
REMARK                         _______ _______ _______ _____ _____    ______ ____
ROOT
ATOM      1  C   UNL     1      -1.370  -5.730   4.627  0.00  0.00    +0.034 C 
ATOM      2  C   UNL     1      -0.181  -6.162   5.101  0.00  0.00    +0.079 C 
ATOM      3  C   UNL     1      -0.179  -7.390   5.989  0.00  0.00    +0.144 C 
ATOM      4  N   UNL     1      -1.483  -8.016   6.263  0.00  0.00    -0.288 N 
ATOM      5  C   UNL     1      -2.586  -7.468   5.717  0.00  0.00    +0.304 C 
ATOM      6  O   UNL     1      -3.668  -7.978   5.938  0.00  0.00    -0.252 OA
ATOM      7  N   UNL     1      -2.531  -6.377   4.943  0.00  0.00    -0.272 N 
ATOM      8  H   UNL     1      -1.547  -8.805   6.824  0.00  0.00    +0.151 HD
ATOM      9  H   UNL     1      -3.361  -6.028   4.583  0.00  0.00    +0.156 HD
ENDROOT
BRANCH   3  10
ATOM     10  C   UNL     1       0.707  -8.426   5.346  0.00  0.00    -0.022 A 
ATOM     11  C   UNL     1       0.227  -9.194   4.302  0.00  0.00    +0.007 A 
ATOM     12  C   UNL     1       1.040 -10.144   3.712  0.00  0.00    +0.020 A 
ATOM     13  C   UNL     1       2.333 -10.326   4.168  0.00  0.00    +0.041 A 
ATOM     14  C   UNL     1       2.812  -9.558   5.213  0.00  0.00    +0.020 A 
ATOM     15  C   UNL     1       2.001  -8.604   5.798  0.00  0.00    +0.007 A 
ATOM     16 CL   UNL     1       3.354 -11.520   3.428  0.00  0.00    -0.084 Cl
ENDBRANCH   3  10
BRANCH   2  17
ATOM     17  C   UNL     1       1.022  -5.490   4.779  0.00  0.00    +0.339 C 
ATOM     18  O   UNL     1       1.534  -4.739   5.588  0.00  0.00    -0.245 OA
BRANCH  17  19
ATOM     19  O   UNL     1       1.601  -5.682   3.576  0.00  0.00    -0.462 OA
BRANCH  19  20
ATOM     20  C   UNL     1       2.813  -4.972   3.318  0.00  0.00    +0.229 C 
ATOM     21  C   UNL     1       3.317  -5.314   1.915  0.00  0.00    +0.048 C 
ENDBRANCH  19  20
ENDBRANCH  17  19
ENDBRANCH   2  17
BRANCH   1  22
ATOM     22  C   UNL     1      -1.417  -4.512   3.741  0.00  0.00    +0.128 C 
BRANCH  22  23
ATOM     23  S   UNL     1      -1.683  -5.026   2.022  0.00  0.00    -0.081 S 
BRANCH  23  28
ATOM     24  C   UNL     1      -1.648  -1.394   0.662  0.00  0.00    +0.152 A 
ATOM     25  N   UNL     1      -1.841  -2.000  -0.478  0.00  0.00    -0.157 NA
ATOM     26  H   UNL     1      -2.018  -4.092  -0.852  0.00  0.00    +0.191 HD
ATOM     27  N   UNL     1      -1.887  -3.377  -0.209  0.00  0.00    -0.254 N 
ATOM     28  C   UNL     1      -1.713  -3.510   1.124  0.00  0.00    +0.185 A 
ATOM     29  N   UNL     1      -1.565  -2.304   1.633  0.00  0.00    -0.206 NA
BRANCH  24  30
ATOM     30  C   UNL     1      -1.533   0.097   0.850  0.00  0.00    +0.078 C 
BRANCH  30  32
ATOM     31  C   UNL     1       0.050   2.030   0.902  0.00  0.00    +0.004 C 
ATOM     32  C   UNL     1      -0.068   0.516   0.711  0.00  0.00    +0.004 C 
ENDBRANCH  30  32
ENDBRANCH  24  30
ENDBRANCH  23  28
ENDBRANCH  22  23
ENDBRANCH   1  22
TORSDOF 9
