REMARK  Name = ZINC67067958
REMARK  4 active torsions:
REMARK  status: ('A' for Active; 'I' for Inactive)
REMARK    1  A    between atoms: C_1  and  C_2
REMARK    2  A    between atoms: C_2  and  C_4
REMARK    3  A    between atoms: C_2  and  N_23
REMARK    4  A    between atoms: C_13  and  C_17
REMARK                            x       y       z     vdW  Elec       q    Type
REMARK                         _______ _______ _______ _____ _____    ______ ____
ROOT
ATOM      1  C   UNL     1      -1.412  -0.526   0.013  0.00  0.00    +0.243 C 
ATOM      2  O   UNL     1      -1.808  -1.223  -0.897  0.00  0.00    -0.273 OA
ATOM      3  N   UNL     1      -2.236  -0.217   1.033  0.00  0.00    -0.263 N 
ATOM      4  C   UNL     1      -3.540  -0.698   1.043  0.00  0.00    +0.165 A 
ATOM      5  N   UNL     1      -4.135  -1.464   0.155  0.00  0.00    -0.229 NA
ATOM      6  C   UNL     1      -5.400  -1.851   0.295  0.00  0.00    +0.054 A 
ATOM      7  C   UNL     1      -6.016  -1.395   1.417  0.00  0.00    +0.015 A 
ATOM      8  S   UNL     1      -4.741  -0.447   2.199  0.00  0.00    -0.057 S 
ATOM      9  C   UNL     1      -7.417  -1.653   1.856  0.00  0.00    +0.052 C 
ATOM     10  C   UNL     1      -7.971  -2.824   1.028  0.00  0.00    +0.024 C 
ATOM     11  C   UNL     1      -7.651  -2.580  -0.449  0.00  0.00    +0.014 C 
ATOM     12  C   UNL     1      -6.148  -2.733  -0.694  0.00  0.00    +0.057 C 
ATOM     13  H   UNL     1      -1.920   0.341   1.761  0.00  0.00    +0.157 HD
ENDROOT
BRANCH  10  14
ATOM     14  C   UNL     1      -9.464  -2.912   1.216  0.00  0.00    -0.044 A 
ATOM     15  C   UNL     1     -10.270  -1.848   0.858  0.00  0.00    +0.004 A 
ATOM     16  C   UNL     1     -11.639  -1.929   1.030  0.00  0.00    +0.000 A 
ATOM     17  C   UNL     1     -12.203  -3.075   1.560  0.00  0.00    +0.000 A 
ATOM     18  C   UNL     1     -11.396  -4.140   1.916  0.00  0.00    +0.000 A 
ATOM     19  C   UNL     1     -10.028  -4.061   1.740  0.00  0.00    +0.004 A 
ENDBRANCH  10  14
BRANCH   1  21
ATOM     20  C   UNL     1      -0.019   1.526   0.010  0.00  0.00    +0.042 C 
ATOM     21  C   UNL     1       0.002  -0.004   0.002  0.00  0.00    +0.192 C 
BRANCH  21  22
ATOM     22  N   UNL     1       0.688  -0.476  -1.203  0.00  0.00    -0.240 N 
ATOM     23  C   UNL     1       0.665   0.095  -2.420  0.00  0.00    +0.219 A 
ATOM     24  N   UNL     1       1.402  -0.629  -3.223  0.00  0.00    -0.223 NA
ATOM     25  C   UNL     1       1.909  -1.666  -2.558  0.00  0.00    +0.245 A 
ATOM     26  N   UNL     1       1.504  -1.613  -1.316  0.00  0.00    -0.158 NA
ENDBRANCH  21  22
ENDBRANCH   1  21
TORSDOF 3
