REMARK  Name = ZINC27345920
REMARK  8 active torsions:
REMARK  status: ('A' for Active; 'I' for Inactive)
REMARK    1  A    between atoms: C_1  and  C_2
REMARK    2  A    between atoms: C_2  and  C_3
REMARK    3  A    between atoms: C_2  and  C_4
REMARK    4  A    between atoms: C_12  and  N_29
REMARK    5  A    between atoms: C_15  and  S_17
REMARK    6  A    between atoms: S_17  and  C_18
REMARK    7  A    between atoms: C_18  and  C_19
REMARK    8  A    between atoms: N_21  and  C_22
REMARK                            x       y       z     vdW  Elec       q    Type
REMARK                         _______ _______ _______ _____ _____    ______ ____
ROOT
ATOM      1  C   UNL     1      -8.572   7.247   0.335  0.00  0.00    +0.126 C 
ATOM      2  C   UNL     1      -7.118   7.152   0.807  0.00  0.00    +0.068 C 
ATOM      3  C   UNL     1      -6.612   5.744   0.501  0.00  0.00    -0.027 A 
ATOM      4  C   UNL     1      -7.517   4.755   0.251  0.00  0.00    +0.021 A 
ATOM      5  S   UNL     1      -6.519   3.324  -0.057  0.00  0.00    -0.071 S 
ATOM      6  C   UNL     1      -4.940   4.094   0.156  0.00  0.00    +0.107 A 
ATOM      7  C   UNL     1      -5.259   5.402   0.460  0.00  0.00    -0.009 A 
ATOM      8  C   UNL     1      -4.107   6.369   0.732  0.00  0.00    +0.045 C 
ATOM      9  N   UNL     1      -2.922   5.813   0.066  0.00  0.00    -0.334 N 
ATOM     10  C   UNL     1      -2.683   4.458   0.052  0.00  0.00    +0.154 C 
ATOM     11  N   UNL     1      -3.689   3.598   0.061  0.00  0.00    -0.219 NA
ATOM     12  C   UNL     1      -9.005   4.891   0.247  0.00  0.00    +0.203 C 
ATOM     13  O   UNL     1      -9.333   6.153   0.852  0.00  0.00    -0.371 OA
ATOM     14  H   UNL     1      -2.206   6.482  -0.432  0.00  0.00    +0.146 HD
ENDROOT
BRANCH   8  15
ATOM     15  N   UNL     1      -3.867   6.471   2.177  0.00  0.00    +0.393 N 
ATOM     16  H   UNL     1      -3.037   7.168   2.363  0.00  0.00    -0.087 HD
ATOM     17  H   UNL     1      -3.610   5.479   2.577  0.00  0.00    -0.087 HD
ATOM     18  H   UNL     1      -4.776   6.842   2.674  0.00  0.00    -0.087 HD
ENDBRANCH   8  15
BRANCH   1  20
ATOM     19  C   UNL     1     -10.624   8.671   0.337  0.00  0.00    +0.010 C 
ATOM     20  C   UNL     1      -9.178   8.563   0.825  0.00  0.00    +0.012 C 
ATOM     21  C   UNL     1      -9.152   8.599   2.354  0.00  0.00    +0.010 C 
ENDBRANCH   1  20
BRANCH  10  22
ATOM     22  S   UNL     1      -1.025   3.863   0.030  0.00  0.00    -0.081 S 
BRANCH  22  23
ATOM     23  C   UNL     1      -1.332   2.079   0.026  0.00  0.00    +0.173 C 
BRANCH  23  24
ATOM     24  C   UNL     1      -0.016   1.344   0.008  0.00  0.00    +0.227 C 
ATOM     25  O   UNL     1       1.026   1.964  -0.007  0.00  0.00    -0.275 OA
ATOM     26  N   UNL     1       0.002  -0.004   0.002  0.00  0.00    -0.285 N 
ATOM     27  H   UNL     1      -0.938  -0.567   0.092  0.00  0.00    +0.155 HD
BRANCH  26  28
ATOM     28  C   UNL     1       1.218  -0.687  -0.119  0.00  0.00    +0.033 A 
ATOM     29  C   UNL     1       1.276  -1.885  -0.818  0.00  0.00    +0.024 A 
ATOM     30  C   UNL     1       2.478  -2.554  -0.941  0.00  0.00    +0.017 A 
ATOM     31  C   UNL     1       3.622  -2.036  -0.358  0.00  0.00    +0.018 A 
ATOM     32  C   UNL     1       3.565  -0.845   0.343  0.00  0.00    +0.017 A 
ATOM     33  C   UNL     1       2.367  -0.170   0.464  0.00  0.00    +0.024 A 
ATOM     34 BR   UNL     1       5.265  -2.958  -0.523  0.00  0.00    -0.050 Br
ENDBRANCH  26  28
ENDBRANCH  23  24
ENDBRANCH  22  23
ENDBRANCH  10  22
TORSDOF 6
