REMARK  Name = ZINC50475720
REMARK  3 active torsions:
REMARK  status: ('A' for Active; 'I' for Inactive)
REMARK    1  A    between atoms: C_1  and  C_2
REMARK    2  A    between atoms: C_5  and  C_8
REMARK    3  A    between atoms: C_19  and  C_21
REMARK                            x       y       z     vdW  Elec       q    Type
REMARK                         _______ _______ _______ _____ _____    ______ ____
ROOT
ATOM      1  C   UNL     1      -0.092  -4.508  -0.120  0.00  0.00    +0.154 C 
ATOM      2  C   UNL     1      -1.311  -4.868   0.747  0.00  0.00    +0.113 C 
ATOM      3  C   UNL     1      -0.993  -5.548   2.069  0.00  0.00    +0.065 C 
ATOM      4  C   UNL     1      -2.076  -5.608   3.058  0.00  0.00    +0.040 A 
ATOM      5  C   UNL     1      -2.028  -6.485   4.141  0.00  0.00    +0.033 A 
ATOM      6  C   UNL     1      -3.066  -6.501   5.051  0.00  0.00    +0.042 A 
ATOM      7  C   UNL     1      -4.148  -5.650   4.888  0.00  0.00    +0.023 A 
ATOM      8  C   UNL     1      -4.207  -4.781   3.816  0.00  0.00    +0.048 A 
ATOM      9  C   UNL     1      -3.178  -4.749   2.887  0.00  0.00    +0.130 A 
ATOM     10  O   UNL     1      -3.243  -3.908   1.828  0.00  0.00    -0.483 OA
ATOM     11  C   UNL     1      -2.046  -3.581   1.119  0.00  0.00    +0.216 C 
ATOM     12 CL   UNL     1      -3.015  -7.590   6.402  0.00  0.00    -0.084 Cl
ATOM     13  N   UNL     1       0.202  -5.979   2.302  0.00  0.00    -0.215 NA
ATOM     14  C   UNL     1       1.264  -5.784   1.481  0.00  0.00    +0.249 A 
ATOM     15  N   UNL     1       1.190  -5.070   0.334  0.00  0.00    -0.221 N 
ATOM     16  N   UNL     1       2.479  -5.043  -0.211  0.00  0.00    -0.156 NA
ATOM     17  C   UNL     1       3.241  -5.745   0.588  0.00  0.00    +0.247 A 
ATOM     18  N   UNL     1       2.521  -6.197   1.597  0.00  0.00    -0.198 NA
ENDROOT
BRANCH   1  23
ATOM     19  C   UNL     1       0.396   1.248  -0.259  0.00  0.00    +0.044 C 
ATOM     20  C   UNL     1       0.269  -0.253  -0.223  0.00  0.00    -0.050 A 
ATOM     21  C   UNL     1      -0.006  -0.952  -1.384  0.00  0.00    +0.004 A 
ATOM     22  C   UNL     1      -0.122  -2.329  -1.351  0.00  0.00    +0.006 A 
ATOM     23  C   UNL     1       0.036  -3.007  -0.157  0.00  0.00    -0.022 A 
ATOM     24  C   UNL     1       0.312  -2.309   1.004  0.00  0.00    +0.006 A 
ATOM     25  C   UNL     1       0.433  -0.932   0.970  0.00  0.00    +0.004 A 
ENDBRANCH   1  23
BRANCH  11  26
ATOM     26  C   UNL     1      -2.396  -2.821  -0.135  0.00  0.00    +0.012 A 
ATOM     27  C   UNL     1      -2.498  -3.489  -1.342  0.00  0.00    +0.009 A 
ATOM     28  C   UNL     1      -2.819  -2.792  -2.492  0.00  0.00    +0.000 A 
ATOM     29  C   UNL     1      -3.038  -1.428  -2.436  0.00  0.00    +0.001 A 
ATOM     30  C   UNL     1      -2.937  -0.760  -1.231  0.00  0.00    +0.020 A 
ATOM     31  C   UNL     1      -2.621  -1.458  -0.078  0.00  0.00    +0.048 A 
ATOM     32 CL   UNL     1      -2.499  -0.621   1.438  0.00  0.00    -0.083 Cl
ENDBRANCH  11  26
TORSDOF 2
