REMARK  Name = ZINC41511360
REMARK  12 active torsions:
REMARK  status: ('A' for Active; 'I' for Inactive)
REMARK    1  A    between atoms: C_1  and  C_2
REMARK    2  A    between atoms: C_4  and  O_34
REMARK    3  A    between atoms: C_5  and  C_25
REMARK    4  A    between atoms: C_11  and  C_12
REMARK    5  A    between atoms: C_14  and  O_22
REMARK    6  A    between atoms: C_15  and  O_20
REMARK    7  A    between atoms: C_17  and  O_18
REMARK    8  A    between atoms: O_18  and  C_19
REMARK    9  A    between atoms: O_20  and  C_21
REMARK   10  A    between atoms: O_22  and  C_23
REMARK   11  A    between atoms: C_25  and  N_26
REMARK   12  A    between atoms: C_31  and  C_33
REMARK                            x       y       z     vdW  Elec       q    Type
REMARK                         _______ _______ _______ _____ _____    ______ ____
ROOT
ATOM      1  C   UNL     1      -1.033   1.489  -0.198  0.00  0.00    +0.045 C 
ATOM      2  C   UNL     1      -0.808   0.012  -0.395  0.00  0.00    -0.033 A 
ATOM      3  C   UNL     1      -0.764  -0.511  -1.656  0.00  0.00    +0.050 A 
ATOM      4  C   UNL     1      -0.556  -1.875  -1.840  0.00  0.00    +0.122 A 
ATOM      5  C   UNL     1      -0.392  -2.717  -0.752  0.00  0.00    +0.020 A 
ATOM      6  C   UNL     1      -0.434  -2.201   0.537  0.00  0.00    +0.145 A 
ATOM      7  C   UNL     1      -0.639  -0.823   0.711  0.00  0.00    +0.071 A 
ATOM      8  C   UNL     1      -0.628  -0.581   2.165  0.00  0.00    +0.232 C 
ATOM      9  O   UNL     1      -0.776   0.481   2.746  0.00  0.00    -0.283 OA
ATOM     10  C   UNL     1      -0.400  -1.904   2.757  0.00  0.00    +0.176 C 
ATOM     11  C   UNL     1      -0.311  -2.185   4.085  0.00  0.00    +0.062 C 
ATOM     12  O   UNL     1      -0.305  -2.796   1.743  0.00  0.00    -0.451 OA
ENDROOT
BRANCH  11  13
ATOM     13  C   UNL     1      -0.226  -3.577   4.535  0.00  0.00    +0.024 A 
ATOM     14  C   UNL     1      -0.574  -4.621   3.665  0.00  0.00    +0.061 A 
ATOM     15  C   UNL     1      -0.492  -5.928   4.094  0.00  0.00    +0.162 A 
ATOM     16  C   UNL     1      -0.065  -6.215   5.392  0.00  0.00    +0.165 A 
ATOM     17  C   UNL     1       0.280  -5.189   6.258  0.00  0.00    +0.095 A 
ATOM     18  C   UNL     1       0.209  -3.872   5.838  0.00  0.00    +0.131 A 
BRANCH  18  19
ATOM     19  O   UNL     1       0.553  -2.868   6.685  0.00  0.00    -0.494 OA
ATOM     20  C   UNL     1       0.987  -3.243   7.994  0.00  0.00    +0.277 C 
ENDBRANCH  18  19
BRANCH  16  21
ATOM     21  O   UNL     1       0.013  -7.505   5.809  0.00  0.00    -0.491 OA
ATOM     22  C   UNL     1       0.457  -7.729   7.148  0.00  0.00    +0.277 C 
ENDBRANCH  16  21
BRANCH  15  23
ATOM     23  O   UNL     1      -0.829  -6.941   3.251  0.00  0.00    -0.491 OA
ATOM     24  C   UNL     1      -1.355  -6.575   1.974  0.00  0.00    +0.277 C 
ENDBRANCH  15  23
ENDBRANCH  11  13
BRANCH   4  25
ATOM     25  O   UNL     1      -0.514  -2.386  -3.098  0.00  0.00    -0.506 OA
ATOM     26  H   UNL     1       0.371  -2.397  -3.488  0.00  0.00    +0.292 HD
ENDBRANCH   4  25
BRANCH   5  27
ATOM     27  C   UNL     1      -0.169  -4.192  -0.967  0.00  0.00    -0.035 C 
BRANCH  27  28
ATOM     28  N   UNL     1       1.254  -4.437  -1.237  0.00  0.00    +0.384 N 
ATOM     29  C   UNL     1       2.051  -4.016  -0.079  0.00  0.00    -0.078 C 
ATOM     30  C   UNL     1       3.539  -4.194  -0.386  0.00  0.00    -0.019 C 
ATOM     31  C   UNL     1       3.819  -5.668  -0.691  0.00  0.00    -0.003 C 
ATOM     32  C   UNL     1       2.928  -6.117  -1.853  0.00  0.00    -0.016 C 
ATOM     33  C   UNL     1       1.463  -5.868  -1.491  0.00  0.00    -0.071 C 
ATOM     34  C   UNL     1       0.569  -6.315  -2.649  0.00  0.00    -0.013 C 
ATOM     35  H   UNL     1       1.538  -3.908  -2.048  0.00  0.00    -0.081 HD
ENDBRANCH  27  28
ENDBRANCH   5  27
TORSDOF 7
