REMARK  Name = ZINC27916981
REMARK  5 active torsions:
REMARK  status: ('A' for Active; 'I' for Inactive)
REMARK    1  A    between atoms: C_6  and  C_7
REMARK    2  A    between atoms: C_7  and  N_8
REMARK    3  A    between atoms: C_14  and  C_16
REMARK    4  A    between atoms: C_16  and  C_17
REMARK    5  A    between atoms: C_17  and  C_18
REMARK                            x       y       z     vdW  Elec       q    Type
REMARK                         _______ _______ _______ _____ _____    ______ ____
ROOT
ATOM      1  N   UNL     1       7.644   2.688   1.561  0.00  0.00    -0.264 N 
ATOM      2  C   UNL     1       7.929   1.958   2.661  0.00  0.00    +0.126 A 
ATOM      3  C   UNL     1       6.809   1.285   3.013  0.00  0.00    +0.077 A 
ATOM      4  C   UNL     1       5.801   1.616   2.093  0.00  0.00    +0.161 A 
ATOM      5  N   UNL     1       6.306   2.455   1.220  0.00  0.00    -0.154 NA
ATOM      6  N   UNL     1       4.486   1.131   2.103  0.00  0.00    -0.268 N 
ATOM      7  C   UNL     1       3.613   1.531   1.157  0.00  0.00    +0.218 C 
ATOM      8  O   UNL     1       3.965   2.311   0.298  0.00  0.00    -0.275 OA
ATOM      9 BR   UNL     1       6.633   0.107   4.482  0.00  0.00    -0.045 Br
ATOM     10  H   UNL     1       4.166   0.424   2.883  0.00  0.00    +0.156 HD
ENDROOT
BRANCH   1  11
ATOM     11  C   UNL     1       8.575   3.565   0.847  0.00  0.00    +0.178 C 
BRANCH  11  17
ATOM     12  C   UNL     1       9.555   2.230  -1.030  0.00  0.00    +0.008 A 
ATOM     13  C   UNL     1       9.602   1.859  -2.360  0.00  0.00    +0.038 A 
ATOM     14  C   UNL     1       8.728   2.430  -3.270  0.00  0.00    +0.123 A 
ATOM     15  C   UNL     1       7.804   3.370  -2.844  0.00  0.00    +0.038 A 
ATOM     16  C   UNL     1       7.755   3.736  -1.512  0.00  0.00    +0.008 A 
ATOM     17  C   UNL     1       8.629   3.165  -0.605  0.00  0.00    -0.026 A 
ATOM     18  F   UNL     1       8.776   2.071  -4.571  0.00  0.00    -0.205 F 
ENDBRANCH  11  17
ENDBRANCH   1  11
BRANCH   7  19
ATOM     19  C   UNL     1       2.199   1.009   1.168  0.00  0.00    +0.096 C 
BRANCH  19  20
ATOM     20  C   UNL     1       1.423   1.615  -0.003  0.00  0.00    +0.013 C 
BRANCH  20  21
ATOM     21  C   UNL     1      -0.013   1.086   0.008  0.00  0.00    -0.011 C 
ATOM     22  C   UNL     1      -0.729   1.579   1.267  0.00  0.00    +0.003 C 
ATOM     23  C   UNL     1      -2.164   1.050   1.278  0.00  0.00    +0.000 C 
ATOM     24  C   UNL     1      -2.904   1.556   0.038  0.00  0.00    +0.000 C 
ATOM     25  C   UNL     1      -2.188   1.063  -1.221  0.00  0.00    +0.000 C 
ATOM     26  C   UNL     1      -0.753   1.593  -1.232  0.00  0.00    +0.003 C 
ENDBRANCH  20  21
ENDBRANCH  19  20
ENDBRANCH   7  19
TORSDOF 5
