REMARK  Name = ZINC35454572
REMARK  6 active torsions:
REMARK  status: ('A' for Active; 'I' for Inactive)
REMARK    1  A    between atoms: C_1  and  C_2
REMARK    2  A    between atoms: C_8  and  C_10
REMARK    3  A    between atoms: C_12  and  S_16
REMARK    4  A    between atoms: N_14  and  C_15
REMARK    5  A    between atoms: S_16  and  N_19
REMARK    6  A    between atoms: C_22  and  C_25
REMARK                            x       y       z     vdW  Elec       q    Type
REMARK                         _______ _______ _______ _____ _____    ______ ____
ROOT
ATOM      1  S   UNL     1       0.117  -6.368   5.995  0.00  0.00    +0.062 S 
ATOM      2  O   UNL     1       0.913  -5.841   7.048  0.00  0.00    -0.153 OA
ATOM      3  O   UNL     1      -1.235  -6.761   6.186  0.00  0.00    -0.153 OA
ENDROOT
BRANCH   1   6
ATOM      4  C   UNL     1      -0.479  -3.952   2.929  0.00  0.00    +0.106 A 
ATOM      5  C   UNL     1      -0.863  -5.012   3.723  0.00  0.00    +0.061 A 
ATOM      6  C   UNL     1       0.113  -5.159   4.713  0.00  0.00    +0.124 A 
ATOM      7  C   UNL     1       1.056  -4.207   4.512  0.00  0.00    +0.114 A 
ATOM      8  N   UNL     1       0.710  -3.471   3.428  0.00  0.00    -0.344 N 
ATOM      9  C   UNL     1       1.474  -2.347   2.879  0.00  0.00    +0.149 C 
BRANCH   4  17
ATOM     10  C   UNL     1      -2.459  -6.711  -2.409  0.00  0.00    +0.007 C 
ATOM     11  C   UNL     1      -2.713  -5.970  -1.095  0.00  0.00    -0.011 C 
ATOM     12  C   UNL     1      -2.573  -4.463  -1.323  0.00  0.00    +0.022 C 
ATOM     13  C   UNL     1      -2.862  -3.723  -0.014  0.00  0.00    +0.108 C 
ATOM     14  N   UNL     1      -1.984  -4.258   1.036  0.00  0.00    -0.296 N 
ATOM     15  C   UNL     1      -1.974  -5.707   1.277  0.00  0.00    +0.108 C 
ATOM     16  C   UNL     1      -1.694  -6.426  -0.047  0.00  0.00    +0.022 C 
ATOM     17  C   UNL     1      -1.203  -3.435   1.763  0.00  0.00    +0.263 C 
ATOM     18  O   UNL     1      -1.098  -2.263   1.452  0.00  0.00    -0.268 OA
ENDBRANCH   4  17
ENDBRANCH   1   6
BRANCH   1  19
ATOM     19  N   UNL     1       0.919  -7.695   5.415  0.00  0.00    -0.176 NA
ATOM     20  C   UNL     1       0.192  -8.760   4.709  0.00  0.00    +0.110 C 
ATOM     21  C   UNL     1       0.507 -10.100   5.380  0.00  0.00    +0.030 C 
ATOM     22  C   UNL     1       2.024 -10.299   5.426  0.00  0.00    +0.078 C 
ATOM     23  C   UNL     1       2.661  -9.182   6.255  0.00  0.00    +0.030 C 
ATOM     24  C   UNL     1       2.371  -7.828   5.590  0.00  0.00    +0.110 C 
BRANCH  22  25
ATOM     25  C   UNL     1       2.337 -11.632   6.055  0.00  0.00    +0.219 C 
ATOM     26  O   UNL     1       1.513 -12.180   6.757  0.00  0.00    -0.275 OA
ATOM     27  N   UNL     1       3.532 -12.216   5.837  0.00  0.00    -0.301 N 
ATOM     28  C   UNL     1       3.754 -13.550   6.348  0.00  0.00    +0.108 C 
ATOM     29  C   UNL     1       4.319 -13.468   7.787  0.00  0.00    +0.019 C 
ATOM     30  C   UNL     1       5.706 -12.979   7.765  0.00  0.00    +0.002 C 
ATOM     31  C   UNL     1       5.865 -11.564   7.216  0.00  0.00    +0.002 C 
ATOM     32  C   UNL     1       5.959 -11.619   5.711  0.00  0.00    +0.019 C 
ATOM     33  C   UNL     1       4.557 -11.469   5.083  0.00  0.00    +0.108 C 
ENDBRANCH  22  25
ENDBRANCH   1  19
TORSDOF 4
