REMARK  Name = ZINC29251166
REMARK  11 active torsions:
REMARK  status: ('A' for Active; 'I' for Inactive)
REMARK    1  A    between atoms: C_1  and  C_2
REMARK    2  A    between atoms: C_2  and  C_3
REMARK    3  A    between atoms: C_2  and  C_4
REMARK    4  A    between atoms: C_2  and  N_5
REMARK    5  A    between atoms: C_6  and  C_8
REMARK    6  A    between atoms: C_8  and  N_9
REMARK    7  A    between atoms: N_9  and  C_10
REMARK    8  A    between atoms: N_9  and  C_11
REMARK    9  A    between atoms: C_11  and  N_12
REMARK   10  A    between atoms: C_17  and  C_19
REMARK   11  A    between atoms: C_20  and  C_21
REMARK                            x       y       z     vdW  Elec       q    Type
REMARK                         _______ _______ _______ _____ _____    ______ ____
ROOT
ATOM      1  N   UNL     1      -0.018   1.461   0.010  0.00  0.00    -0.257 N 
ATOM      2  C   UNL     1       1.060   2.272   0.004  0.00  0.00    +0.174 A 
ATOM      3  S   UNL     1       2.698   1.775  -0.014  0.00  0.00    -0.012 S 
ATOM      4  N   UNL     1       0.615   3.545   0.015  0.00  0.00    -0.318 N 
ATOM      5  H   UNL     1       1.333   4.378   0.012  0.00  0.00    +0.169 HD
ATOM      6  C   UNL     1      -0.768   3.521   0.028  0.00  0.00    +0.153 A 
ATOM      7  N   UNL     1      -1.160   2.273   0.019  0.00  0.00    -0.153 NA
ENDROOT
BRANCH   6   8
ATOM      8  C   UNL     1      -1.647   4.696   0.041  0.00  0.00    +0.048 C 
ATOM      9  C   UNL     1      -2.983   4.537   0.053  0.00  0.00    +0.011 C 
BRANCH   9  10
ATOM     10  C   UNL     1      -3.865   5.717   0.066  0.00  0.00    -0.025 A 
ATOM     11  C   UNL     1      -3.317   7.003   0.072  0.00  0.00    +0.008 A 
ATOM     12  C   UNL     1      -4.149   8.103   0.079  0.00  0.00    +0.001 A 
ATOM     13  C   UNL     1      -5.523   7.936   0.091  0.00  0.00    +0.000 A 
ATOM     14  C   UNL     1      -6.072   6.665   0.091  0.00  0.00    +0.001 A 
ATOM     15  C   UNL     1      -5.253   5.556   0.078  0.00  0.00    +0.008 A 
ENDBRANCH   9  10
ENDBRANCH   6   8
BRANCH   1  16
ATOM     16  C   UNL     1       0.002  -0.004   0.002  0.00  0.00    +0.072 C 
BRANCH  16  17
ATOM     17  N   UNL     1       0.022  -0.501   1.384  0.00  0.00    +0.397 N 
ATOM     18  C   UNL     1      -1.229  -0.172   2.080  0.00  0.00    -0.093 C 
ATOM     19  H   UNL     1       0.845   0.003   1.913  0.00  0.00    -0.079 HD
BRANCH  17  20
ATOM     20  C   UNL     1       0.280  -1.947   1.420  0.00  0.00    +0.021 C 
BRANCH  20  22
ATOM     21  N   UNL     1       0.799  -3.669   3.118  0.00  0.00    -0.312 N 
ATOM     22  C   UNL     1       0.537  -2.376   2.842  0.00  0.00    +0.197 C 
ATOM     23  O   UNL     1       0.507  -1.558   3.737  0.00  0.00    -0.278 OA
ATOM     24  H   UNL     1       0.826  -4.410   2.307  0.00  0.00    +0.149 HD
BRANCH  21  26
ATOM     25  C   UNL     1      -0.177  -3.765   5.359  0.00  0.00    +0.031 C 
ATOM     26  C   UNL     1       1.048  -4.086   4.500  0.00  0.00    +0.026 C 
ATOM     27  C   UNL     1       1.317  -5.592   4.538  0.00  0.00    +0.031 C 
ATOM     28  C   UNL     1       2.265  -3.337   5.048  0.00  0.00    +0.031 C 
ENDBRANCH  21  26
ENDBRANCH  20  22
ENDBRANCH  17  20
ENDBRANCH  16  17
ENDBRANCH   1  16
TORSDOF 7
