REMARK  Name = ZINC41004212
REMARK  10 active torsions:
REMARK  status: ('A' for Active; 'I' for Inactive)
REMARK    1  A    between atoms: C_1  and  C_2
REMARK    2  A    between atoms: C_2  and  O_3
REMARK    3  A    between atoms: O_3  and  C_4
REMARK    4  A    between atoms: C_6  and  C_19
REMARK    5  A    between atoms: C_9  and  O_10
REMARK    6  A    between atoms: O_10  and  C_11
REMARK    7  A    between atoms: C_11  and  C_12
REMARK    8  A    between atoms: C_32  and  S_34
REMARK    9  A    between atoms: S_34  and  C_35
REMARK   10  A    between atoms: C_35  and  C_36
REMARK                            x       y       z     vdW  Elec       q    Type
REMARK                         _______ _______ _______ _____ _____    ______ ____
ROOT
ATOM      1  C   UNL     1      -1.498  -1.849   0.006  0.00  0.00    +0.162 A 
ATOM      2  C   UNL     1      -0.389  -2.680  -0.003  0.00  0.00    +0.055 A 
ATOM      3  C   UNL     1      -0.553  -4.052  -0.008  0.00  0.00    -0.015 A 
ATOM      4  C   UNL     1      -1.823  -4.600  -0.005  0.00  0.00    +0.010 A 
ATOM      5  C   UNL     1      -2.934  -3.777   0.004  0.00  0.00    +0.050 A 
ATOM      6  C   UNL     1      -2.776  -2.400   0.016  0.00  0.00    +0.162 A 
ENDROOT
BRANCH   3   7
ATOM      7  C   UNL     1       0.654  -4.954  -0.018  0.00  0.00    +0.176 C 
ATOM      8  C   UNL     1       0.638  -5.828   1.217  0.00  0.00    +0.041 C 
ATOM      9  C   UNL     1       0.326  -7.140   1.163  0.00  0.00    +0.020 C 
ATOM     10  C   UNL     1       0.302  -7.984   2.416  0.00  0.00    +0.052 C 
ATOM     11  C   UNL     1       1.335  -7.455   3.412  0.00  0.00    +0.014 C 
ATOM     12  C   UNL     1       1.000  -5.992   3.724  0.00  0.00    +0.080 C 
ATOM     13  C   UNL     1       0.967  -5.214   2.439  0.00  0.00    +0.163 C 
ATOM     14  O   UNL     1       1.230  -4.027   2.456  0.00  0.00    -0.292 OA
ATOM     15  N   UNL     1       0.024  -7.765  -0.023  0.00  0.00    -0.287 N 
ATOM     16  C   UNL     1       0.326  -7.105  -1.203  0.00  0.00    +0.219 A 
ATOM     17  N   UNL     1       0.627  -5.785  -1.215  0.00  0.00    -0.220 N 
ATOM     18  N   UNL     1       0.881  -5.450  -2.544  0.00  0.00    -0.141 NA
ATOM     19  C   UNL     1       0.719  -6.549  -3.249  0.00  0.00    +0.210 A 
ATOM     20  N   UNL     1       0.383  -7.547  -2.429  0.00  0.00    -0.187 NA
ATOM     21  H   UNL     1      -0.388  -8.643  -0.034  0.00  0.00    +0.155 HD
BRANCH  19  22
ATOM     22  S   UNL     1       0.917  -6.683  -4.995  0.00  0.00    -0.085 S 
BRANCH  22  23
ATOM     23  C   UNL     1       0.560  -8.427  -5.345  0.00  0.00    +0.074 C 
ATOM     24  C   UNL     1       0.697  -8.684  -6.847  0.00  0.00    +0.016 C 
ENDBRANCH  22  23
ENDBRANCH  19  22
ENDBRANCH   3   7
BRANCH   1  25
ATOM     25  O   UNL     1      -1.339  -0.499   0.012  0.00  0.00    -0.489 OA
BRANCH  25  27
ATOM     26  C   UNL     1      -0.019   1.526   0.010  0.00  0.00    +0.048 C 
ATOM     27  C   UNL     1       0.002  -0.004   0.002  0.00  0.00    +0.226 C 
ENDBRANCH  25  27
ENDBRANCH   1  25
BRANCH   6  28
ATOM     28  O   UNL     1      -3.868  -1.589   0.030  0.00  0.00    -0.484 OA
BRANCH  28  29
ATOM     29  C   UNL     1      -5.148  -2.225   0.039  0.00  0.00    +0.266 C 
BRANCH  29  30
ATOM     30  C   UNL     1      -6.229  -1.175   0.055  0.00  0.00    +0.008 A 
ATOM     31  C   UNL     1      -5.892   0.165   0.053  0.00  0.00    +0.008 A 
ATOM     32  C   UNL     1      -6.884   1.128   0.068  0.00  0.00    +0.000 A 
ATOM     33  C   UNL     1      -8.214   0.751   0.084  0.00  0.00    +0.001 A 
ATOM     34  C   UNL     1      -8.552  -0.589   0.086  0.00  0.00    +0.020 A 
ATOM     35  C   UNL     1      -7.560  -1.553   0.066  0.00  0.00    +0.047 A 
ATOM     36 CL   UNL     1      -7.984  -3.237   0.061  0.00  0.00    -0.083 Cl
ENDBRANCH  29  30
ENDBRANCH  28  29
ENDBRANCH   6  28
TORSDOF 8
