REMARK  Name = ZINC00933460
REMARK  5 active torsions:
REMARK  status: ('A' for Active; 'I' for Inactive)
REMARK    1  A    between atoms: C_7  and  C_13
REMARK    2  A    between atoms: C_13  and  S_14
REMARK    3  A    between atoms: S_14  and  C_15
REMARK    4  A    between atoms: C_17  and  C_26
REMARK    5  A    between atoms: C_18  and  C_21
REMARK                            x       y       z     vdW  Elec       q    Type
REMARK                         _______ _______ _______ _____ _____    ______ ____
ROOT
ATOM      1  C   UNL     1      -3.390   3.732   0.047  0.00  0.00    +0.210 A 
ATOM      2  N   UNL     1      -3.454   2.596  -0.636  0.00  0.00    -0.215 NA
ATOM      3  C   UNL     1      -2.388   1.795  -0.675  0.00  0.00    +0.139 A 
ATOM      4  C   UNL     1      -1.221   2.192   0.020  0.00  0.00    +0.157 A 
ATOM      5  N   UNL     1      -1.232   3.343   0.687  0.00  0.00    -0.141 NA
ATOM      6  N   UNL     1      -2.284   4.085   0.691  0.00  0.00    -0.122 NA
ENDROOT
BRANCH   4   7
ATOM      7  C   UNL     1      -0.016   1.343   0.009  0.00  0.00    +0.157 A 
ATOM      8  C   UNL     1       1.272   1.784  -0.001  0.00  0.00    +0.051 A 
ATOM      9  C   UNL     1       2.092   0.639  -0.015  0.00  0.00    +0.042 A 
ATOM     10  C   UNL     1       1.275  -0.433  -0.012  0.00  0.00    +0.196 A 
ATOM     11  O   UNL     1       0.002  -0.004   0.002  0.00  0.00    -0.461 OA
ENDBRANCH   4   7
BRANCH   3  12
ATOM     12  C   UNL     1      -2.425   0.526  -1.423  0.00  0.00    +0.155 A 
ATOM     13  C   UNL     1      -3.504  -0.296  -1.550  0.00  0.00    +0.051 A 
ATOM     14  C   UNL     1      -3.093  -1.383  -2.343  0.00  0.00    +0.042 A 
ATOM     15  C   UNL     1      -1.796  -1.179  -2.653  0.00  0.00    +0.196 A 
ATOM     16  O   UNL     1      -1.397  -0.026  -2.096  0.00  0.00    -0.461 OA
ENDBRANCH   3  12
BRANCH   1  17
ATOM     17  S   UNL     1      -4.798   4.791   0.099  0.00  0.00    -0.080 S 
BRANCH  17  18
ATOM     18  C   UNL     1      -4.147   6.128   1.131  0.00  0.00    +0.113 C 
BRANCH  18  25
ATOM     19  C   UNL     1      -5.231   8.912  -1.996  0.00  0.00    +0.001 A 
ATOM     20  C   UNL     1      -6.215   9.870  -1.790  0.00  0.00    +0.002 A 
ATOM     21  C   UNL     1      -6.870   9.955  -0.580  0.00  0.00    +0.026 A 
ATOM     22  C   UNL     1      -6.543   9.073   0.445  0.00  0.00    +0.049 A 
ATOM     23  C   UNL     1      -5.545   8.104   0.232  0.00  0.00    +0.003 A 
ATOM     24  C   UNL     1      -4.894   8.036  -1.004  0.00  0.00    +0.010 A 
ATOM     25  C   UNL     1      -5.209   7.181   1.317  0.00  0.00    -0.023 A 
ATOM     26  C   UNL     1      -5.878   7.290   2.491  0.00  0.00    +0.075 A 
ATOM     27  C   UNL     1      -6.867   8.283   2.656  0.00  0.00    +0.249 A 
ATOM     28  O   UNL     1      -7.454   8.367   3.721  0.00  0.00    -0.268 OA
ATOM     29  N   UNL     1      -7.183   9.136   1.665  0.00  0.00    -0.322 N 
ATOM     30  H   UNL     1      -7.892   9.825   1.815  0.00  0.00    +0.169 HD
ENDBRANCH  18  25
ENDBRANCH  17  18
ENDBRANCH   1  17
TORSDOF 5
