REMARK  Name = ZINC03326395
REMARK  6 active torsions:
REMARK  status: ('A' for Active; 'I' for Inactive)
REMARK    1  A    between atoms: C_8  and  C_10
REMARK    2  A    between atoms: C_13  and  C_15
REMARK    3  A    between atoms: N_17  and  C_18
REMARK    4  A    between atoms: C_18  and  C_19
REMARK    5  A    between atoms: C_19  and  C_21
REMARK    6  A    between atoms: C_19  and  N_50
REMARK                            x       y       z     vdW  Elec       q    Type
REMARK                         _______ _______ _______ _____ _____    ______ ____
ROOT
ATOM      1  C   UNL     1      -1.962   3.401  -4.590  0.00  0.00    +0.251 C 
ATOM      2  O   UNL     1      -2.761   2.795  -5.278  0.00  0.00    -0.270 OA
ATOM      3  N   UNL     1      -1.240   2.747  -3.659  0.00  0.00    -0.312 N 
ATOM      4  H   UNL     1      -0.603   3.231  -3.111  0.00  0.00    +0.149 HD
ENDROOT
BRANCH   1   8
ATOM      5  C   UNL     1      -1.131   7.465  -4.762  0.00  0.00    +0.045 A 
ATOM      6  C   UNL     1      -2.091   7.021  -5.661  0.00  0.00    +0.019 A 
ATOM      7  C   UNL     1      -2.417   5.695  -5.671  0.00  0.00    +0.021 A 
ATOM      8  C   UNL     1      -1.784   4.846  -4.775  0.00  0.00    +0.074 A 
ATOM      9  S   UNL     1      -0.690   5.961  -3.909  0.00  0.00    -0.082 S 
BRANCH   5  17
ATOM     10  C   UNL     1       1.923  12.437  -2.825  0.00  0.00    +0.002 A 
ATOM     11  C   UNL     1       1.281  13.281  -3.722  0.00  0.00    +0.001 A 
ATOM     12  C   UNL     1       0.336  12.759  -4.585  0.00  0.00    +0.017 A 
ATOM     13  C   UNL     1       0.048  11.417  -4.540  0.00  0.00    +0.040 A 
ATOM     14  C   UNL     1       0.685  10.531  -3.637  0.00  0.00    +0.079 A 
ATOM     15  C   UNL     1       1.646  11.107  -2.772  0.00  0.00    +0.029 A 
ATOM     16  N   UNL     1       0.301   9.248  -3.711  0.00  0.00    -0.239 NA
ATOM     17  C   UNL     1      -0.610   8.828  -4.564  0.00  0.00    +0.116 A 
ATOM     18  S   UNL     1      -1.046  10.332  -5.425  0.00  0.00    -0.067 S 
ENDBRANCH   5  17
ENDBRANCH   1   8
BRANCH   3  19
ATOM     19  C   UNL     1      -1.418   1.304  -3.475  0.00  0.00    +0.097 C 
BRANCH  19  20
ATOM     20  C   UNL     1      -0.487   0.813  -2.365  0.00  0.00    +0.016 C 
BRANCH  20  25
ATOM     21  C   UNL     1      -0.061   0.968   0.028  0.00  0.00    -0.078 C 
ATOM     22  C   UNL     1      -0.808   1.536   1.253  0.00  0.00    -0.020 C 
ATOM     23  C   UNL     1      -2.198   1.949   0.716  0.00  0.00    -0.020 C 
ATOM     24  C   UNL     1      -2.169   1.594  -0.786  0.00  0.00    -0.078 C 
ATOM     25  N   UNL     1      -0.745   1.591  -1.112  0.00  0.00    +0.387 N 
ATOM     26  H   UNL     1      -0.411   2.554  -1.238  0.00  0.00    -0.081 HD
ENDBRANCH  20  25
BRANCH  20  27
ATOM     27  C   UNL     1      -0.757  -0.644  -2.091  0.00  0.00    +0.093 A 
ATOM     28  C   UNL     1       0.039  -1.671  -2.440  0.00  0.00    +0.043 A 
ATOM     29  C   UNL     1      -0.594  -2.851  -1.988  0.00  0.00    +0.041 A 
ATOM     30  C   UNL     1      -1.742  -2.476  -1.396  0.00  0.00    +0.195 A 
ATOM     31  O   UNL     1      -1.836  -1.138  -1.462  0.00  0.00    -0.469 OA
ENDBRANCH  20  27
ENDBRANCH  19  20
ENDBRANCH   3  19
TORSDOF 6
