REMARK  Name = ZINC21253328
REMARK  7 active torsions:
REMARK  status: ('A' for Active; 'I' for Inactive)
REMARK    1  A    between atoms: C_1  and  C_2
REMARK    2  A    between atoms: C_2  and  C_3
REMARK    3  A    between atoms: C_6  and  C_9
REMARK    4  A    between atoms: C_14  and  C_24
REMARK    5  A    between atoms: C_28  and  O_30
REMARK    6  A    between atoms: O_30  and  C_31
REMARK    7  A    between atoms: C_31  and  C_32
REMARK                            x       y       z     vdW  Elec       q    Type
REMARK                         _______ _______ _______ _____ _____    ______ ____
ROOT
ATOM      1  C   UNL     1      -1.210   2.319  -0.570  0.00  0.00    +0.032 C 
ATOM      2  C   UNL     1      -1.212   3.093   0.748  0.00  0.00    +0.059 C 
ATOM      3  C   UNL     1      -2.560   3.764   0.952  0.00  0.00    +0.017 C 
ATOM      4  C   UNL     1      -3.271   4.196  -0.103  0.00  0.00    +0.036 C 
ATOM      5  C   UNL     1      -4.621   4.872  -0.044  0.00  0.00    +0.136 C 
ATOM      6  N   UNL     1      -5.028   5.280   1.283  0.00  0.00    -0.331 N 
ATOM      7  C   UNL     1      -5.263   4.339   2.282  0.00  0.00    +0.049 A 
ATOM      8  C   UNL     1      -6.536   4.129   2.789  0.00  0.00    +0.025 A 
ATOM      9  C   UNL     1      -6.740   3.129   3.723  0.00  0.00    +0.002 A 
ATOM     10  C   UNL     1      -5.686   2.342   4.151  0.00  0.00    +0.002 A 
ATOM     11  C   UNL     1      -4.409   2.564   3.663  0.00  0.00    +0.025 A 
ATOM     12  C   UNL     1      -4.201   3.576   2.744  0.00  0.00    +0.052 A 
ATOM     13  N   UNL     1      -2.938   3.888   2.251  0.00  0.00    -0.316 N 
ATOM     14  C   UNL     1      -2.778   4.017  -1.417  0.00  0.00    +0.163 C 
ATOM     15  O   UNL     1      -3.430   4.443  -2.350  0.00  0.00    -0.292 OA
ATOM     16  C   UNL     1      -1.480   3.321  -1.699  0.00  0.00    +0.088 C 
ATOM     17  H   UNL     1      -5.155   6.348   1.515  0.00  0.00    +0.147 HD
ATOM     18  H   UNL     1      -2.221   4.257   2.999  0.00  0.00    +0.152 HD
ENDROOT
BRANCH   1  22
ATOM     19  C   UNL     1       2.595   0.471  -1.169  0.00  0.00    -0.048 A 
ATOM     20  C   UNL     1       1.450  -0.302  -1.127  0.00  0.00    +0.004 A 
ATOM     21  C   UNL     1       0.219   0.296  -0.931  0.00  0.00    +0.004 A 
ATOM     22  C   UNL     1       0.133   1.667  -0.777  0.00  0.00    -0.043 A 
ATOM     23  C   UNL     1       1.278   2.440  -0.819  0.00  0.00    +0.004 A 
ATOM     24  C   UNL     1       2.509   1.843  -1.016  0.00  0.00    +0.004 A 
BRANCH  19  26
ATOM     25  C   UNL     1       4.236  -0.251  -2.882  0.00  0.00    +0.009 C 
ATOM     26  C   UNL     1       3.937  -0.180  -1.383  0.00  0.00    +0.032 C 
ENDBRANCH  19  26
ENDBRANCH   1  22
BRANCH   5  27
ATOM     27  C   UNL     1      -5.656   3.921  -0.590  0.00  0.00    -0.019 A 
ATOM     28  C   UNL     1      -6.354   4.246  -1.739  0.00  0.00    +0.006 A 
ATOM     29  C   UNL     1      -7.304   3.377  -2.242  0.00  0.00    +0.004 A 
ATOM     30  C   UNL     1      -7.557   2.180  -1.598  0.00  0.00    +0.045 A 
ATOM     31  C   UNL     1      -6.858   1.852  -0.446  0.00  0.00    +0.121 A 
ATOM     32  C   UNL     1      -5.902   2.725   0.054  0.00  0.00    +0.051 A 
BRANCH  31  33
ATOM     33  O   UNL     1      -7.104   0.676   0.188  0.00  0.00    -0.492 OA
BRANCH  33  34
ATOM     34  C   UNL     1      -8.098  -0.175  -0.387  0.00  0.00    +0.225 C 
ATOM     35  C   UNL     1      -8.235  -1.442   0.459  0.00  0.00    +0.048 C 
ENDBRANCH  33  34
ENDBRANCH  31  33
ENDBRANCH   5  27
TORSDOF 5
