REMARK  Name = ZINC14546308
REMARK  8 active torsions:
REMARK  status: ('A' for Active; 'I' for Inactive)
REMARK    1  A    between atoms: C_1  and  O_2
REMARK    2  A    between atoms: O_2  and  C_3
REMARK    3  A    between atoms: C_8  and  C_9
REMARK    4  A    between atoms: C_22  and  O_25
REMARK    5  A    between atoms: O_25  and  C_26
REMARK    6  A    between atoms: C_26  and  C_27
REMARK    7  A    between atoms: C_27  and  O_28
REMARK    8  A    between atoms: O_28  and  C_29
REMARK                            x       y       z     vdW  Elec       q    Type
REMARK                         _______ _______ _______ _____ _____    ______ ____
ROOT
ATOM      1  C   UNL     1      -2.846   2.315  -4.575  0.00  0.00    +0.109 C 
ATOM      2  C   UNL     1      -2.014   2.690  -5.804  0.00  0.00    +0.029 C 
ATOM      3  C   UNL     1      -2.850   2.343  -7.068  0.00  0.00    +0.033 C 
ATOM      4  C   UNL     1      -2.609   0.858  -7.257  0.00  0.00    -0.030 C 
ATOM      5  C   UNL     1      -1.510   0.490  -6.648  0.00  0.00    -0.023 C 
ATOM      6  C   UNL     1      -0.865   1.671  -5.960  0.00  0.00    +0.049 C 
ATOM      7  C   UNL     1      -0.303   1.267  -4.629  0.00  0.00    -0.016 A 
ATOM      8  C   UNL     1       0.841   0.476  -4.618  0.00  0.00    +0.006 A 
ATOM      9  C   UNL     1       1.405   0.068  -3.428  0.00  0.00    +0.004 A 
ATOM     10  C   UNL     1       0.836   0.449  -2.225  0.00  0.00    +0.047 A 
ATOM     11  C   UNL     1      -0.303   1.232  -2.224  0.00  0.00    +0.142 A 
ATOM     12  C   UNL     1      -0.876   1.646  -3.430  0.00  0.00    +0.074 A 
ATOM     13  N   UNL     1      -2.023   2.443  -3.372  0.00  0.00    -0.334 N 
ATOM     14  H   UNL     1      -2.561   2.242  -2.543  0.00  0.00    +0.147 HD
ENDROOT
BRANCH   1  20
ATOM     15  C   UNL     1      -4.519   0.619  -5.357  0.00  0.00    +0.125 A 
ATOM     16  C   UNL     1      -4.954  -0.693  -5.482  0.00  0.00    +0.046 A 
ATOM     17  C   UNL     1      -4.203  -1.722  -4.949  0.00  0.00    +0.004 A 
ATOM     18  C   UNL     1      -3.015  -1.447  -4.297  0.00  0.00    +0.001 A 
ATOM     19  C   UNL     1      -2.577  -0.141  -4.176  0.00  0.00    +0.009 A 
ATOM     20  C   UNL     1      -3.325   0.892  -4.707  0.00  0.00    +0.015 A 
BRANCH  15  22
ATOM     21  C   UNL     1      -6.478   1.278  -6.532  0.00  0.00    +0.277 C 
ATOM     22  O   UNL     1      -5.259   1.634  -5.876  0.00  0.00    -0.495 OA
ENDBRANCH  15  22
ENDBRANCH   1  20
BRANCH  11  23
ATOM     23  O   UNL     1      -0.867   1.604  -1.043  0.00  0.00    -0.487 OA
BRANCH  23  24
ATOM     24  C   UNL     1      -0.232   1.146   0.152  0.00  0.00    +0.270 C 
BRANCH  24  25
ATOM     25  C   UNL     1      -1.003   1.662   1.369  0.00  0.00    +0.270 C 
BRANCH  25  26
ATOM     26  O   UNL     1      -2.309   1.081   1.387  0.00  0.00    -0.489 OA
BRANCH  26  27
ATOM     27  C   UNL     1      -3.128   1.437   2.411  0.00  0.00    +0.121 A 
ATOM     28  C   UNL     1      -2.684   2.323   3.381  0.00  0.00    +0.045 A 
ATOM     29  C   UNL     1      -3.521   2.688   4.418  0.00  0.00    +0.004 A 
ATOM     30  C   UNL     1      -4.797   2.162   4.495  0.00  0.00    +0.000 A 
ATOM     31  C   UNL     1      -5.241   1.273   3.533  0.00  0.00    +0.004 A 
ATOM     32  C   UNL     1      -4.409   0.910   2.491  0.00  0.00    +0.045 A 
ENDBRANCH  26  27
ENDBRANCH  25  26
ENDBRANCH  24  25
ENDBRANCH  23  24
ENDBRANCH  11  23
TORSDOF 7
