REMARK  Name = ZINC24747715
REMARK  14 active torsions:
REMARK  status: ('A' for Active; 'I' for Inactive)
REMARK    1  A    between atoms: C_1  and  C_2
REMARK    2  A    between atoms: C_2  and  C_3
REMARK    3  A    between atoms: C_4  and  C_26
REMARK    4  A    between atoms: C_5  and  N_25
REMARK    5  A    between atoms: C_7  and  S_9
REMARK    6  A    between atoms: S_9  and  C_10
REMARK    7  A    between atoms: C_10  and  C_11
REMARK    8  A    between atoms: C_11  and  C_13
REMARK    9  A    between atoms: C_11  and  O_24
REMARK   10  A    between atoms: C_13  and  O_14
REMARK   11  A    between atoms: O_14  and  C_15
REMARK   12  A    between atoms: C_15  and  C_16
REMARK   13  A    between atoms: C_19  and  O_22
REMARK   14  A    between atoms: O_22  and  C_23
REMARK                            x       y       z     vdW  Elec       q    Type
REMARK                         _______ _______ _______ _____ _____    ______ ____
ROOT
ATOM      1  C   UNL     1      -3.385   1.084  -1.058  0.00  0.00    +0.055 A 
ATOM      2  C   UNL     1      -2.505   1.003   0.019  0.00  0.00    +0.043 A 
ATOM      3  C   UNL     1      -2.861   0.190   1.111  0.00  0.00    +0.129 A 
ATOM      4  N   UNL     1      -4.013  -0.469   1.072  0.00  0.00    -0.207 NA
ATOM      5  C   UNL     1      -4.817  -0.365   0.023  0.00  0.00    +0.190 A 
ATOM      6  N   UNL     1      -4.512   0.392  -1.022  0.00  0.00    -0.226 NA
ENDROOT
BRANCH   2   7
ATOM      7  C   UNL     1      -1.228   1.758   0.017  0.00  0.00    -0.013 A 
ATOM      8  C   UNL     1      -0.013   1.076   0.008  0.00  0.00    +0.010 A 
ATOM      9  C   UNL     1       1.172   1.783   0.000  0.00  0.00    +0.020 A 
ATOM     10  C   UNL     1       1.155   3.167   0.008  0.00  0.00    +0.041 A 
ATOM     11  C   UNL     1      -0.050   3.849   0.022  0.00  0.00    +0.020 A 
ATOM     12  C   UNL     1      -1.240   3.151   0.030  0.00  0.00    +0.010 A 
ATOM     13 CL   UNL     1       2.649   4.051  -0.002  0.00  0.00    -0.084 Cl
ENDBRANCH   2   7
BRANCH   3  14
ATOM     14  N   UNL     1      -2.025   0.079   2.208  0.00  0.00    -0.343 N 
ATOM     15  H   UNL     1      -2.312  -0.559   3.057  0.00  0.00    +0.144 HD
ATOM     16  H   UNL     1      -1.072   0.628   2.231  0.00  0.00    +0.144 HD
ENDBRANCH   3  14
BRANCH   1  18
ATOM     17  C   UNL     1      -2.283   1.117  -3.278  0.00  0.00    +0.010 C 
ATOM     18  C   UNL     1      -3.055   1.945  -2.250  0.00  0.00    +0.053 C 
ENDBRANCH   1  18
BRANCH   5  19
ATOM     19  S   UNL     1      -6.336  -1.258   0.018  0.00  0.00    -0.083 S 
BRANCH  19  20
ATOM     20  C   UNL     1      -6.224  -2.078   1.627  0.00  0.00    +0.111 C 
BRANCH  20  21
ATOM     21  C   UNL     1      -7.471  -2.937   1.851  0.00  0.00    +0.150 C 
BRANCH  21  22
ATOM     22  O   UNL     1      -7.500  -3.993   0.889  0.00  0.00    -0.389 OA
ATOM     23  H   UNL     1      -8.328  -4.717   0.892  0.00  0.00    +0.210 HD
ENDBRANCH  21  22
BRANCH  21  24
ATOM     24  C   UNL     1      -7.435  -3.531   3.260  0.00  0.00    +0.192 C 
BRANCH  24  25
ATOM     25  O   UNL     1      -8.652  -4.237   3.510  0.00  0.00    -0.373 OA
BRANCH  25  26
ATOM     26  C   UNL     1      -8.722  -4.834   4.806  0.00  0.00    +0.195 C 
BRANCH  26  27
ATOM     27  C   UNL     1     -10.041  -5.547   4.961  0.00  0.00    -0.022 A 
ATOM     28  C   UNL     1     -11.134  -4.873   5.472  0.00  0.00    +0.009 A 
ATOM     29  C   UNL     1     -12.346  -5.523   5.609  0.00  0.00    +0.046 A 
ATOM     30  C   UNL     1     -12.461  -6.856   5.244  0.00  0.00    +0.120 A 
ATOM     31  C   UNL     1     -11.361  -7.532   4.737  0.00  0.00    +0.046 A 
ATOM     32  C   UNL     1     -10.153  -6.876   4.596  0.00  0.00    +0.009 A 
BRANCH  30  33
ATOM     33  O   UNL     1     -13.650  -7.499   5.383  0.00  0.00    -0.495 OA
ATOM     34  C   UNL     1     -14.740  -6.741   5.912  0.00  0.00    +0.277 C 
ENDBRANCH  30  33
ENDBRANCH  26  27
ENDBRANCH  25  26
ENDBRANCH  24  25
ENDBRANCH  21  24
ENDBRANCH  20  21
ENDBRANCH  19  20
ENDBRANCH   5  19
TORSDOF 12
