REMARK  Name = ZINC15900179
REMARK  8 active torsions:
REMARK  status: ('A' for Active; 'I' for Inactive)
REMARK    1  A    between atoms: C_6  and  S_7
REMARK    2  A    between atoms: S_7  and  C_8
REMARK    3  A    between atoms: C_8  and  C_9
REMARK    4  A    between atoms: N_11  and  N_12
REMARK    5  A    between atoms: N_12  and  C_13
REMARK    6  A    between atoms: C_13  and  N_15
REMARK    7  A    between atoms: N_15  and  C_16
REMARK    8  A    between atoms: C_16  and  C_17
REMARK                            x       y       z     vdW  Elec       q    Type
REMARK                         _______ _______ _______ _____ _____    ______ ____
ROOT
ATOM      1  C   UNL     1       7.147   4.376  -0.571  0.00  0.00    +0.239 C 
ATOM      2  O   UNL     1       7.544   5.439  -0.999  0.00  0.00    -0.273 OA
ATOM      3  N   UNL     1       5.828   4.100  -0.571  0.00  0.00    -0.234 N 
ATOM      4  H   UNL     1       5.511   3.250  -0.229  0.00  0.00    +0.173 HD
ENDROOT
BRANCH   3   5
ATOM      5  N   UNL     1       4.916   5.041  -1.066  0.00  0.00    -0.246 N 
ATOM      6  H   UNL     1       5.233   5.891  -1.408  0.00  0.00    +0.172 HD
BRANCH   5   7
ATOM      7  C   UNL     1       3.596   4.764  -1.066  0.00  0.00    +0.147 C 
ATOM      8  S   UNL     1       2.481   5.914  -1.670  0.00  0.00    -0.017 S 
BRANCH   7   9
ATOM      9  N   UNL     1       3.155   3.583  -0.590  0.00  0.00    -0.323 N 
ATOM     10  H   UNL     1       3.787   2.932  -0.247  0.00  0.00    +0.148 HD
BRANCH   9  11
ATOM     11  C   UNL     1       1.721   3.283  -0.590  0.00  0.00    +0.134 C 
BRANCH  11  12
ATOM     12  C   UNL     1       1.492   1.889  -0.002  0.00  0.00    +0.135 C 
ATOM     13  C   UNL     1      -0.019   1.544   0.011  0.00  0.00    +0.035 C 
ATOM     14  C   UNL     1       0.002  -0.004   0.002  0.00  0.00    +0.031 C 
ATOM     15  C   UNL     1       1.398  -0.360  -0.546  0.00  0.00    +0.160 C 
ATOM     16  O   UNL     1       2.062   0.876  -0.858  0.00  0.00    -0.375 OA
ENDBRANCH  11  12
ENDBRANCH   9  11
ENDBRANCH   7   9
ENDBRANCH   5   7
ENDBRANCH   3   5
BRANCH   1  17
ATOM     17  C   UNL     1       8.129   3.364  -0.039  0.00  0.00    +0.171 C 
BRANCH  17  18
ATOM     18  S   UNL     1       9.813   4.026  -0.174  0.00  0.00    -0.116 S 
BRANCH  18  24
ATOM     19  C   UNL     1      10.252   1.568   0.947  0.00  0.00    +0.016 A 
ATOM     20  C   UNL     1      11.051   0.562   1.453  0.00  0.00    +0.021 A 
ATOM     21  C   UNL     1      12.424   0.728   1.507  0.00  0.00    +0.041 A 
ATOM     22  C   UNL     1      13.001   1.899   1.047  0.00  0.00    +0.021 A 
ATOM     23  C   UNL     1      12.207   2.906   0.534  0.00  0.00    +0.016 A 
ATOM     24  C   UNL     1      10.829   2.743   0.479  0.00  0.00    +0.008 A 
ATOM     25 CL   UNL     1      13.425  -0.535   2.151  0.00  0.00    -0.084 Cl
ENDBRANCH  18  24
ENDBRANCH  17  18
ENDBRANCH   1  17
TORSDOF 8
