REMARK  Name = ZINC08793077
REMARK  11 active torsions:
REMARK  status: ('A' for Active; 'I' for Inactive)
REMARK    1  A    between atoms: C_1  and  C_2
REMARK    2  A    between atoms: C_2  and  O_3
REMARK    3  A    between atoms: O_3  and  C_4
REMARK    4  A    between atoms: C_4  and  C_6
REMARK    5  A    between atoms: C_10  and  N_11
REMARK    6  A    between atoms: C_12  and  C_14
REMARK    7  A    between atoms: C_15  and  C_16
REMARK    8  A    between atoms: C_19  and  N_21
REMARK    9  A    between atoms: C_27  and  C_28
REMARK   10  A    between atoms: C_27  and  C_29
REMARK   11  A    between atoms: C_27  and  N_53
REMARK                            x       y       z     vdW  Elec       q    Type
REMARK                         _______ _______ _______ _____ _____    ______ ____
ROOT
ATOM      1  C   UNL     1       1.243   1.961   0.001  0.00  0.00    +0.091 A 
ATOM      2  C   UNL     1       1.900   2.345   1.236  0.00  0.00    -0.025 A 
ATOM      3  C   UNL     1       3.057   3.030   1.088  0.00  0.00    -0.021 A 
ATOM      4  S   UNL     1       3.272   3.178  -0.661  0.00  0.00    -0.079 S 
ATOM      5  C   UNL     1       1.852   2.338  -1.191  0.00  0.00    +0.086 A 
ATOM      6  C   UNL     1       3.933   3.543   2.188  0.00  0.00    -0.035 C 
ATOM      7  C   UNL     1       2.539   2.176   3.622  0.00  0.00    -0.073 C 
ATOM      8  C   UNL     1       1.384   2.010   2.631  0.00  0.00    +0.018 C 
ATOM      9  N   UNL     1       3.148   3.510   3.446  0.00  0.00    +0.384 N 
ATOM     10  H   UNL     1       2.403   4.214   3.393  0.00  0.00    -0.081 HD
ENDROOT
BRANCH   5  11
ATOM     11  N   UNL     1       1.427   2.099  -2.487  0.00  0.00    -0.276 N 
ATOM     12  C   UNL     1       2.157   2.546  -3.528  0.00  0.00    +0.241 C 
ATOM     13  O   UNL     1       3.190   3.159  -3.329  0.00  0.00    -0.270 OA
ATOM     14  H   UNL     1       0.605   1.611  -2.645  0.00  0.00    +0.156 HD
BRANCH  12  15
ATOM     15  C   UNL     1       1.723   2.302  -4.851  0.00  0.00    +0.068 C 
ATOM     16  C   UNL     1       2.458   2.752  -5.900  0.00  0.00    +0.020 C 
BRANCH  16  17
ATOM     17  C   UNL     1       2.023   2.508  -7.225  0.00  0.00    +0.015 A 
ATOM     18  C   UNL     1       2.617   2.882  -8.425  0.00  0.00    +0.018 A 
ATOM     19  C   UNL     1       1.977   2.508  -9.580  0.00  0.00    +0.041 A 
ATOM     20  C   UNL     1       0.812   1.813  -9.499  0.00  0.00    +0.164 A 
ATOM     21  S   UNL     1       0.567   1.647  -7.790  0.00  0.00    -0.065 S 
BRANCH  20  22
ATOM     22  N   UNL     1      -0.042   1.318 -10.602  0.00  0.00    +0.063 N 
ATOM     23  O   UNL     1       0.279   1.523 -11.759  0.00  0.00    -0.126 OA
ATOM     24  O   UNL     1      -1.065   0.706 -10.353  0.00  0.00    -0.126 OA
ENDBRANCH  20  22
ENDBRANCH  16  17
ENDBRANCH  12  15
ENDBRANCH   5  11
BRANCH   9  25
ATOM     25  C   UNL     1       4.024   3.823   4.596  0.00  0.00    -0.074 C 
ATOM     26  C   UNL     1       5.160   2.804   4.696  0.00  0.00    -0.014 C 
ATOM     27  C   UNL     1       4.610   5.224   4.408  0.00  0.00    -0.014 C 
ENDBRANCH   9  25
BRANCH   1  28
ATOM     28  C   UNL     1      -0.014   1.212   0.009  0.00  0.00    +0.342 C 
ATOM     29  O   UNL     1       0.002  -0.004   0.002  0.00  0.00    -0.245 OA
BRANCH  28  30
ATOM     30  O   UNL     1      -1.192   1.871   0.018  0.00  0.00    -0.461 OA
BRANCH  30  32
ATOM     31  C   UNL     1      -3.624   1.979   0.030  0.00  0.00    +0.048 C 
ATOM     32  C   UNL     1      -2.398   1.063   0.019  0.00  0.00    +0.229 C 
ENDBRANCH  30  32
ENDBRANCH  28  30
ENDBRANCH   1  28
TORSDOF 8
