REMARK  Name = ZINC16328014
REMARK  12 active torsions:
REMARK  status: ('A' for Active; 'I' for Inactive)
REMARK    1  A    between atoms: C_1  and  C_2
REMARK    2  A    between atoms: C_2  and  C_3
REMARK    3  A    between atoms: C_7  and  C_32
REMARK    4  A    between atoms: C_8  and  N_9
REMARK    5  A    between atoms: C_13  and  S_15
REMARK    6  A    between atoms: S_15  and  C_16
REMARK    7  A    between atoms: C_16  and  C_18
REMARK    8  A    between atoms: C_16  and  C_19
REMARK    9  A    between atoms: N_21  and  C_22
REMARK   10  A    between atoms: N_21  and  C_24
REMARK   11  A    between atoms: C_22  and  C_23
REMARK   12  A    between atoms: C_32  and  C_33
REMARK                            x       y       z     vdW  Elec       q    Type
REMARK                         _______ _______ _______ _____ _____    ______ ____
ROOT
ATOM      1  N   UNL     1       5.981   6.285   9.291  0.00  0.00    -0.292 N 
ATOM      2  C   UNL     1       5.738   7.153   8.232  0.00  0.00    +0.187 A 
ATOM      3  N   UNL     1       6.238   7.143   7.012  0.00  0.00    -0.125 NA
ATOM      4  N   UNL     1       5.854   8.104   6.107  0.00  0.00    -0.133 NA
ATOM      5  C   UNL     1       4.995   9.040   6.467  0.00  0.00    +0.161 A 
ATOM      6  S   UNL     1       4.666   8.580   8.162  0.00  0.00    -0.024 S 
ATOM      7  H   UNL     1       5.516   6.407  10.134  0.00  0.00    +0.154 HD
ENDROOT
BRANCH   1  13
ATOM      8  C   UNL     1       6.521   4.081   8.468  0.00  0.00    -0.026 A 
ATOM      9  C   UNL     1       7.427   3.050   8.317  0.00  0.00    +0.005 A 
ATOM     10  C   UNL     1       8.701   3.164   8.844  0.00  0.00    +0.001 A 
ATOM     11  C   UNL     1       9.073   4.312   9.519  0.00  0.00    +0.005 A 
ATOM     12  C   UNL     1       8.173   5.349   9.670  0.00  0.00    -0.026 A 
ATOM     13  C   UNL     1       6.893   5.238   9.141  0.00  0.00    +0.039 A 
BRANCH   8  15
ATOM     14  C   UNL     1       4.908   2.520   7.415  0.00  0.00    +0.009 C 
ATOM     15  C   UNL     1       5.131   3.954   7.899  0.00  0.00    +0.033 C 
ENDBRANCH   8  15
BRANCH  12  16
ATOM     16  C   UNL     1       8.580   6.599  10.407  0.00  0.00    +0.033 C 
ATOM     17  C   UNL     1       8.144   6.493  11.870  0.00  0.00    +0.009 C 
ENDBRANCH  12  16
ENDBRANCH   1  13
BRANCH   5  18
ATOM     18  S   UNL     1       4.342  10.379   5.526  0.00  0.00    -0.084 S 
BRANCH  18  19
ATOM     19  C   UNL     1       5.133  10.201   3.903  0.00  0.00    +0.136 C 
ATOM     20  C   UNL     1       4.668   8.899   3.249  0.00  0.00    +0.029 C 
BRANCH  19  21
ATOM     21  C   UNL     1       4.751  11.367   3.028  0.00  0.00    +0.229 C 
ATOM     22  O   UNL     1       3.767  12.026   3.291  0.00  0.00    -0.274 OA
ATOM     23  N   UNL     1       5.503  11.678   1.954  0.00  0.00    -0.296 N 
BRANCH  23  24
ATOM     24  C   UNL     1       5.132  12.812   1.103  0.00  0.00    +0.098 C 
ATOM     25  C   UNL     1       3.731  12.574   0.509  0.00  0.00    +0.046 C 
ATOM     26  C   UNL     1       3.234  13.908  -0.118  0.00  0.00    +0.168 C 
ATOM     27  S   UNL     1       3.809  15.112   1.153  0.00  0.00    -0.029 S 
ATOM     28  O   UNL     1       2.764  15.328   2.092  0.00  0.00    -0.174 OA
ATOM     29  O   UNL     1       4.404  16.225   0.500  0.00  0.00    -0.174 OA
ATOM     30  C   UNL     1       5.130  14.109   1.948  0.00  0.00    +0.188 C 
ENDBRANCH  23  24
BRANCH  23  31
ATOM     31  C   UNL     1       6.691  10.883   1.636  0.00  0.00    +0.105 C 
ATOM     32  C   UNL     1       7.910  11.482   2.342  0.00  0.00    +0.024 C 
ENDBRANCH  23  31
ENDBRANCH  19  21
ENDBRANCH  18  19
ENDBRANCH   5  18
TORSDOF 8
