REMARK  Name = ZINC36014258
REMARK  9 active torsions:
REMARK  status: ('A' for Active; 'I' for Inactive)
REMARK    1  A    between atoms: C_1  and  C_2
REMARK    2  A    between atoms: C_2  and  C_3
REMARK    3  A    between atoms: C_2  and  C_4
REMARK    4  A    between atoms: C_4  and  N_5
REMARK    5  A    between atoms: C_8  and  C_27
REMARK    6  A    between atoms: N_14  and  S_17
REMARK    7  A    between atoms: S_17  and  C_20
REMARK    8  A    between atoms: C_27  and  C_28
REMARK    9  A    between atoms: C_27  and  C_29
REMARK                            x       y       z     vdW  Elec       q    Type
REMARK                         _______ _______ _______ _____ _____    ______ ____
ROOT
ATOM      1  N   UNL     1      -1.119  -1.676  -0.467  0.00  0.00    -0.313 N 
ATOM      2  C   UNL     1      -0.994  -2.133  -1.730  0.00  0.00    +0.201 C 
ATOM      3  O   UNL     1      -1.060  -1.460  -2.737  0.00  0.00    -0.277 OA
ATOM      4  C   UNL     1      -0.756  -3.627  -1.679  0.00  0.00    +0.022 C 
ATOM      5  N   UNL     1      -1.166  -4.028  -0.311  0.00  0.00    +0.401 N 
ATOM      6  C   UNL     1      -0.966  -2.789   0.473  0.00  0.00    +0.006 C 
ATOM      7  C   UNL     1      -2.022  -2.701   1.573  0.00  0.00    +0.023 C 
ATOM      8  C   UNL     1      -1.835  -1.396   2.354  0.00  0.00    +0.109 C 
ATOM      9  N   UNL     1      -0.447  -1.325   2.831  0.00  0.00    -0.177 NA
ATOM     10  C   UNL     1       0.643  -1.474   1.857  0.00  0.00    +0.109 C 
ATOM     11  C   UNL     1       0.436  -2.779   1.081  0.00  0.00    +0.023 C 
ATOM     12  H   UNL     1      -2.134  -4.311  -0.298  0.00  0.00    -0.082 HD
ATOM     13  H   UNL     1      -0.572  -4.766   0.036  0.00  0.00    -0.082 HD
ENDROOT
BRANCH   9  14
ATOM     14  S   UNL     1      -0.118  -1.083   4.436  0.00  0.00    +0.061 S 
ATOM     15  O   UNL     1       1.184  -0.517   4.502  0.00  0.00    -0.153 OA
ATOM     16  O   UNL     1      -1.257  -0.441   4.991  0.00  0.00    -0.153 OA
BRANCH  14  17
ATOM     17  C   UNL     1      -0.015  -2.671   5.192  0.00  0.00    +0.107 A 
ATOM     18  C   UNL     1      -1.150  -3.260   5.719  0.00  0.00    +0.028 A 
ATOM     19  C   UNL     1      -1.071  -4.505   6.313  0.00  0.00    +0.003 A 
ATOM     20  C   UNL     1       0.143  -5.163   6.381  0.00  0.00    +0.020 A 
ATOM     21  C   UNL     1       1.279  -4.574   5.853  0.00  0.00    +0.043 A 
ATOM     22  C   UNL     1       1.198  -3.330   5.254  0.00  0.00    +0.048 A 
ATOM     23 CL   UNL     1       2.804  -5.400   5.938  0.00  0.00    -0.083 Cl
ENDBRANCH  14  17
ENDBRANCH   9  14
BRANCH   4  24
ATOM     24  C   UNL     1      -1.616  -4.339  -2.725  0.00  0.00    -0.023 C 
ATOM     25  C   UNL     1      -1.228  -3.851  -4.122  0.00  0.00    +0.006 C 
ATOM     26  C   UNL     1      -1.387  -5.849  -2.631  0.00  0.00    +0.006 C 
ENDBRANCH   4  24
BRANCH   1  27
ATOM     27  C   UNL     1      -1.364  -0.281  -0.093  0.00  0.00    +0.109 C 
BRANCH  27  29
ATOM     28  C   UNL     1      -3.130   1.387   0.493  0.00  0.00    +0.009 C 
ATOM     29  C   UNL     1      -2.872  -0.025  -0.037  0.00  0.00    +0.000 C 
ATOM     30  C   UNL     1      -3.464  -0.159  -1.442  0.00  0.00    +0.009 C 
ENDBRANCH  27  29
ENDBRANCH   1  27
TORSDOF 5
