REMARK  Name = ZINC49937161
REMARK  2 active torsions:
REMARK  status: ('A' for Active; 'I' for Inactive)
REMARK    1  A    between atoms: C_4  and  C_7
REMARK    2  A    between atoms: C_24  and  C_26
REMARK                            x       y       z     vdW  Elec       q    Type
REMARK                         _______ _______ _______ _____ _____    ______ ____
ROOT
ATOM      1  C   UNL     1       3.711  -0.707  -0.038  0.00  0.00    +0.215 C 
ATOM      2  C   UNL     1       4.019  -1.169  -1.462  0.00  0.00    +0.113 C 
ATOM      3  C   UNL     1       2.857  -2.068  -1.854  0.00  0.00    +0.065 C 
ATOM      4  C   UNL     1       2.428  -3.061  -0.863  0.00  0.00    +0.039 A 
ATOM      5  C   UNL     1       1.631  -4.149  -1.216  0.00  0.00    +0.013 A 
ATOM      6  C   UNL     1       1.244  -5.053  -0.250  0.00  0.00    +0.001 A 
ATOM      7  C   UNL     1       1.645  -4.880   1.065  0.00  0.00    +0.004 A 
ATOM      8  C   UNL     1       2.437  -3.809   1.427  0.00  0.00    +0.046 A 
ATOM      9  C   UNL     1       2.843  -2.889   0.471  0.00  0.00    +0.130 A 
ATOM     10  O   UNL     1       3.632  -1.846   0.823  0.00  0.00    -0.483 OA
ATOM     11  N   UNL     1       2.260  -1.894  -2.986  0.00  0.00    -0.215 NA
ATOM     12  C   UNL     1       2.521  -0.878  -3.845  0.00  0.00    +0.249 A 
ATOM     13  N   UNL     1       2.002  -0.614  -5.039  0.00  0.00    -0.198 NA
ATOM     14  C   UNL     1       2.521   0.510  -5.521  0.00  0.00    +0.247 A 
ATOM     15  N   UNL     1       3.385   0.992  -4.665  0.00  0.00    -0.156 NA
ATOM     16  N   UNL     1       3.420   0.103  -3.583  0.00  0.00    -0.221 N 
ATOM     17  C   UNL     1       4.222   0.072  -2.350  0.00  0.00    +0.160 C 
ENDROOT
BRANCH   1  21
ATOM     18  C   UNL     1      -0.017   1.378   0.010  0.00  0.00    +0.000 A 
ATOM     19  C   UNL     1       1.161   2.072  -0.197  0.00  0.00    +0.000 A 
ATOM     20  C   UNL     1       2.367   1.397  -0.212  0.00  0.00    +0.007 A 
ATOM     21  C   UNL     1       2.396   0.029  -0.020  0.00  0.00    -0.007 A 
ATOM     22  C   UNL     1       1.219  -0.665   0.187  0.00  0.00    +0.007 A 
ATOM     23  C   UNL     1       0.012   0.009   0.201  0.00  0.00    +0.000 A 
ENDBRANCH   1  21
BRANCH  17  24
ATOM     24  C   UNL     1       5.678   0.148  -2.730  0.00  0.00    +0.015 A 
ATOM     25  C   UNL     1       6.576   1.131  -2.475  0.00  0.00    +0.013 A 
ATOM     26  C   UNL     1       7.875   0.985  -2.925  0.00  0.00    +0.008 A 
ATOM     27  C   UNL     1       8.212  -0.136  -3.608  0.00  0.00    +0.045 A 
ATOM     28  S   UNL     1       6.670  -1.035  -3.626  0.00  0.00    -0.099 S 
ENDBRANCH  17  24
TORSDOF 2
