REMARK  Name = ZINC27551273
REMARK  6 active torsions:
REMARK  status: ('A' for Active; 'I' for Inactive)
REMARK    1  A    between atoms: C_6  and  C_7
REMARK    2  A    between atoms: C_7  and  N_8
REMARK    3  A    between atoms: C_12  and  C_13
REMARK    4  A    between atoms: C_16  and  O_20
REMARK    5  A    between atoms: O_20  and  C_21
REMARK    6  A    between atoms: C_21  and  C_22
REMARK                            x       y       z     vdW  Elec       q    Type
REMARK                         _______ _______ _______ _____ _____    ______ ____
ROOT
ATOM      1  N   UNL     1       0.700  -2.648   8.313  0.00  0.00    -0.216 N 
ATOM      2  C   UNL     1       1.426  -1.533   8.094  0.00  0.00    +0.269 C 
ATOM      3  O   UNL     1       2.235  -1.027   8.850  0.00  0.00    -0.268 OA
ATOM      4  C   UNL     1       1.044  -1.052   6.758  0.00  0.00    +0.098 C 
ATOM      5  C   UNL     1       1.515   0.044   6.111  0.00  0.00    +0.036 C 
ATOM      6  N   UNL     1       0.084  -1.964   6.299  0.00  0.00    -0.265 N 
ATOM      7  C   UNL     1      -0.084  -2.897   7.253  0.00  0.00    +0.313 C 
ATOM      8  O   UNL     1      -0.849  -3.839   7.168  0.00  0.00    -0.252 OA
ATOM      9  H   UNL     1      -0.376  -1.827   5.309  0.00  0.00    +0.157 HD
ENDROOT
BRANCH   5  10
ATOM     10  C   UNL     1       0.895   0.476   4.851  0.00  0.00    -0.020 A 
ATOM     11  C   UNL     1      -0.433   0.133   4.568  0.00  0.00    +0.031 A 
ATOM     12  C   UNL     1      -1.011   0.545   3.387  0.00  0.00    +0.084 A 
ATOM     13  C   UNL     1      -0.274   1.290   2.472  0.00  0.00    +0.153 A 
ATOM     14  C   UNL     1       1.044   1.634   2.749  0.00  0.00    +0.061 A 
ATOM     15  C   UNL     1       1.630   1.231   3.930  0.00  0.00    +0.027 A 
ATOM     16 BR   UNL     1       2.036   2.654   1.503  0.00  0.00    -0.046 Br
ATOM     17 CL   UNL     1      -2.659   0.127   3.037  0.00  0.00    -0.080 Cl
BRANCH  13  18
ATOM     18  O   UNL     1      -0.847   1.689   1.307  0.00  0.00    -0.478 OA
BRANCH  18  19
ATOM     19  C   UNL     1      -0.723   0.808   0.189  0.00  0.00    +0.353 C 
BRANCH  19  20
ATOM     20  C   UNL     1      -1.415   1.413  -1.006  0.00  0.00    +0.393 C 
ATOM     21  O   UNL     1      -1.958   2.488  -0.909  0.00  0.00    -0.243 OA
ATOM     22  O   UNL     1      -1.428   0.757  -2.177  0.00  0.00    -0.243 OA
ENDBRANCH  19  20
ENDBRANCH  18  19
ENDBRANCH  13  18
ENDBRANCH   5  10
BRANCH   1  23
ATOM     23  C   UNL     1       0.759  -3.466   9.527  0.00  0.00    +0.153 C 
BRANCH  23  29
ATOM     24  C   UNL     1       0.106  -1.992  11.442  0.00  0.00    +0.006 A 
ATOM     25  C   UNL     1      -0.823  -1.524  12.352  0.00  0.00    +0.020 A 
ATOM     26  C   UNL     1      -2.109  -2.033  12.351  0.00  0.00    +0.041 A 
ATOM     27  C   UNL     1      -2.467  -3.006  11.434  0.00  0.00    +0.020 A 
ATOM     28  C   UNL     1      -1.539  -3.469  10.520  0.00  0.00    +0.006 A 
ATOM     29  C   UNL     1      -0.253  -2.960  10.523  0.00  0.00    -0.029 A 
ATOM     30 CL   UNL     1      -3.275  -1.452  13.499  0.00  0.00    -0.084 Cl
ENDBRANCH  23  29
ENDBRANCH   1  23
TORSDOF 6
