REMARK  Name = ZINC04554097
REMARK  5 active torsions:
REMARK  status: ('A' for Active; 'I' for Inactive)
REMARK    1  A    between atoms: C_1  and  C_2
REMARK    2  A    between atoms: C_2  and  C_3
REMARK    3  A    between atoms: C_2  and  N_50
REMARK    4  A    between atoms: C_11  and  O_26
REMARK    5  A    between atoms: C_13  and  C_16
REMARK                            x       y       z     vdW  Elec       q    Type
REMARK                         _______ _______ _______ _____ _____    ______ ____
ROOT
ATOM      1  C   UNL     1       5.141  -1.040  -6.539  0.00  0.00    -0.073 C 
ATOM      2  C   UNL     1       5.015  -0.316  -5.196  0.00  0.00    +0.018 C 
ATOM      3  C   UNL     1       4.278  -1.234  -4.227  0.00  0.00    -0.027 A 
ATOM      4  C   UNL     1       3.562  -2.282  -4.702  0.00  0.00    -0.021 A 
ATOM      5  S   UNL     1       2.899  -3.070  -3.260  0.00  0.00    -0.080 S 
ATOM      6  C   UNL     1       3.558  -2.036  -2.066  0.00  0.00    +0.080 A 
ATOM      7  C   UNL     1       4.280  -1.076  -2.786  0.00  0.00    +0.067 A 
ATOM      8  C   UNL     1       4.978  -0.023  -2.004  0.00  0.00    +0.220 C 
ATOM      9  N   UNL     1       4.706   0.070  -0.731  0.00  0.00    -0.223 NA
ATOM     10  C   UNL     1       3.699  -0.723  -0.037  0.00  0.00    +0.224 C 
ATOM     11  N   UNL     1       3.486  -2.026  -0.694  0.00  0.00    -0.313 N 
ATOM     12  C   UNL     1       3.390  -2.665  -6.138  0.00  0.00    -0.035 C 
ATOM     13  H   UNL     1       3.304  -2.832  -0.185  0.00  0.00    +0.149 HD
ATOM     14  N   UNL     1       3.808  -1.510  -6.969  0.00  0.00    +0.384 N 
ATOM     15  H   UNL     1       3.130  -0.749  -6.849  0.00  0.00    -0.081 HD
ENDROOT
BRANCH  10  16
ATOM     16  C   UNL     1       2.399   0.038  -0.021  0.00  0.00    -0.005 A 
ATOM     17  C   UNL     1       1.194  -0.661  -0.013  0.00  0.00    +0.008 A 
ATOM     18  C   UNL     1       0.002  -0.004   0.002  0.00  0.00    +0.009 A 
ATOM     19  C   UNL     1      -0.017   1.401   0.010  0.00  0.00    -0.018 A 
ATOM     20  C   UNL     1      -1.228   2.115   0.019  0.00  0.00    +0.008 A 
ATOM     21  C   UNL     1      -1.207   3.475   0.032  0.00  0.00    +0.001 A 
ATOM     22  C   UNL     1      -0.002   4.175   0.024  0.00  0.00    +0.001 A 
ATOM     23  C   UNL     1       1.190   3.518   0.009  0.00  0.00    +0.008 A 
ATOM     24  C   UNL     1       1.209   2.113   0.002  0.00  0.00    -0.018 A 
ATOM     25  C   UNL     1       2.419   1.399  -0.014  0.00  0.00    +0.015 A 
ENDBRANCH  10  16
BRANCH  14  27
ATOM     26  C   UNL     1       2.500  -2.521  -8.779  0.00  0.00    -0.014 C 
ATOM     27  C   UNL     1       3.845  -1.901  -8.395  0.00  0.00    -0.074 C 
ATOM     28  C   UNL     1       4.091  -0.652  -9.244  0.00  0.00    -0.014 C 
ENDBRANCH  14  27
BRANCH   8  29
ATOM     29  O   UNL     1       5.865   0.813  -2.591  0.00  0.00    -0.492 OA
ATOM     30  H   UNL     1       6.258   1.458  -1.987  0.00  0.00    +0.294 HD
ENDBRANCH   8  29
TORSDOF 3
