REMARK  Name = ZINC18089247
REMARK  10 active torsions:
REMARK  status: ('A' for Active; 'I' for Inactive)
REMARK    1  A    between atoms: C_1  and  O_2
REMARK    2  A    between atoms: O_2  and  C_3
REMARK    3  A    between atoms: C_5  and  N_36
REMARK    4  A    between atoms: C_8  and  N_9
REMARK    5  A    between atoms: C_10  and  C_12
REMARK    6  A    between atoms: C_12  and  C_13
REMARK    7  A    between atoms: N_17  and  C_28
REMARK    8  A    between atoms: N_19  and  C_20
REMARK    9  A    between atoms: C_28  and  C_29
REMARK   10  A    between atoms: C_29  and  C_30
REMARK                            x       y       z     vdW  Elec       q    Type
REMARK                         _______ _______ _______ _____ _____    ______ ____
ROOT
ATOM      1  C   UNL     1      -0.002  -6.417  -0.812  0.00  0.00    +0.149 C 
ATOM      2  C   UNL     1      -0.548  -7.283  -1.936  0.00  0.00    +0.235 C 
ATOM      3  O   UNL     1      -1.733  -7.338  -2.188  0.00  0.00    -0.274 OA
ATOM      4  N   UNL     1       0.349  -7.972  -2.620  0.00  0.00    -0.249 N 
ATOM      5  C   UNL     1       1.698  -7.914  -2.339  0.00  0.00    +0.164 C 
ATOM      6  N   UNL     1       2.679  -8.544  -2.941  0.00  0.00    -0.226 NA
ATOM      7  S   UNL     1       1.797  -6.779  -0.961  0.00  0.00    -0.077 S 
ENDROOT
BRANCH   6   8
ATOM      8  C   UNL     1       3.970  -8.363  -2.521  0.00  0.00    +0.067 A 
ATOM      9  C   UNL     1       4.442  -7.079  -2.240  0.00  0.00    +0.030 A 
ATOM     10  C   UNL     1       5.743  -6.902  -1.817  0.00  0.00    +0.040 A 
ATOM     11  C   UNL     1       6.581  -7.996  -1.671  0.00  0.00    +0.124 A 
ATOM     12  C   UNL     1       6.119  -9.272  -1.948  0.00  0.00    +0.040 A 
ATOM     13  C   UNL     1       4.818  -9.461  -2.366  0.00  0.00    +0.030 A 
ATOM     14  F   UNL     1       7.855  -7.817  -1.256  0.00  0.00    -0.205 F 
ENDBRANCH   6   8
BRANCH   1  15
ATOM     15  C   UNL     1      -0.292  -4.936  -1.062  0.00  0.00    +0.120 C 
BRANCH  15  17
ATOM     16  N   UNL     1       0.098  -2.778   0.084  0.00  0.00    -0.283 N 
ATOM     17  C   UNL     1       0.240  -4.119   0.087  0.00  0.00    +0.219 C 
ATOM     18  O   UNL     1       0.797  -4.667   1.015  0.00  0.00    -0.275 OA
ATOM     19  H   UNL     1      -0.416  -2.347  -0.616  0.00  0.00    +0.155 HD
BRANCH  16  25
ATOM     20  C   UNL     1       0.172  -0.757   1.414  0.00  0.00    +0.143 A 
ATOM     21  C   UNL     1       0.761  -0.002   2.416  0.00  0.00    +0.080 A 
ATOM     22  C   UNL     1       1.866  -0.489   3.090  0.00  0.00    +0.130 A 
ATOM     23  C   UNL     1       2.386  -1.729   2.767  0.00  0.00    +0.035 A 
ATOM     24  C   UNL     1       1.804  -2.488   1.770  0.00  0.00    +0.029 A 
ATOM     25  C   UNL     1       0.692  -2.008   1.093  0.00  0.00    +0.076 A 
BRANCH  22  26
ATOM     26  N   UNL     1       2.493   0.320   4.159  0.00  0.00    +0.057 N 
ATOM     27  O   UNL     1       2.040   1.404   4.442  0.00  0.00    -0.126 OA
ATOM     28  O   UNL     1       3.459  -0.104   4.749  0.00  0.00    -0.126 OA
ENDBRANCH  22  26
BRANCH  20  30
ATOM     29  C   UNL     1      -1.393   1.011   1.133  0.00  0.00    +0.277 C 
ATOM     30  O   UNL     1      -0.914  -0.280   0.750  0.00  0.00    -0.493 OA
ENDBRANCH  20  30
ENDBRANCH  16  25
ENDBRANCH  15  17
ENDBRANCH   1  15
BRANCH   4  31
ATOM     31  C   UNL     1      -0.107  -8.828  -3.718  0.00  0.00    +0.120 C 
BRANCH  31  32
ATOM     32  C   UNL     1      -0.120  -8.024  -5.020  0.00  0.00    +0.050 C 
BRANCH  32  33
ATOM     33  C   UNL     1      -0.589  -8.904  -6.149  0.00  0.00    -0.072 C 
ATOM     34  C   UNL     1      -1.843  -8.867  -6.467  0.00  0.00    -0.028 C 
ATOM     35  C   UNL     1      -2.458  -9.693  -7.559  0.00  0.00    +0.027 C 
ATOM     36  C   UNL     1      -1.369 -10.231  -8.490  0.00  0.00    +0.004 C 
ATOM     37  C   UNL     1      -0.272 -10.873  -7.632  0.00  0.00    +0.005 C 
ATOM     38  C   UNL     1       0.428  -9.765  -6.839  0.00  0.00    +0.030 C 
ENDBRANCH  32  33
ENDBRANCH  31  32
ENDBRANCH   4  31
TORSDOF 9
