REMARK  Name = ZINC14037068
REMARK  14 active torsions:
REMARK  status: ('A' for Active; 'I' for Inactive)
REMARK    1  A    between atoms: C_1  and  C_2
REMARK    2  A    between atoms: C_2  and  C_3
REMARK    3  A    between atoms: C_3  and  O_4
REMARK    4  A    between atoms: O_4  and  C_5
REMARK    5  A    between atoms: C_10  and  C_11
REMARK    6  A    between atoms: N_13  and  C_14
REMARK    7  A    between atoms: C_14  and  N_16
REMARK    8  A    between atoms: N_16  and  N_17
REMARK    9  A    between atoms: C_18  and  C_20
REMARK   10  A    between atoms: C_20  and  O_21
REMARK   11  A    between atoms: O_21  and  C_22
REMARK   12  A    between atoms: C_25  and  C_28
REMARK   13  A    between atoms: C_28  and  C_29
REMARK   14  A    between atoms: C_28  and  C_30
REMARK                            x       y       z     vdW  Elec       q    Type
REMARK                         _______ _______ _______ _____ _____    ______ ____
ROOT
ATOM      1  N   UNL     1       3.070   7.820   0.013  0.00  0.00    -0.245 N 
ATOM      2  H   UNL     1       2.170   8.180   0.024  0.00  0.00    +0.172 HD
ENDROOT
BRANCH   1   3
ATOM      3  N   UNL     1       3.270   6.433   0.004  0.00  0.00    -0.232 N 
ATOM      4  C   UNL     1       2.211   5.600   0.010  0.00  0.00    +0.267 C 
ATOM      5  O   UNL     1       1.085   6.051   0.023  0.00  0.00    -0.271 OA
ATOM      6  H   UNL     1       4.171   6.073  -0.006  0.00  0.00    +0.173 HD
BRANCH   4   7
ATOM      7  C   UNL     1       2.426   4.108   0.001  0.00  0.00    +0.326 C 
BRANCH   7   8
ATOM      8  O   UNL     1       1.160   3.445   0.009  0.00  0.00    -0.483 OA
BRANCH   8   9
ATOM      9  C   UNL     1       1.176   2.086   0.002  0.00  0.00    +0.121 A 
ATOM     10  C   UNL     1      -0.017   1.377   0.010  0.00  0.00    +0.046 A 
ATOM     11  C   UNL     1       0.002  -0.004   0.002  0.00  0.00    +0.007 A 
ATOM     12  C   UNL     1       1.208  -0.680  -0.013  0.00  0.00    -0.045 A 
ATOM     13  C   UNL     1       2.398   0.024  -0.021  0.00  0.00    +0.007 A 
ATOM     14  C   UNL     1       2.385   1.405  -0.013  0.00  0.00    +0.046 A 
BRANCH  12  15
ATOM     15  C   UNL     1       1.226  -2.187  -0.021  0.00  0.00    +0.013 C 
ATOM     16  C   UNL     1       1.940  -2.682  -1.280  0.00  0.00    +0.012 C 
ATOM     17  C   UNL     1       1.965  -2.695   1.219  0.00  0.00    +0.012 C 
ENDBRANCH  12  15
ENDBRANCH   8   9
ENDBRANCH   7   8
ENDBRANCH   4   7
ENDBRANCH   1   3
BRANCH   1  18
ATOM     18  C   UNL     1       4.130   8.653   0.007  0.00  0.00    +0.153 C 
ATOM     19  S   UNL     1       3.886  10.348   0.018  0.00  0.00    -0.017 S 
BRANCH  18  22
ATOM     20  C   UNL     1       6.440   8.986  -0.012  0.00  0.00    +0.253 C 
ATOM     21  O   UNL     1       6.267  10.190  -0.005  0.00  0.00    -0.270 OA
ATOM     22  N   UNL     1       5.381   8.153  -0.007  0.00  0.00    -0.263 N 
ATOM     23  H   UNL     1       5.519   7.193  -0.013  0.00  0.00    +0.157 HD
BRANCH  20  29
ATOM     24  C   UNL     1       8.914   9.302  -0.034  0.00  0.00    +0.133 A 
ATOM     25  C   UNL     1      10.197   8.775  -0.049  0.00  0.00    +0.046 A 
ATOM     26  C   UNL     1      10.384   7.407  -0.057  0.00  0.00    +0.004 A 
ATOM     27  C   UNL     1       9.295   6.551  -0.051  0.00  0.00    +0.001 A 
ATOM     28  C   UNL     1       8.013   7.056  -0.031  0.00  0.00    +0.017 A 
ATOM     29  C   UNL     1       7.809   8.439  -0.028  0.00  0.00    +0.079 A 
BRANCH  24  30
ATOM     30  O   UNL     1       8.729  10.646  -0.025  0.00  0.00    -0.491 OA
BRANCH  30  31
ATOM     31  C   UNL     1       9.901  11.462  -0.032  0.00  0.00    +0.229 C 
BRANCH  31  33
ATOM     32  C   UNL     1      10.751  13.812  -0.027  0.00  0.00    +0.007 C 
ATOM     33  C   UNL     1       9.495  12.937  -0.020  0.00  0.00    +0.038 C 
ENDBRANCH  31  33
ENDBRANCH  30  31
ENDBRANCH  24  30
ENDBRANCH  20  29
ENDBRANCH  18  22
ENDBRANCH   1  18
TORSDOF 11
