REMARK  Name = ZINC39389109
REMARK  9 active torsions:
REMARK  status: ('A' for Active; 'I' for Inactive)
REMARK    1  A    between atoms: C_1  and  O_2
REMARK    2  A    between atoms: O_2  and  C_3
REMARK    3  A    between atoms: C_8  and  O_9
REMARK    4  A    between atoms: O_9  and  C_10
REMARK    5  A    between atoms: C_12  and  C_17
REMARK    6  A    between atoms: C_17  and  S_18
REMARK    7  A    between atoms: S_18  and  C_19
REMARK    8  A    between atoms: C_23  and  C_32
REMARK    9  A    between atoms: N_25  and  C_26
REMARK                            x       y       z     vdW  Elec       q    Type
REMARK                         _______ _______ _______ _____ _____    ______ ____
ROOT
ATOM      1  S   UNL     1       3.605  -4.354   6.027  0.00  0.00    -0.106 S 
ENDROOT
BRANCH   1   2
ATOM      2  C   UNL     1       4.509  -5.075   7.424  0.00  0.00    +0.273 C 
ATOM      3  N   UNL     1       3.859  -4.714   8.684  0.00  0.00    -0.180 NA
ATOM      4  N   UNL     1       4.607  -4.069   9.416  0.00  0.00    -0.286 N 
ATOM      5  C   UNL     1       5.920  -3.860   8.803  0.00  0.00    +0.218 C 
ATOM      6  N   UNL     1       5.873  -4.520   7.485  0.00  0.00    -0.273 N 
ATOM      7  H   UNL     1       4.358  -3.738  10.293  0.00  0.00    +0.185 HD
BRANCH   6   8
ATOM      8  C   UNL     1       6.881  -4.600   6.522  0.00  0.00    +0.034 A 
ATOM      9  C   UNL     1       8.156  -4.126   6.808  0.00  0.00    +0.023 A 
ATOM     10  C   UNL     1       9.151  -4.207   5.854  0.00  0.00    +0.002 A 
ATOM     11  C   UNL     1       8.879  -4.758   4.614  0.00  0.00    +0.000 A 
ATOM     12  C   UNL     1       7.612  -5.230   4.327  0.00  0.00    +0.002 A 
ATOM     13  C   UNL     1       6.614  -5.158   5.279  0.00  0.00    +0.023 A 
ENDBRANCH   6   8
BRANCH   5  14
ATOM     14  C   UNL     1       6.185  -2.386   8.637  0.00  0.00    -0.006 A 
ATOM     15  C   UNL     1       6.102  -1.541   9.728  0.00  0.00    +0.007 A 
ATOM     16  C   UNL     1       6.345  -0.189   9.575  0.00  0.00    +0.000 A 
ATOM     17  C   UNL     1       6.670   0.319   8.331  0.00  0.00    +0.000 A 
ATOM     18  C   UNL     1       6.753  -0.526   7.240  0.00  0.00    +0.000 A 
ATOM     19  C   UNL     1       6.515  -1.879   7.394  0.00  0.00    +0.007 A 
ENDBRANCH   5  14
ENDBRANCH   1   2
BRANCH   1  20
ATOM     20  C   UNL     1       3.616  -2.572   6.370  0.00  0.00    +0.147 C 
BRANCH  20  28
ATOM     21  C   UNL     1       0.355  -0.677   1.204  0.00  0.00    +0.162 A 
ATOM     22  C   UNL     1       0.880   0.081   2.230  0.00  0.00    +0.064 A 
ATOM     23  C   UNL     1       1.564  -0.549   3.270  0.00  0.00    +0.068 A 
ATOM     24  C   UNL     1       1.717  -1.954   3.272  0.00  0.00    +0.082 A 
ATOM     25  C   UNL     1       1.179  -2.704   2.227  0.00  0.00    +0.078 A 
ATOM     26  C   UNL     1       0.500  -2.068   1.205  0.00  0.00    +0.164 A 
ATOM     27  N   UNL     1       2.386  -2.542   4.297  0.00  0.00    -0.233 NA
ATOM     28  C   UNL     1       2.887  -1.844   5.270  0.00  0.00    +0.120 A 
ATOM     29  N   UNL     1       2.787  -0.491   5.349  0.00  0.00    -0.310 N 
ATOM     30  H   UNL     1       3.182  -0.023   6.101  0.00  0.00    +0.170 HD
ATOM     31  C   UNL     1       2.143   0.209   4.387  0.00  0.00    +0.259 A 
ATOM     32  O   UNL     1       2.046   1.422   4.446  0.00  0.00    -0.267 OA
BRANCH  21  34
ATOM     33  C   UNL     1      -0.425   1.355   0.245  0.00  0.00    +0.277 C 
ATOM     34  O   UNL     1      -0.312  -0.069   0.187  0.00  0.00    -0.491 OA
ENDBRANCH  21  34
BRANCH  26  35
ATOM     35  O   UNL     1      -0.027  -2.801   0.191  0.00  0.00    -0.491 OA
ATOM     36  C   UNL     1       0.155  -4.217   0.250  0.00  0.00    +0.277 C 
ENDBRANCH  26  35
ENDBRANCH  20  28
ENDBRANCH   1  20
TORSDOF 7
