REMARK  Name = ZINC35585674
REMARK  7 active torsions:
REMARK  status: ('A' for Active; 'I' for Inactive)
REMARK    1  A    between atoms: C_1  and  C_2
REMARK    2  A    between atoms: C_2  and  C_3
REMARK    3  A    between atoms: C_3  and  N_4
REMARK    4  A    between atoms: N_4  and  C_5
REMARK    5  A    between atoms: C_5  and  C_7
REMARK    6  A    between atoms: C_5  and  C_15
REMARK    7  A    between atoms: C_10  and  N_12
REMARK                            x       y       z     vdW  Elec       q    Type
REMARK                         _______ _______ _______ _____ _____    ______ ____
ROOT
ATOM      1  C   UNL     1       1.426  -2.440  -2.474  0.00  0.00    +0.028 C 
ENDROOT
BRANCH   1   2
ATOM      2  C   UNL     1       2.873  -2.022  -2.425  0.00  0.00    -0.032 A 
ATOM      3  C   UNL     1       3.495  -1.787  -1.212  0.00  0.00    +0.026 A 
ATOM      4  C   UNL     1       4.798  -1.412  -1.204  0.00  0.00    +0.056 A 
ATOM      5  S   UNL     1       5.185  -1.382  -2.947  0.00  0.00    -0.074 S 
ATOM      6  C   UNL     1       3.586  -1.876  -3.569  0.00  0.00    +0.058 A 
ATOM      7 BR   UNL     1       3.030  -2.128  -5.359  0.00  0.00    -0.042 Br
ATOM      8 BR   UNL     1       5.916  -1.022   0.270  0.00  0.00    -0.043 Br
ENDBRANCH   1   2
BRANCH   1   9
ATOM      9  C   UNL     1       1.339  -3.943  -2.544  0.00  0.00    +0.098 A 
ATOM     10  C   UNL     1       1.132  -4.667  -3.659  0.00  0.00    +0.046 A 
ATOM     11  C   UNL     1       1.123  -6.026  -3.268  0.00  0.00    +0.075 A 
ATOM     12  C   UNL     1       1.326  -6.051  -1.938  0.00  0.00    +0.280 A 
ATOM     13  O   UNL     1       1.461  -4.786  -1.506  0.00  0.00    -0.440 OA
BRANCH  12  14
ATOM     14  N   UNL     1       1.393  -7.266  -1.095  0.00  0.00    +0.093 N 
ATOM     15  O   UNL     1       1.262  -8.358  -1.597  0.00  0.00    -0.123 OA
ATOM     16  O   UNL     1       1.581  -7.166   0.095  0.00  0.00    -0.123 OA
ENDBRANCH  12  14
ENDBRANCH   1   9
BRANCH   1  17
ATOM     17  N   UNL     1       0.738  -1.966  -1.265  0.00  0.00    +0.388 N 
ATOM     18  H   UNL     1       1.226  -2.301  -0.447  0.00  0.00    -0.084 HD
ATOM     19  H   UNL     1      -0.208  -2.316  -1.258  0.00  0.00    -0.084 HD
BRANCH  17  20
ATOM     20  C   UNL     1       0.718  -0.497  -1.257  0.00  0.00    -0.081 C 
BRANCH  20  22
ATOM     21  C   UNL     1      -0.019   1.526   0.010  0.00  0.00    +0.002 C 
ATOM     22  C   UNL     1       0.002  -0.004   0.002  0.00  0.00    -0.022 C 
ENDBRANCH  20  22
ENDBRANCH  17  20
ENDBRANCH   1  17
TORSDOF 6
