REMARK  Name = ZINC02131328
REMARK  11 active torsions:
REMARK  status: ('A' for Active; 'I' for Inactive)
REMARK    1  A    between atoms: C_1  and  C_2
REMARK    2  A    between atoms: C_7  and  C_8
REMARK    3  A    between atoms: C_17  and  C_19
REMARK    4  A    between atoms: C_19  and  C_20
REMARK    5  A    between atoms: N_25  and  C_28
REMARK    6  A    between atoms: C_28  and  C_29
REMARK    7  A    between atoms: C_29  and  C_30
REMARK    8  A    between atoms: C_33  and  O_38
REMARK    9  A    between atoms: C_34  and  O_36
REMARK   10  A    between atoms: O_36  and  C_37
REMARK   11  A    between atoms: O_38  and  C_39
REMARK                            x       y       z     vdW  Elec       q    Type
REMARK                         _______ _______ _______ _____ _____    ______ ____
ROOT
ATOM      1  C   UNL     1      -0.013   1.086   0.008  0.00  0.00    +0.044 C 
ATOM      2  C   UNL     1      -0.718   1.572   1.248  0.00  0.00    -0.046 A 
ATOM      3  C   UNL     1      -2.084   1.788   1.222  0.00  0.00    +0.004 A 
ATOM      4  C   UNL     1      -2.732   2.230   2.362  0.00  0.00    +0.005 A 
ATOM      5  C   UNL     1      -2.017   2.462   3.516  0.00  0.00    -0.027 A 
ATOM      6  C   UNL     1      -0.641   2.254   3.551  0.00  0.00    +0.039 A 
ATOM      7  C   UNL     1       0.003   1.804   2.401  0.00  0.00    -0.026 A 
ATOM      8  C   UNL     1       1.491   1.570   2.416  0.00  0.00    +0.046 C 
ATOM      9  N   UNL     1      -0.140   2.557   4.819  0.00  0.00    -0.286 N 
ATOM     10  C   UNL     1      -1.107   2.965   5.663  0.00  0.00    +0.211 C 
ATOM     11  O   UNL     1      -0.965   3.293   6.822  0.00  0.00    -0.277 OA
ATOM     12  C   UNL     1      -2.397   2.935   4.890  0.00  0.00    +0.050 C 
ATOM     13  C   UNL     1      -3.058   4.317   4.847  0.00  0.00    +0.088 C 
ATOM     14  C   UNL     1      -4.139   4.270   5.963  0.00  0.00    +0.073 C 
ATOM     15  C   UNL     1      -4.003   2.864   6.585  0.00  0.00    -0.049 C 
ATOM     16  C   UNL     1      -3.658   5.302   6.958  0.00  0.00    +0.224 C 
ATOM     17  O   UNL     1      -4.219   5.592   7.993  0.00  0.00    -0.275 OA
ATOM     18  N   UNL     1      -2.517   5.846   6.518  0.00  0.00    -0.241 N 
ATOM     19  C   UNL     1      -2.089   5.365   5.345  0.00  0.00    +0.225 C 
ATOM     20  O   UNL     1      -1.080   5.715   4.771  0.00  0.00    -0.275 OA
ATOM     21  H   UNL     1       0.796   2.482   5.063  0.00  0.00    +0.155 HD
ATOM     22  N   UNL     1      -3.373   2.069   5.529  0.00  0.00    +0.394 N 
ATOM     23  H   UNL     1      -2.908   1.247   5.932  0.00  0.00    -0.083 HD
ATOM     24  H   UNL     1      -4.076   1.764   4.846  0.00  0.00    -0.083 HD
ENDROOT
BRANCH  15  25
ATOM     25  C   UNL     1      -5.380   2.310   6.957  0.00  0.00    +0.080 C 
BRANCH  25  26
ATOM     26  C   UNL     1      -5.216   0.994   7.673  0.00  0.00    +0.209 C 
ATOM     27  O   UNL     1      -4.107   0.543   7.866  0.00  0.00    -0.276 OA
ATOM     28  N   UNL     1      -6.302   0.319   8.098  0.00  0.00    -0.329 N 
ATOM     29  H   UNL     1      -7.189   0.679   7.943  0.00  0.00    +0.145 HD
ATOM     30  H   UNL     1      -6.197  -0.528   8.558  0.00  0.00    +0.145 HD
ENDBRANCH  25  26
ENDBRANCH  15  25
BRANCH  18  31
ATOM     31  C   UNL     1      -1.796   6.882   7.260  0.00  0.00    +0.121 C 
BRANCH  31  32
ATOM     32  C   UNL     1      -2.297   8.261   6.827  0.00  0.00    +0.054 C 
BRANCH  32  33
ATOM     33  C   UNL     1      -1.555   9.328   7.591  0.00  0.00    -0.042 A 
ATOM     34  C   UNL     1      -2.054   9.786   8.796  0.00  0.00    +0.007 A 
ATOM     35  C   UNL     1      -1.374  10.760   9.503  0.00  0.00    +0.049 A 
ATOM     36  C   UNL     1      -0.196  11.288   8.999  0.00  0.00    +0.161 A 
ATOM     37  C   UNL     1       0.303  10.830   7.783  0.00  0.00    +0.162 A 
ATOM     38  C   UNL     1      -0.380   9.850   7.082  0.00  0.00    +0.053 A 
BRANCH  37  39
ATOM     39  O   UNL     1       1.459  11.344   7.284  0.00  0.00    -0.491 OA
ATOM     40  C   UNL     1       1.912  10.827   6.032  0.00  0.00    +0.277 C 
ENDBRANCH  37  39
BRANCH  36  41
ATOM     41  O   UNL     1       0.472  12.249   9.691  0.00  0.00    -0.491 OA
ATOM     42  C   UNL     1      -0.099  12.671  10.931  0.00  0.00    +0.277 C 
ENDBRANCH  36  41
ENDBRANCH  32  33
ENDBRANCH  31  32
ENDBRANCH  18  31
TORSDOF 7
