REMARK  Name = ZINC38791264
REMARK  4 active torsions:
REMARK  status: ('A' for Active; 'I' for Inactive)
REMARK    1  A    between atoms: C_1  and  C_2
REMARK    2  A    between atoms: C_7  and  N_8
REMARK    3  A    between atoms: C_9  and  C_11
REMARK    4  A    between atoms: C_16  and  C_18
REMARK                            x       y       z     vdW  Elec       q    Type
REMARK                         _______ _______ _______ _____ _____    ______ ____
ROOT
ATOM      1  C   UNL     1      -0.161   0.007   4.801  0.00  0.00    +0.051 C 
ATOM      2  H   UNL     1      -0.401   0.234   7.945  0.00  0.00    +0.170 HD
ATOM      3  C   UNL     1      -0.244  -0.535   6.031  0.00  0.00    +0.098 C 
ATOM      4  N   UNL     1      -0.333   0.418   6.995  0.00  0.00    -0.269 N 
ATOM      5  N   UNL     1      -0.314   1.701   6.434  0.00  0.00    -0.228 N 
ATOM      6  C   UNL     1      -0.195   1.510   4.979  0.00  0.00    +0.129 C 
ATOM      7  C   UNL     1       1.099   2.139   4.458  0.00  0.00    +0.035 C 
ATOM      8  C   UNL     1      -0.388   2.915   7.116  0.00  0.00    +0.158 A 
ATOM      9  C   UNL     1      -0.488   2.923   8.521  0.00  0.00    +0.052 A 
ATOM     10  C   UNL     1      -0.559   4.107   9.186  0.00  0.00    +0.075 A 
ATOM     11  C   UNL     1      -0.532   5.312   8.454  0.00  0.00    +0.265 A 
ATOM     12  O   UNL     1      -0.594   6.385   9.033  0.00  0.00    -0.266 OA
ATOM     13  N   UNL     1      -0.435   5.271   7.109  0.00  0.00    -0.241 N 
ATOM     14  H   UNL     1      -0.416   6.097   6.601  0.00  0.00    +0.192 HD
ATOM     15  N   UNL     1      -0.358   4.041   6.446  0.00  0.00    -0.154 NA
ENDROOT
BRANCH   1  17
ATOM     16  N   UNL     1       0.025  -0.015   2.417  0.00  0.00    -0.281 N 
ATOM     17  C   UNL     1      -0.056  -0.694   3.578  0.00  0.00    +0.247 C 
ATOM     18  O   UNL     1      -0.040  -1.912   3.573  0.00  0.00    -0.270 OA
ATOM     19  H   UNL     1       0.076   0.954   2.424  0.00  0.00    +0.155 HD
BRANCH  16  26
ATOM     20  C   UNL     1      -1.266   1.180   0.181  0.00  0.00    +0.046 C 
ATOM     21  C   UNL     1      -0.583  -0.159   0.084  0.00  0.00    -0.028 A 
ATOM     22  C   UNL     1      -0.566  -0.842  -1.117  0.00  0.00    +0.020 A 
ATOM     23  C   UNL     1       0.061  -2.072  -1.206  0.00  0.00    +0.018 A 
ATOM     24  C   UNL     1       0.673  -2.622  -0.093  0.00  0.00    +0.017 A 
ATOM     25  C   UNL     1       0.660  -1.944   1.109  0.00  0.00    +0.024 A 
ATOM     26  C   UNL     1       0.035  -0.706   1.201  0.00  0.00    +0.037 A 
ATOM     27 BR   UNL     1       0.081  -3.003  -2.852  0.00  0.00    -0.050 Br
ENDBRANCH  16  26
ENDBRANCH   1  17
TORSDOF 2
