REMARK  Name = ZINC21370731
REMARK  10 active torsions:
REMARK  status: ('A' for Active; 'I' for Inactive)
REMARK    1  A    between atoms: C_1  and  C_2
REMARK    2  A    between atoms: C_2  and  C_3
REMARK    3  A    between atoms: C_2  and  C_4
REMARK    4  A    between atoms: C_4  and  C_6
REMARK    5  A    between atoms: C_4  and  S_12
REMARK    6  A    between atoms: S_12  and  C_13
REMARK    7  A    between atoms: N_23  and  C_24
REMARK    8  A    between atoms: C_24  and  C_25
REMARK    9  A    between atoms: C_25  and  O_26
REMARK   10  A    between atoms: O_26  and  C_27
REMARK                            x       y       z     vdW  Elec       q    Type
REMARK                         _______ _______ _______ _____ _____    ______ ____
ROOT
ATOM      1  C   UNL     1      -0.025   1.370  -0.090  0.00  0.00    +0.173 A 
ATOM      2  N   UNL     1       1.027   2.108  -0.345  0.00  0.00    -0.223 NA
ATOM      3  C   UNL     1       2.239   1.554  -0.585  0.00  0.00    +0.079 A 
ATOM      4  C   UNL     1       3.362   2.340  -0.857  0.00  0.00    +0.029 A 
ATOM      5  C   UNL     1       4.567   1.743  -1.094  0.00  0.00    +0.017 A 
ATOM      6  C   UNL     1       4.698   0.360  -1.068  0.00  0.00    +0.019 A 
ATOM      7  C   UNL     1       3.609  -0.442  -0.802  0.00  0.00    +0.030 A 
ATOM      8  C   UNL     1       2.369   0.147  -0.558  0.00  0.00    +0.066 A 
ATOM      9  C   UNL     1       1.173  -0.656  -0.269  0.00  0.00    +0.263 A 
ATOM     10  O   UNL     1       1.222  -1.872  -0.232  0.00  0.00    -0.267 OA
ATOM     11  N   UNL     1       0.014   0.006  -0.045  0.00  0.00    -0.285 N 
ATOM     12 BR   UNL     1       6.384  -0.429  -1.400  0.00  0.00    -0.050 Br
ENDROOT
BRANCH   1  13
ATOM     13  S   UNL     1      -1.565   2.176   0.203  0.00  0.00    -0.075 S 
BRANCH  13  14
ATOM     14  C   UNL     1      -1.025   3.904   0.179  0.00  0.00    +0.143 C 
BRANCH  14  15
ATOM     15  C   UNL     1      -0.157   4.175   1.381  0.00  0.00    +0.234 C 
ATOM     16  O   UNL     1      -0.210   3.442   2.345  0.00  0.00    -0.274 OA
ATOM     17  N   UNL     1       0.678   5.233   1.384  0.00  0.00    -0.239 N 
ATOM     18  C   UNL     1       1.454   5.476   2.459  0.00  0.00    +0.303 C 
ATOM     19  O   UNL     1       1.401   4.741   3.425  0.00  0.00    -0.253 OA
ATOM     20  N   UNL     1       2.289   6.534   2.462  0.00  0.00    -0.313 N 
ATOM     21  H   UNL     1       0.726   5.898   0.509  0.00  0.00    +0.159 HD
ATOM     22  H   UNL     1       2.922   6.732   3.339  0.00  0.00    +0.146 HD
ATOM     23  H   UNL     1       2.337   7.199   1.587  0.00  0.00    +0.146 HD
ENDBRANCH  14  15
BRANCH  14  25
ATOM     24  C   UNL     1      -1.792   6.281   0.232  0.00  0.00    +0.009 C 
ATOM     25  C   UNL     1      -2.249   4.821   0.216  0.00  0.00    +0.005 C 
ATOM     26  C   UNL     1      -3.112   4.570  -1.022  0.00  0.00    +0.009 C 
ENDBRANCH  14  25
ENDBRANCH  13  14
ENDBRANCH   1  13
BRANCH  11  27
ATOM     27  C   UNL     1      -1.208  -0.747   0.248  0.00  0.00    +0.155 C 
BRANCH  27  28
ATOM     28  C   UNL     1      -1.938  -1.064  -1.058  0.00  0.00    +0.181 C 
BRANCH  28  29
ATOM     29  O   UNL     1      -1.135  -1.941  -1.852  0.00  0.00    -0.381 OA
ATOM     30  C   UNL     1      -1.728  -2.301  -3.101  0.00  0.00    +0.194 C 
ENDBRANCH  28  29
ENDBRANCH  27  28
ENDBRANCH  11  27
TORSDOF 7
