REMARK  Name = ZINC40645913
REMARK  8 active torsions:
REMARK  status: ('A' for Active; 'I' for Inactive)
REMARK    1  A    between atoms: C_4  and  C_7
REMARK    2  A    between atoms: C_7  and  C_8
REMARK    3  A    between atoms: N_10  and  N_11
REMARK    4  A    between atoms: C_13  and  N_33
REMARK    5  A    between atoms: C_14  and  N_18
REMARK    6  A    between atoms: N_18  and  C_19
REMARK    7  A    between atoms: C_22  and  N_25
REMARK    8  A    between atoms: N_26  and  C_27
REMARK                            x       y       z     vdW  Elec       q    Type
REMARK                         _______ _______ _______ _____ _____    ______ ____
ROOT
ATOM      1  N   UNL     1       5.935  -1.564   2.906  0.00  0.00    -0.246 N 
ATOM      2  C   UNL     1       7.006  -2.408   3.154  0.00  0.00    +0.171 A 
ATOM      3  C   UNL     1       7.463  -2.605   4.454  0.00  0.00    +0.207 A 
ATOM      4  C   UNL     1       8.541  -3.462   4.651  0.00  0.00    +0.159 A 
ATOM      5  N   UNL     1       9.093  -4.059   3.596  0.00  0.00    -0.218 NA
ATOM      6  C   UNL     1       8.632  -3.846   2.381  0.00  0.00    +0.225 A 
ATOM      7  N   UNL     1       7.610  -3.046   2.154  0.00  0.00    -0.217 NA
ATOM      8  H   UNL     1       5.500  -1.103   3.640  0.00  0.00    +0.172 HD
ENDROOT
BRANCH   1  11
ATOM      9  C   UNL     1       4.438  -0.557   1.352  0.00  0.00    +0.233 C 
ATOM     10  O   UNL     1       3.895   0.019   2.270  0.00  0.00    -0.274 OA
ATOM     11  N   UNL     1       5.480  -1.377   1.594  0.00  0.00    -0.235 N 
ATOM     12  H   UNL     1       5.915  -1.838   0.860  0.00  0.00    +0.173 HD
BRANCH   9  13
ATOM     13  C   UNL     1       3.949  -0.356  -0.059  0.00  0.00    +0.132 C 
BRANCH  13  17
ATOM     14  C   UNL     1       0.647   2.354  -0.052  0.00  0.00    +0.000 A 
ATOM     15  C   UNL     1       1.937   2.836  -0.182  0.00  0.00    +0.000 A 
ATOM     16  C   UNL     1       3.005   1.959  -0.185  0.00  0.00    +0.004 A 
ATOM     17  C   UNL     1       2.784   0.600  -0.056  0.00  0.00    -0.039 A 
ATOM     18  C   UNL     1       1.495   0.119   0.076  0.00  0.00    +0.004 A 
ATOM     19  C   UNL     1       0.427   0.996   0.077  0.00  0.00    +0.000 A 
ENDBRANCH  13  17
ENDBRANCH   9  13
ENDBRANCH   1  11
BRANCH   3  20
ATOM     20  N   UNL     1       6.818  -1.921   5.598  0.00  0.00    +0.063 N 
ATOM     21  O   UNL     1       5.894  -2.446   6.174  0.00  0.00    -0.126 OA
ATOM     22  O   UNL     1       7.215  -0.836   5.955  0.00  0.00    -0.126 OA
ENDBRANCH   3  20
BRANCH   4  23
ATOM     23  N   UNL     1       9.034  -3.692   5.928  0.00  0.00    -0.297 N 
ATOM     24  H   UNL     1       8.576  -3.320   6.698  0.00  0.00    +0.154 HD
BRANCH  23  25
ATOM     25  C   UNL     1      10.185  -4.457   6.103  0.00  0.00    +0.033 A 
ATOM     26  C   UNL     1      10.285  -5.323   7.188  0.00  0.00    +0.025 A 
ATOM     27  C   UNL     1      11.421  -6.080   7.364  0.00  0.00    +0.031 A 
ATOM     28  C   UNL     1      12.476  -5.979   6.451  0.00  0.00    +0.086 A 
ATOM     29  C   UNL     1      12.372  -5.107   5.361  0.00  0.00    +0.031 A 
ATOM     30  C   UNL     1      11.231  -4.357   5.189  0.00  0.00    +0.025 A 
BRANCH  28  31
ATOM     31  N   UNL     1      13.604  -6.728   6.622  0.00  0.00    -0.149 NA
ATOM     32  N   UNL     1      14.575  -6.633   5.779  0.00  0.00    -0.149 NA
BRANCH  32  33
ATOM     33  C   UNL     1      15.705  -7.383   5.951  0.00  0.00    +0.086 A 
ATOM     34  C   UNL     1      15.809  -8.258   7.035  0.00  0.00    +0.029 A 
ATOM     35  C   UNL     1      16.951  -9.012   7.202  0.00  0.00    +0.002 A 
ATOM     36  C   UNL     1      17.994  -8.903   6.299  0.00  0.00    +0.000 A 
ATOM     37  C   UNL     1      17.899  -8.039   5.223  0.00  0.00    +0.002 A 
ATOM     38  C   UNL     1      16.760  -7.283   5.040  0.00  0.00    +0.029 A 
ENDBRANCH  32  33
ENDBRANCH  28  31
ENDBRANCH  23  25
ENDBRANCH   4  23
TORSDOF 8
