REMARK  Name = ZINC12849373
REMARK  12 active torsions:
REMARK  status: ('A' for Active; 'I' for Inactive)
REMARK    1  A    between atoms: C_1  and  C_2
REMARK    2  A    between atoms: C_2  and  C_3
REMARK    3  A    between atoms: C_5  and  C_36
REMARK    4  A    between atoms: C_6  and  C_11
REMARK    5  A    between atoms: C_11  and  O_12
REMARK    6  A    between atoms: O_12  and  C_13
REMARK    7  A    between atoms: C_13  and  C_15
REMARK    8  A    between atoms: C_28  and  C_29
REMARK    9  A    between atoms: C_32  and  O_35
REMARK   10  A    between atoms: C_36  and  O_38
REMARK   11  A    between atoms: O_38  and  C_39
REMARK   12  A    between atoms: C_39  and  C_40
REMARK                            x       y       z     vdW  Elec       q    Type
REMARK                         _______ _______ _______ _____ _____    ______ ____
ROOT
ATOM      1  C   UNL     1      -0.582   5.837  -2.489  0.00  0.00    +0.073 A 
ATOM      2  C   UNL     1      -2.020   6.071  -2.355  0.00  0.00    +0.015 A 
ATOM      3  C   UNL     1      -2.712   5.734  -1.187  0.00  0.00    +0.011 A 
ATOM      4  C   UNL     1      -4.051   5.975  -1.104  0.00  0.00    +0.001 A 
ATOM      5  C   UNL     1      -4.738   6.558  -2.166  0.00  0.00    +0.002 A 
ATOM      6  C   UNL     1      -4.095   6.904  -3.314  0.00  0.00    +0.028 A 
ATOM      7  C   UNL     1      -2.712   6.670  -3.438  0.00  0.00    +0.072 A 
ATOM      8  N   UNL     1      -2.055   6.998  -4.548  0.00  0.00    -0.247 NA
ATOM      9  C   UNL     1      -0.751   6.794  -4.703  0.00  0.00    +0.072 A 
ATOM     10  C   UNL     1       0.019   6.211  -3.683  0.00  0.00    -0.007 A 
ATOM     11  C   UNL     1       1.457   6.101  -4.128  0.00  0.00    +0.043 C 
ATOM     12  C   UNL     1       1.513   6.681  -5.548  0.00  0.00    +0.042 C 
ATOM     13  C   UNL     1       0.101   7.104  -5.867  0.00  0.00    -0.021 C 
ATOM     14  C   UNL     1      -0.311   7.667  -7.017  0.00  0.00    +0.013 C 
ENDROOT
BRANCH  14  15
ATOM     15  C   UNL     1       0.622   7.797  -8.149  0.00  0.00    -0.024 A 
ATOM     16  C   UNL     1       0.154   8.215  -9.399  0.00  0.00    +0.011 A 
ATOM     17  C   UNL     1       1.032   8.340 -10.453  0.00  0.00    +0.046 A 
ATOM     18  C   UNL     1       2.377   8.040 -10.280  0.00  0.00    +0.117 A 
ATOM     19  C   UNL     1       2.846   7.619  -9.041  0.00  0.00    +0.046 A 
ATOM     20  C   UNL     1       1.977   7.497  -7.979  0.00  0.00    +0.011 A 
BRANCH  18  21
ATOM     21  O   UNL     1       3.238   8.160 -11.324  0.00  0.00    -0.507 OA
ATOM     22  H   UNL     1       3.330   7.355 -11.852  0.00  0.00    +0.292 HD
ENDBRANCH  18  21
ENDBRANCH  14  15
BRANCH   1  23
ATOM     23  C   UNL     1       0.200   5.221  -1.397  0.00  0.00    +0.341 C 
ATOM     24  O   UNL     1       0.718   5.922  -0.551  0.00  0.00    -0.245 OA
BRANCH  23  25
ATOM     25  O   UNL     1       0.338   3.882  -1.341  0.00  0.00    -0.455 OA
BRANCH  25  26
ATOM     26  C   UNL     1       1.120   3.346  -0.240  0.00  0.00    +0.283 C 
BRANCH  26  29
ATOM     27  C   UNL     1       1.783  -0.379   0.497  0.00  0.00    +0.113 C 
ATOM     28  C   UNL     1       1.760   1.129   0.638  0.00  0.00    +0.077 C 
ATOM     29  C   UNL     1       1.165   1.843  -0.341  0.00  0.00    +0.061 C 
ATOM     30  N   UNL     1       0.603   1.226  -1.422  0.00  0.00    -0.269 N 
ATOM     31  C   UNL     1       0.595  -0.102  -1.597  0.00  0.00    +0.304 C 
ATOM     32  O   UNL     1       0.070  -0.560  -2.593  0.00  0.00    -0.252 OA
ATOM     33  N   UNL     1       1.149  -0.946  -0.705  0.00  0.00    -0.292 N 
ATOM     34  H   UNL     1       0.190   1.780  -2.102  0.00  0.00    +0.156 HD
ATOM     35  H   UNL     1       1.133  -1.905  -0.852  0.00  0.00    +0.151 HD
BRANCH  27  37
ATOM     36  C   UNL     1       3.305  -2.352   0.686  0.00  0.00    +0.006 C 
ATOM     37  C   UNL     1       3.244  -0.832   0.519  0.00  0.00    +0.024 C 
ENDBRANCH  27  37
BRANCH  28  38
ATOM     38  C   UNL     1       2.342   1.768   1.758  0.00  0.00    +0.339 C 
ATOM     39  O   UNL     1       2.410   2.982   1.799  0.00  0.00    -0.245 OA
BRANCH  38  40
ATOM     40  O   UNL     1       2.822   1.031   2.781  0.00  0.00    -0.462 OA
BRANCH  40  41
ATOM     41  C   UNL     1       3.397   1.742   3.880  0.00  0.00    +0.229 C 
ATOM     42  C   UNL     1       3.883   0.745   4.934  0.00  0.00    +0.048 C 
ENDBRANCH  40  41
ENDBRANCH  38  40
ENDBRANCH  28  38
ENDBRANCH  26  29
ENDBRANCH  25  26
ENDBRANCH  23  25
ENDBRANCH   1  23
TORSDOF 10
