REMARK  Name = ZINC64869145
REMARK  6 active torsions:
REMARK  status: ('A' for Active; 'I' for Inactive)
REMARK    1  A    between atoms: C_1  and  C_2
REMARK    2  A    between atoms: C_5  and  C_27
REMARK    3  A    between atoms: C_6  and  C_8
REMARK    4  A    between atoms: C_8  and  N_9
REMARK    5  A    between atoms: C_12  and  C_26
REMARK    6  A    between atoms: C_13  and  C_25
REMARK                            x       y       z     vdW  Elec       q    Type
REMARK                         _______ _______ _______ _____ _____    ______ ____
ROOT
ATOM      1  N   UNL     1       1.474  -2.810   3.059  0.00  0.00    -0.262 N 
ATOM      2  C   UNL     1       2.097  -2.025   4.043  0.00  0.00    +0.058 A 
ATOM      3  C   UNL     1       1.260  -1.037   4.529  0.00  0.00    +0.029 A 
ATOM      4  C   UNL     1       1.715  -0.169   5.508  0.00  0.00    -0.046 A 
ATOM      5  C   UNL     1       3.001  -0.288   5.998  0.00  0.00    -0.046 A 
ATOM      6  C   UNL     1       3.843  -1.276   5.517  0.00  0.00    +0.028 A 
ATOM      7  C   UNL     1       3.395  -2.148   4.539  0.00  0.00    +0.053 A 
ATOM      8  N   UNL     1       4.377  -3.079   4.176  0.00  0.00    -0.316 N 
ATOM      9  C   UNL     1       4.309  -4.095   3.253  0.00  0.00    +0.016 C 
ATOM     10  C   UNL     1       5.490  -5.011   3.005  0.00  0.00    +0.051 C 
ATOM     11  C   UNL     1       4.900  -6.236   2.274  0.00  0.00    +0.011 C 
ATOM     12  C   UNL     1       3.650  -5.630   1.600  0.00  0.00    +0.042 C 
ATOM     13  C   UNL     1       3.273  -4.444   2.463  0.00  0.00    +0.032 C 
ATOM     14  H   UNL     1       5.225  -2.994   4.640  0.00  0.00    +0.152 HD
ATOM     15  C   UNL     1       1.984  -3.856   2.383  0.00  0.00    +0.249 C 
ATOM     16  O   UNL     1       1.229  -4.371   1.579  0.00  0.00    -0.270 OA
ATOM     17  C   UNL     1       3.490   0.661   7.062  0.00  0.00    +0.044 C 
ATOM     18  C   UNL     1       0.805   0.909   6.038  0.00  0.00    +0.044 C 
ENDROOT
BRANCH   1  19
ATOM     19  C   UNL     1       0.092  -2.448   2.731  0.00  0.00    +0.149 C 
BRANCH  19  25
ATOM     20  C   UNL     1      -0.673  -5.472   6.645  0.00  0.00    +0.044 C 
ATOM     21  C   UNL     1      -1.208  -4.518   5.608  0.00  0.00    -0.050 A 
ATOM     22  C   UNL     1      -2.557  -4.213   5.579  0.00  0.00    +0.003 A 
ATOM     23  C   UNL     1      -3.048  -3.338   4.629  0.00  0.00    +0.004 A 
ATOM     24  C   UNL     1      -2.190  -2.767   3.707  0.00  0.00    -0.046 A 
ATOM     25  C   UNL     1      -0.842  -3.071   3.736  0.00  0.00    -0.027 A 
ATOM     26  C   UNL     1      -0.350  -3.942   4.690  0.00  0.00    +0.008 A 
ATOM     27  C   UNL     1      -2.726  -1.814   2.670  0.00  0.00    +0.044 C 
ENDBRANCH  19  25
ENDBRANCH   1  19
TORSDOF 2
