REMARK  Name = ZINC18070554
REMARK  17 active torsions:
REMARK  status: ('A' for Active; 'I' for Inactive)
REMARK    1  A    between atoms: C_1  and  C_2
REMARK    2  A    between atoms: C_2  and  O_3
REMARK    3  A    between atoms: O_3  and  C_4
REMARK    4  A    between atoms: C_7  and  O_10
REMARK    5  A    between atoms: O_10  and  C_11
REMARK    6  A    between atoms: C_11  and  C_13
REMARK    7  A    between atoms: C_11  and  C_14
REMARK    8  A    between atoms: N_16  and  N_17
REMARK    9  A    between atoms: C_18  and  C_20
REMARK   10  A    between atoms: C_20  and  C_22
REMARK   11  A    between atoms: C_20  and  N_26
REMARK   12  A    between atoms: C_22  and  C_23
REMARK   13  A    between atoms: C_23  and  C_24
REMARK   14  A    between atoms: C_23  and  C_25
REMARK   15  A    between atoms: N_26  and  S_27
REMARK   16  A    between atoms: S_27  and  C_30
REMARK   17  A    between atoms: C_33  and  C_36
REMARK                            x       y       z     vdW  Elec       q    Type
REMARK                         _______ _______ _______ _____ _____    ______ ____
ROOT
ATOM      1  N   UNL     1       1.230   1.146   3.529  0.00  0.00    -0.233 N 
ATOM      2  C   UNL     1       0.770   0.710   4.718  0.00  0.00    +0.248 C 
ATOM      3  O   UNL     1      -0.424   0.623   4.912  0.00  0.00    -0.273 OA
ATOM      4  H   UNL     1       2.185   1.216   3.374  0.00  0.00    +0.173 HD
ENDROOT
BRANCH   1   7
ATOM      5  C   UNL     1       0.789   1.936   1.327  0.00  0.00    +0.270 C 
ATOM      6  O   UNL     1       1.984   2.023   1.134  0.00  0.00    -0.270 OA
ATOM      7  N   UNL     1       0.329   1.500   2.516  0.00  0.00    -0.231 N 
ATOM      8  H   UNL     1      -0.626   1.430   2.671  0.00  0.00    +0.173 HD
BRANCH   5   9
ATOM      9  C   UNL     1      -0.180   2.316   0.238  0.00  0.00    +0.257 C 
ATOM     10  C   UNL     1      -0.992   3.535   0.680  0.00  0.00    +0.062 C 
BRANCH   9  11
ATOM     11  O   UNL     1       0.543   2.632  -0.954  0.00  0.00    -0.480 OA
BRANCH  11  15
ATOM     12  C   UNL     1      -1.444   2.138  -4.538  0.00  0.00    +0.121 A 
ATOM     13  C   UNL     1      -2.119   1.957  -3.340  0.00  0.00    +0.049 A 
ATOM     14  C   UNL     1      -1.455   2.123  -2.141  0.00  0.00    +0.049 A 
ATOM     15  C   UNL     1      -0.112   2.469  -2.135  0.00  0.00    +0.122 A 
ATOM     16  C   UNL     1       0.562   2.656  -3.333  0.00  0.00    +0.049 A 
ATOM     17  C   UNL     1      -0.102   2.486  -4.532  0.00  0.00    +0.049 A 
BRANCH  12  18
ATOM     18  O   UNL     1      -2.099   1.974  -5.719  0.00  0.00    -0.492 OA
BRANCH  18  20
ATOM     19  C   UNL     1      -2.240   1.949  -8.131  0.00  0.00    +0.048 C 
ATOM     20  C   UNL     1      -1.342   2.176  -6.914  0.00  0.00    +0.225 C 
ENDBRANCH  18  20
ENDBRANCH  12  18
ENDBRANCH  11  15
ENDBRANCH   9  11
ENDBRANCH   5   9
ENDBRANCH   1   7
BRANCH   2  21
ATOM     21  C   UNL     1       1.740   0.330   5.808  0.00  0.00    +0.164 C 
BRANCH  21  22
ATOM     22  N   UNL     1       0.996  -0.109   6.992  0.00  0.00    -0.178 NA
ATOM     23  H   UNL     1       0.683   0.544   7.637  0.00  0.00    +0.149 HD
BRANCH  22  24
ATOM     24  S   UNL     1       0.690  -1.719   7.228  0.00  0.00    +0.059 S 
ATOM     25  O   UNL     1       0.034  -1.828   8.483  0.00  0.00    -0.153 OA
ATOM     26  O   UNL     1       0.115  -2.204   6.022  0.00  0.00    -0.153 OA
BRANCH  24  27
ATOM     27  C   UNL     1       2.247  -2.526   7.402  0.00  0.00    +0.105 A 
ATOM     28  C   UNL     1       2.910  -2.997   6.284  0.00  0.00    +0.029 A 
ATOM     29  C   UNL     1       4.134  -3.626   6.421  0.00  0.00    +0.005 A 
ATOM     30  C   UNL     1       4.690  -3.791   7.676  0.00  0.00    -0.050 A 
ATOM     31  C   UNL     1       4.025  -3.324   8.793  0.00  0.00    +0.005 A 
ATOM     32  C   UNL     1       2.803  -2.691   8.657  0.00  0.00    +0.029 A 
ATOM     33  C   UNL     1       6.022  -4.480   7.825  0.00  0.00    +0.044 C 
ENDBRANCH  24  27
ENDBRANCH  22  24
ENDBRANCH  21  22
BRANCH  21  34
ATOM     34  C   UNL     1       2.603   1.540   6.168  0.00  0.00    +0.033 C 
BRANCH  34  35
ATOM     35  C   UNL     1       3.671   1.122   7.180  0.00  0.00    -0.015 C 
ATOM     36  C   UNL     1       4.639   0.136   6.522  0.00  0.00    +0.007 C 
ATOM     37  C   UNL     1       4.442   2.358   7.647  0.00  0.00    +0.007 C 
ENDBRANCH  34  35
ENDBRANCH  21  34
ENDBRANCH   2  21
TORSDOF 12
