REMARK  Name = ZINC19807828
REMARK  6 active torsions:
REMARK  status: ('A' for Active; 'I' for Inactive)
REMARK    1  A    between atoms: C_1  and  C_2
REMARK    2  A    between atoms: C_2  and  C_10
REMARK    3  A    between atoms: C_3  and  C_4
REMARK    4  A    between atoms: N_11  and  N_12
REMARK    5  A    between atoms: C_13  and  C_15
REMARK    6  A    between atoms: C_17  and  C_21
REMARK                            x       y       z     vdW  Elec       q    Type
REMARK                         _______ _______ _______ _____ _____    ______ ____
ROOT
ATOM      1  N   UNL     1      -0.017   1.168  -0.145  0.00  0.00    -0.202 N 
ATOM      2  C   UNL     1       1.103   1.918  -0.103  0.00  0.00    +0.281 C 
ATOM      3  O   UNL     1       1.027   3.113   0.111  0.00  0.00    -0.267 OA
ATOM      4  H   UNL     1       0.052   0.087  -0.334  0.00  0.00    +0.178 HD
ENDROOT
BRANCH   2   5
ATOM      5  C   UNL     1       2.416   1.290  -0.315  0.00  0.00    +0.122 A 
ATOM      6  C   UNL     1       3.646   1.922  -0.308  0.00  0.00    +0.062 A 
ATOM      7  C   UNL     1       4.587   0.905  -0.553  0.00  0.00    +0.095 A 
ATOM      8  N   UNL     1       3.924  -0.223  -0.698  0.00  0.00    -0.173 NA
ATOM      9  N   UNL     1       2.662  -0.031  -0.565  0.00  0.00    -0.272 N 
ATOM     10  H   UNL     1       1.826  -0.744  -0.623  0.00  0.00    +0.189 HD
BRANCH   7  11
ATOM     11  C   UNL     1       6.059   1.075  -0.640  0.00  0.00    +0.020 A 
ATOM     12  C   UNL     1       6.620   2.349  -0.582  0.00  0.00    +0.011 A 
ATOM     13  C   UNL     1       7.990   2.501  -0.663  0.00  0.00    +0.001 A 
ATOM     14  C   UNL     1       8.805   1.392  -0.802  0.00  0.00    +0.001 A 
ATOM     15  C   UNL     1       8.254   0.125  -0.861  0.00  0.00    +0.020 A 
ATOM     16  C   UNL     1       6.885  -0.040  -0.775  0.00  0.00    +0.050 A 
ATOM     17 CL   UNL     1       6.195  -1.631  -0.841  0.00  0.00    -0.083 Cl
ENDBRANCH   7  11
ENDBRANCH   2   5
BRANCH   1  19
ATOM     18  C   UNL     1      -2.350   1.043   0.005  0.00  0.00    +0.133 C 
ATOM     19  N   UNL     1      -1.268   1.766   0.052  0.00  0.00    -0.188 NA
BRANCH  18  21
ATOM     20  C   UNL     1      -3.711   3.129   0.469  0.00  0.00    +0.045 C 
ATOM     21  C   UNL     1      -3.617   1.649   0.204  0.00  0.00    -0.030 C 
ATOM     22  C   UNL     1      -4.738   0.899   0.157  0.00  0.00    +0.012 C 
BRANCH  22  23
ATOM     23  C   UNL     1      -6.059   1.547   0.208  0.00  0.00    -0.025 A 
ATOM     24  C   UNL     1      -7.136   0.898   0.819  0.00  0.00    +0.008 A 
ATOM     25  C   UNL     1      -8.369   1.514   0.868  0.00  0.00    +0.001 A 
ATOM     26  C   UNL     1      -8.544   2.766   0.305  0.00  0.00    +0.000 A 
ATOM     27  C   UNL     1      -7.484   3.412  -0.306  0.00  0.00    +0.001 A 
ATOM     28  C   UNL     1      -6.244   2.812  -0.359  0.00  0.00    +0.008 A 
ENDBRANCH  22  23
ENDBRANCH  18  21
ENDBRANCH   1  19
TORSDOF 5
