REMARK  Name = ZINC00695956
REMARK  9 active torsions:
REMARK  status: ('A' for Active; 'I' for Inactive)
REMARK    1  A    between atoms: C_1  and  C_2
REMARK    2  A    between atoms: C_5  and  C_8
REMARK    3  A    between atoms: C_10  and  C_33
REMARK    4  A    between atoms: C_11  and  N_32
REMARK    5  A    between atoms: N_12  and  C_22
REMARK    6  A    between atoms: C_18  and  C_20
REMARK    7  A    between atoms: C_18  and  C_21
REMARK    8  A    between atoms: C_25  and  S_28
REMARK    9  A    between atoms: S_28  and  N_31
REMARK                            x       y       z     vdW  Elec       q    Type
REMARK                         _______ _______ _______ _____ _____    ______ ____
ROOT
ATOM      1  C   UNL     1       2.550   1.016  -0.394  0.00  0.00    +0.097 C 
ATOM      2  C   UNL     1       3.725   1.116  -1.322  0.00  0.00    +0.077 C 
ATOM      3  C   UNL     1       4.718   2.016  -1.103  0.00  0.00    +0.107 C 
ATOM      4  N   UNL     1       4.663   2.852  -0.011  0.00  0.00    -0.260 N 
ATOM      5  C   UNL     1       3.867   2.545   1.061  0.00  0.00    +0.025 C 
ATOM      6  C   UNL     1       2.845   1.674   0.930  0.00  0.00    +0.025 C 
ATOM      7  C   UNL     1       2.022   1.356   2.025  0.00  0.00    +0.162 C 
ATOM      8  O   UNL     1       1.119   0.556   1.879  0.00  0.00    -0.292 OA
ATOM      9  C   UNL     1       2.240   1.986   3.373  0.00  0.00    +0.086 C 
ATOM     10  C   UNL     1       2.873   3.368   3.181  0.00  0.00    -0.023 C 
ATOM     11  C   UNL     1       4.166   3.200   2.387  0.00  0.00    +0.058 C 
ATOM     12  C   UNL     1       1.909   4.272   2.410  0.00  0.00    +0.011 C 
ATOM     13  C   UNL     1       3.179   3.988   4.546  0.00  0.00    +0.011 C 
ENDROOT
BRANCH   1  18
ATOM     14  C   UNL     1      -2.007   3.607  -2.824  0.00  0.00    +0.044 C 
ATOM     15  C   UNL     1      -0.819   2.932  -2.190  0.00  0.00    -0.050 A 
ATOM     16  C   UNL     1      -0.872   1.585  -1.883  0.00  0.00    +0.003 A 
ATOM     17  C   UNL     1       0.216   0.966  -1.297  0.00  0.00    +0.005 A 
ATOM     18  C   UNL     1       1.361   1.692  -1.027  0.00  0.00    -0.035 A 
ATOM     19  C   UNL     1       1.416   3.038  -1.338  0.00  0.00    +0.005 A 
ATOM     20  C   UNL     1       0.326   3.658  -1.919  0.00  0.00    +0.003 A 
ENDBRANCH   1  18
BRANCH   4  21
ATOM     21  C   UNL     1       5.428   4.024   0.005  0.00  0.00    +0.040 A 
ATOM     22  C   UNL     1       4.893   5.210  -0.481  0.00  0.00    +0.026 A 
ATOM     23  C   UNL     1       5.648   6.367  -0.460  0.00  0.00    +0.030 A 
ATOM     24  C   UNL     1       6.939   6.342   0.036  0.00  0.00    +0.105 A 
ATOM     25  C   UNL     1       7.476   5.162   0.516  0.00  0.00    +0.030 A 
ATOM     26  C   UNL     1       6.724   4.003   0.502  0.00  0.00    +0.026 A 
BRANCH  24  27
ATOM     27  S   UNL     1       7.901   7.818   0.055  0.00  0.00    +0.056 S 
ATOM     28  O   UNL     1       6.982   8.902   0.056  0.00  0.00    -0.153 OA
ATOM     29  O   UNL     1       8.882   7.650   1.070  0.00  0.00    -0.153 OA
BRANCH  27  30
ATOM     30  N   UNL     1       8.717   7.890  -1.384  0.00  0.00    -0.204 NA
ATOM     31  H   UNL     1       8.940   8.750  -1.773  0.00  0.00    +0.144 HD
ATOM     32  H   UNL     1       8.971   7.071  -1.839  0.00  0.00    +0.144 HD
ENDBRANCH  27  30
ENDBRANCH  24  27
ENDBRANCH   4  21
BRANCH   3  33
ATOM     33  N   UNL     1       5.779   2.092  -1.974  0.00  0.00    -0.345 N 
ATOM     34  H   UNL     1       5.861   1.450  -2.696  0.00  0.00    +0.144 HD
ATOM     35  H   UNL     1       6.445   2.788  -1.866  0.00  0.00    +0.144 HD
ENDBRANCH   3  33
BRANCH   2  36
ATOM     36  C   UNL     1       3.800   0.247  -2.458  0.00  0.00    +0.099 C 
ATOM     37  N   UNL     1       3.860  -0.443  -3.359  0.00  0.00    -0.191 NA
ENDBRANCH   2  36
TORSDOF 6
