REMARK  Name = ZINC61690051
REMARK  8 active torsions:
REMARK  status: ('A' for Active; 'I' for Inactive)
REMARK    1  A    between atoms: C_1  and  C_2
REMARK    2  A    between atoms: C_2  and  N_3
REMARK    3  A    between atoms: C_4  and  C_6
REMARK    4  A    between atoms: C_6  and  N_7
REMARK    5  A    between atoms: N_7  and  C_8
REMARK    6  A    between atoms: C_8  and  C_9
REMARK    7  A    between atoms: C_8  and  C_10
REMARK    8  A    between atoms: C_8  and  C_18
REMARK                            x       y       z     vdW  Elec       q    Type
REMARK                         _______ _______ _______ _____ _____    ______ ____
ROOT
ATOM      1  C   UNL     1       2.414  -4.267   3.731  0.00  0.00    +0.059 C 
ATOM      2  C   UNL     1       3.832  -3.694   3.692  0.00  0.00    +0.007 C 
ENDROOT
BRANCH   1   3
ATOM      3  C   UNL     1       2.476  -5.769   3.622  0.00  0.00    -0.047 A 
ATOM      4  C   UNL     1       1.855  -6.411   2.567  0.00  0.00    +0.005 A 
ATOM      5  C   UNL     1       1.911  -7.788   2.465  0.00  0.00    +0.040 A 
ATOM      6  C   UNL     1       2.590  -8.525   3.421  0.00  0.00    +0.137 A 
ATOM      7  C   UNL     1       3.213  -7.881   4.477  0.00  0.00    +0.053 A 
ATOM      8  C   UNL     1       3.159  -6.502   4.574  0.00  0.00    +0.021 A 
ATOM      9 BR   UNL     1       4.141  -8.885   5.783  0.00  0.00    -0.047 Br
ATOM     10  F   UNL     1       2.646  -9.871   3.322  0.00  0.00    -0.204 F 
ENDBRANCH   1   3
BRANCH   1  11
ATOM     11  N   UNL     1       1.637  -3.726   2.608  0.00  0.00    +0.398 N 
ATOM     12  H   UNL     1       0.679  -4.032   2.683  0.00  0.00    -0.083 HD
ATOM     13  H   UNL     1       2.028  -4.056   1.738  0.00  0.00    -0.083 HD
BRANCH  11  14
ATOM     14  C   UNL     1       1.686  -2.258   2.640  0.00  0.00    +0.017 C 
BRANCH  14  16
ATOM     15  N   UNL     1       0.857  -0.372   1.272  0.00  0.00    -0.317 N 
ATOM     16  C   UNL     1       0.945  -1.705   1.450  0.00  0.00    +0.196 C 
ATOM     17  O   UNL     1       0.427  -2.458   0.654  0.00  0.00    -0.278 OA
ATOM     18  H   UNL     1       1.272   0.231   1.908  0.00  0.00    +0.149 HD
BRANCH  15  20
ATOM     19  C   UNL     1       0.188   1.695   0.149  0.00  0.00    +0.024 C 
ATOM     20  C   UNL     1       0.137   0.167   0.115  0.00  0.00    +0.101 C 
ENDBRANCH  15  20
ENDBRANCH  14  16
ENDBRANCH  11  14
ENDBRANCH   1  11
BRANCH   1  21
ATOM     21  C   UNL     1       1.753  -3.884   5.030  0.00  0.00    +0.349 C 
ATOM     22  O   UNL     1       0.659  -3.346   5.021  0.00  0.00    -0.248 OA
ATOM     23  O   UNL     1       2.312  -4.113   6.089  0.00  0.00    -0.248 OA
ENDBRANCH   1  21
TORSDOF 6
