REMARK  Name = ZINC16737960
REMARK  14 active torsions:
REMARK  status: ('A' for Active; 'I' for Inactive)
REMARK    1  A    between atoms: C_1  and  C_2
REMARK    2  A    between atoms: C_2  and  C_3
REMARK    3  A    between atoms: C_2  and  N_4
REMARK    4  A    between atoms: C_5  and  C_7
REMARK    5  A    between atoms: C_7  and  N_8
REMARK    6  A    between atoms: N_8  and  C_9
REMARK    7  A    between atoms: N_8  and  C_10
REMARK    8  A    between atoms: C_13  and  S_19
REMARK    9  A    between atoms: C_15  and  N_16
REMARK   10  A    between atoms: S_19  and  N_22
REMARK   11  A    between atoms: N_22  and  C_23
REMARK   12  A    between atoms: C_23  and  C_24
REMARK   13  A    between atoms: C_23  and  C_25
REMARK   14  A    between atoms: C_23  and  C_26
REMARK                            x       y       z     vdW  Elec       q    Type
REMARK                         _______ _______ _______ _____ _____    ______ ____
ROOT
ATOM      1  C   UNL     1      -1.024   4.624  -2.766  0.00  0.00    +0.061 A 
ATOM      2  C   UNL     1      -0.012   4.848  -1.841  0.00  0.00    +0.027 A 
ATOM      3  C   UNL     1       0.110   4.024  -0.740  0.00  0.00    +0.030 A 
ATOM      4  C   UNL     1      -0.767   2.970  -0.563  0.00  0.00    +0.108 A 
ATOM      5  C   UNL     1      -1.776   2.744  -1.481  0.00  0.00    +0.063 A 
ATOM      6  C   UNL     1      -1.907   3.567  -2.582  0.00  0.00    +0.149 A 
ENDROOT
BRANCH   6   7
ATOM      7  N   UNL     1      -2.987   3.324  -3.565  0.00  0.00    +0.058 N 
ATOM      8  O   UNL     1      -3.760   2.397  -3.403  0.00  0.00    -0.126 OA
ATOM      9  O   UNL     1      -3.102   4.051  -4.535  0.00  0.00    -0.126 OA
ENDBRANCH   6   7
BRANCH   4  10
ATOM     10  S   UNL     1      -0.604   1.916   0.840  0.00  0.00    +0.059 S 
ATOM     11  O   UNL     1      -1.802   1.157   0.920  0.00  0.00    -0.153 OA
ATOM     12  O   UNL     1      -0.147   2.732   1.910  0.00  0.00    -0.153 OA
BRANCH  10  13
ATOM     13  N   UNL     1       0.615   0.845   0.509  0.00  0.00    -0.185 NA
ATOM     14  H   UNL     1       1.436   0.870   1.024  0.00  0.00    +0.149 HD
BRANCH  13  15
ATOM     15  C   UNL     1       0.450  -0.144  -0.559  0.00  0.00    +0.032 C 
ATOM     16  C   UNL     1      -0.010   0.558  -1.838  0.00  0.00    +0.029 C 
ATOM     17  C   UNL     1       1.785  -0.846  -0.815  0.00  0.00    +0.029 C 
ATOM     18  C   UNL     1      -0.597  -1.178  -0.140  0.00  0.00    +0.029 C 
ENDBRANCH  13  15
ENDBRANCH  10  13
ENDBRANCH   4  10
BRANCH   1  19
ATOM     19  N   UNL     1      -1.154   5.458  -3.878  0.00  0.00    -0.322 N 
ATOM     20  C   UNL     1       0.022   5.355  -4.753  0.00  0.00    +0.130 C 
BRANCH  19  21
ATOM     21  C   UNL     1      -1.385   6.850  -3.468  0.00  0.00    +0.200 C 
BRANCH  21  23
ATOM     22  N   UNL     1      -2.021   8.988  -4.537  0.00  0.00    -0.312 N 
ATOM     23  C   UNL     1      -1.761   7.673  -4.673  0.00  0.00    +0.231 C 
ATOM     24  O   UNL     1      -1.831   7.151  -5.766  0.00  0.00    -0.274 OA
ATOM     25  H   UNL     1      -1.966   9.405  -3.663  0.00  0.00    +0.149 HD
BRANCH  22  27
ATOM     26  C   UNL     1      -3.892   9.666  -5.959  0.00  0.00    +0.027 C 
ATOM     27  C   UNL     1      -2.388   9.788  -5.708  0.00  0.00    +0.067 C 
ATOM     28  C   UNL     1      -2.029  11.254  -5.457  0.00  0.00    +0.027 C 
ENDBRANCH  22  27
ENDBRANCH  21  23
ENDBRANCH  19  21
ENDBRANCH   1  19
TORSDOF 8
