REMARK  Name = ZINC36501345
REMARK  16 active torsions:
REMARK  status: ('A' for Active; 'I' for Inactive)
REMARK    1  A    between atoms: C_1  and  C_2
REMARK    2  A    between atoms: C_2  and  C_3
REMARK    3  A    between atoms: C_2  and  C_4
REMARK    4  A    between atoms: C_2  and  C_5
REMARK    5  A    between atoms: C_5  and  C_6
REMARK    6  A    between atoms: C_6  and  C_7
REMARK    7  A    between atoms: C_6  and  C_8
REMARK    8  A    between atoms: C_6  and  N_9
REMARK    9  A    between atoms: C_10  and  C_12
REMARK   10  A    between atoms: C_12  and  C_14
REMARK   11  A    between atoms: C_12  and  N_28
REMARK   12  A    between atoms: N_28  and  C_29
REMARK   13  A    between atoms: C_29  and  C_30
REMARK   14  A    between atoms: C_35  and  C_37
REMARK   15  A    between atoms: C_37  and  C_38
REMARK   16  A    between atoms: C_38  and  S_39
REMARK                            x       y       z     vdW  Elec       q    Type
REMARK                         _______ _______ _______ _____ _____    ______ ____
ROOT
ATOM      1  C   UNL     1       5.334  -0.167  -4.693  0.00  0.00    +0.193 C 
ENDROOT
BRANCH   1   2
ATOM      2  C   UNL     1       5.894  -1.548  -4.916  0.00  0.00    -0.010 A 
ATOM      3  C   UNL     1       7.186  -1.793  -4.619  0.00  0.00    +0.015 A 
ATOM      4  C   UNL     1       7.758  -3.072  -4.810  0.00  0.00    -0.017 A 
ATOM      5  C   UNL     1       9.102  -3.316  -4.498  0.00  0.00    +0.008 A 
ATOM      6  C   UNL     1       9.628  -4.560  -4.692  0.00  0.00    +0.001 A 
ATOM      7  C   UNL     1       8.848  -5.593  -5.198  0.00  0.00    +0.001 A 
ATOM      8  C   UNL     1       7.535  -5.388  -5.512  0.00  0.00    +0.009 A 
ATOM      9  C   UNL     1       6.968  -4.125  -5.324  0.00  0.00    -0.010 A 
ATOM     10  C   UNL     1       5.564  -3.860  -5.647  0.00  0.00    -0.010 A 
ATOM     11  C   UNL     1       5.050  -2.562  -5.427  0.00  0.00    -0.012 A 
ATOM     12  C   UNL     1       3.706  -2.299  -5.728  0.00  0.00    +0.009 A 
ATOM     13  C   UNL     1       2.915  -3.295  -6.221  0.00  0.00    +0.001 A 
ATOM     14  C   UNL     1       3.422  -4.572  -6.430  0.00  0.00    +0.001 A 
ATOM     15  C   UNL     1       4.730  -4.857  -6.158  0.00  0.00    +0.009 A 
ENDBRANCH   1   2
BRANCH   1  17
ATOM     16  N   UNL     1       3.468  -0.336  -3.078  0.00  0.00    -0.308 N 
ATOM     17  C   UNL     1       4.771  -0.072  -3.298  0.00  0.00    +0.239 C 
ATOM     18  O   UNL     1       5.491   0.241  -2.374  0.00  0.00    -0.273 OA
ATOM     19  H   UNL     1       2.892  -0.586  -3.818  0.00  0.00    +0.149 HD
BRANCH  16  20
ATOM     20  C   UNL     1       2.921  -0.243  -1.722  0.00  0.00    +0.030 C 
ATOM     21  C   UNL     1       3.439   1.028  -1.048  0.00  0.00    +0.031 C 
ATOM     22  C   UNL     1       3.358  -1.465  -0.912  0.00  0.00    +0.031 C 
BRANCH  20  23
ATOM     23  C   UNL     1       1.393  -0.197  -1.791  0.00  0.00    +0.031 C 
BRANCH  23  25
ATOM     24  C   UNL     1       1.001   0.017  -4.250  0.00  0.00    +0.010 C 
ATOM     25  C   UNL     1       0.961   0.754  -2.909  0.00  0.00    -0.036 C 
ATOM     26  C   UNL     1       1.913   1.951  -2.956  0.00  0.00    +0.010 C 
ATOM     27  C   UNL     1      -0.463   1.245  -2.639  0.00  0.00    +0.010 C 
ENDBRANCH  23  25
ENDBRANCH  20  23
ENDBRANCH  16  20
ENDBRANCH   1  17
BRANCH   1  28
ATOM     28  N   UNL     1       6.401   0.824  -4.857  0.00  0.00    -0.279 N 
ATOM     29  C   UNL     1       7.025   0.952  -6.045  0.00  0.00    +0.218 C 
ATOM     30  O   UNL     1       7.852   1.824  -6.205  0.00  0.00    -0.276 OA
BRANCH  28  31
ATOM     31  C   UNL     1       6.789   1.677  -3.731  0.00  0.00    +0.183 C 
BRANCH  31  32
ATOM     32  C   UNL     1       7.882   1.002  -2.943  0.00  0.00    +0.122 A 
ATOM     33  C   UNL     1       9.203   1.139  -3.155  0.00  0.00    +0.046 A 
ATOM     34  C   UNL     1       9.858   0.334  -2.195  0.00  0.00    +0.041 A 
ATOM     35  C   UNL     1       8.897  -0.247  -1.454  0.00  0.00    +0.195 A 
ATOM     36  O   UNL     1       7.703   0.165  -1.908  0.00  0.00    -0.466 OA
ENDBRANCH  31  32
ENDBRANCH  28  31
BRANCH  29  37
ATOM     37  C   UNL     1       6.694   0.011  -7.175  0.00  0.00    +0.106 C 
BRANCH  37  38
ATOM     38  C   UNL     1       7.615   0.296  -8.363  0.00  0.00    +0.075 C 
BRANCH  38  39
ATOM     39  S   UNL     1       7.218  -0.837  -9.722  0.00  0.00    -0.178 S 
ATOM     40  H   UNL     1       8.081  -0.493 -10.695  0.00  0.00    +0.102 HD
ENDBRANCH  38  39
ENDBRANCH  37  38
ENDBRANCH  29  37
ENDBRANCH   1  28
TORSDOF 11
