REMARK  Name = ZINC40815171
REMARK  7 active torsions:
REMARK  status: ('A' for Active; 'I' for Inactive)
REMARK    1  A    between atoms: C_1  and  C_2
REMARK    2  A    between atoms: C_5  and  S_8
REMARK    3  A    between atoms: S_8  and  N_11
REMARK    4  A    between atoms: N_11  and  N_12
REMARK    5  A    between atoms: C_19  and  C_35
REMARK    6  A    between atoms: C_20  and  C_22
REMARK    7  A    between atoms: C_32  and  C_34
REMARK                            x       y       z     vdW  Elec       q    Type
REMARK                         _______ _______ _______ _____ _____    ______ ____
ROOT
ATOM      1  N   UNL     1       2.827  -4.681   0.602  0.00  0.00    -0.170 NA
ATOM      2  C   UNL     1       4.013  -5.174   0.785  0.00  0.00    +0.071 C 
ATOM      3  C   UNL     1       4.652  -6.148  -0.195  0.00  0.00    +0.058 C 
ATOM      4  C   UNL     1       5.345  -7.252   0.610  0.00  0.00    +0.014 C 
ATOM      5  C   UNL     1       6.497  -6.676   1.437  0.00  0.00    +0.075 C 
ATOM      6  C   UNL     1       5.992  -5.522   2.265  0.00  0.00    +0.115 A 
ATOM      7  C   UNL     1       4.846  -4.827   1.959  0.00  0.00    +0.042 A 
ATOM      8  C   UNL     1       4.685  -3.830   2.929  0.00  0.00    +0.009 A 
ATOM      9  C   UNL     1       5.746  -3.953   3.783  0.00  0.00    +0.193 A 
ATOM     10  O   UNL     1       6.517  -4.986   3.365  0.00  0.00    -0.454 OA
ATOM     11  C   UNL     1       3.567  -2.823   3.014  0.00  0.00    +0.048 C 
ENDROOT
BRANCH   9  12
ATOM     12  C   UNL     1       5.999  -3.116   4.961  0.00  0.00    +0.287 C 
ATOM     13  O   UNL     1       5.167  -2.303   5.320  0.00  0.00    -0.266 OA
ATOM     14  N   UNL     1       7.152  -3.247   5.646  0.00  0.00    -0.262 N 
ATOM     15  C   UNL     1       7.455  -2.585   6.838  0.00  0.00    +0.040 A 
ATOM     16  C   UNL     1       6.683  -1.680   7.569  0.00  0.00    +0.024 A 
ATOM     17  C   UNL     1       7.172  -1.132   8.735  0.00  0.00    +0.002 A 
ATOM     18  C   UNL     1       8.432  -1.475   9.191  0.00  0.00    +0.000 A 
ATOM     19  C   UNL     1       9.202  -2.371   8.474  0.00  0.00    +0.005 A 
ATOM     20  C   UNL     1       8.716  -2.923   7.304  0.00  0.00    -0.024 A 
ATOM     21  C   UNL     1       9.337  -3.909   6.340  0.00  0.00    +0.059 C 
ATOM     22  C   UNL     1       8.270  -4.109   5.251  0.00  0.00    +0.083 C 
ATOM     23  C   UNL     1       8.818  -3.678   3.889  0.00  0.00    +0.029 C 
ENDBRANCH   9  12
BRANCH   1  24
ATOM     24  N   UNL     1       2.083  -5.046  -0.527  0.00  0.00    -0.136 N 
ATOM     25  H   UNL     1       2.455  -5.667  -1.173  0.00  0.00    +0.197 HD
BRANCH  24  26
ATOM     26  S   UNL     1       0.570  -4.416  -0.761  0.00  0.00    +0.086 S 
ATOM     27  O   UNL     1      -0.169  -4.685   0.423  0.00  0.00    -0.149 OA
ATOM     28  O   UNL     1       0.141  -4.855  -2.043  0.00  0.00    -0.149 OA
BRANCH  26  33
ATOM     29  C   UNL     1       1.161   1.579  -1.098  0.00  0.00    +0.044 C 
ATOM     30  C   UNL     1       1.013   0.082  -1.014  0.00  0.00    -0.050 A 
ATOM     31  C   UNL     1       1.095  -0.687  -2.160  0.00  0.00    +0.005 A 
ATOM     32  C   UNL     1       0.960  -2.060  -2.083  0.00  0.00    +0.029 A 
ATOM     33  C   UNL     1       0.743  -2.666  -0.859  0.00  0.00    +0.110 A 
ATOM     34  C   UNL     1       0.662  -1.897   0.287  0.00  0.00    +0.029 A 
ATOM     35  C   UNL     1       0.802  -0.524   0.210  0.00  0.00    +0.005 A 
ENDBRANCH  26  33
ENDBRANCH  24  26
ENDBRANCH   1  24
TORSDOF 4
