REMARK  Name = ZINC13024634
REMARK  15 active torsions:
REMARK  status: ('A' for Active; 'I' for Inactive)
REMARK    1  A    between atoms: C_1  and  C_2
REMARK    2  A    between atoms: C_2  and  C_3
REMARK    3  A    between atoms: C_3  and  C_4
REMARK    4  A    between atoms: C_3  and  C_5
REMARK    5  A    between atoms: C_3  and  N_6
REMARK    6  A    between atoms: C_7  and  C_9
REMARK    7  A    between atoms: C_9  and  C_11
REMARK    8  A    between atoms: C_9  and  N_19
REMARK    9  A    between atoms: C_14  and  O_17
REMARK   10  A    between atoms: O_17  and  C_18
REMARK   11  A    between atoms: N_19  and  C_20
REMARK   12  A    between atoms: C_25  and  C_26
REMARK   13  A    between atoms: C_26  and  C_28
REMARK   14  A    between atoms: C_29  and  C_31
REMARK   15  A    between atoms: C_31  and  N_32
REMARK                            x       y       z     vdW  Elec       q    Type
REMARK                         _______ _______ _______ _____ _____    ______ ____
ROOT
ATOM      1  N   UNL     1      -5.506   3.514  -1.584  0.00  0.00    -0.253 N 
ATOM      2  C   UNL     1      -4.346   4.062  -1.171  0.00  0.00    +0.242 C 
ATOM      3  O   UNL     1      -3.516   4.409  -1.984  0.00  0.00    -0.273 OA
ENDROOT
BRANCH   1   4
ATOM      4  C   UNL     1      -6.458   3.116  -0.650  0.00  0.00    +0.048 A 
ATOM      5  C   UNL     1      -7.444   4.003  -0.237  0.00  0.00    +0.024 A 
ATOM      6  C   UNL     1      -8.387   3.606   0.689  0.00  0.00    +0.002 A 
ATOM      7  C   UNL     1      -8.361   2.323   1.214  0.00  0.00    +0.001 A 
ATOM      8  C   UNL     1      -7.393   1.428   0.818  0.00  0.00    +0.013 A 
ATOM      9  C   UNL     1      -6.431   1.813  -0.125  0.00  0.00    +0.039 A 
BRANCH   9  10
ATOM     10  C   UNL     1      -5.399   0.863  -0.557  0.00  0.00    +0.162 C 
ATOM     11  O   UNL     1      -4.566   1.202  -1.370  0.00  0.00    -0.292 OA
ATOM     12  C   UNL     1      -5.375  -0.533   0.009  0.00  0.00    +0.091 C 
ENDBRANCH   9  10
ENDBRANCH   1   4
BRANCH   1  13
ATOM     13  C   UNL     1      -5.765   3.338  -3.015  0.00  0.00    +0.197 C 
BRANCH  13  14
ATOM     14  C   UNL     1      -6.158   1.908  -3.282  0.00  0.00    -0.018 A 
ATOM     15  C   UNL     1      -5.356   1.109  -4.075  0.00  0.00    +0.009 A 
ATOM     16  C   UNL     1      -5.711  -0.204  -4.317  0.00  0.00    +0.046 A 
ATOM     17  C   UNL     1      -6.880  -0.717  -3.773  0.00  0.00    +0.120 A 
ATOM     18  C   UNL     1      -7.686   0.089  -2.983  0.00  0.00    +0.046 A 
ATOM     19  C   UNL     1      -7.324   1.400  -2.739  0.00  0.00    +0.009 A 
BRANCH  17  20
ATOM     20  O   UNL     1      -7.235  -2.006  -4.015  0.00  0.00    -0.495 OA
ATOM     21  C   UNL     1      -6.357  -2.777  -4.838  0.00  0.00    +0.277 C 
ENDBRANCH  17  20
ENDBRANCH  13  14
BRANCH  13  23
ATOM     22  N   UNL     1      -7.296   4.265  -4.723  0.00  0.00    -0.308 N 
ATOM     23  C   UNL     1      -6.884   4.255  -3.439  0.00  0.00    +0.239 C 
ATOM     24  O   UNL     1      -7.413   4.983  -2.627  0.00  0.00    -0.273 OA
ATOM     25  H   UNL     1      -6.873   3.682  -5.373  0.00  0.00    +0.149 HD
BRANCH  22  26
ATOM     26  C   UNL     1      -8.384   5.156  -5.135  0.00  0.00    +0.029 C 
ATOM     27  C   UNL     1      -9.648   4.818  -4.343  0.00  0.00    +0.031 C 
ATOM     28  C   UNL     1      -7.985   6.607  -4.864  0.00  0.00    +0.031 C 
BRANCH  26  30
ATOM     29  C   UNL     1      -9.790   5.902  -7.061  0.00  0.00    +0.006 C 
ATOM     30  C   UNL     1      -8.654   4.972  -6.630  0.00  0.00    +0.022 C 
ENDBRANCH  26  30
ENDBRANCH  22  26
ENDBRANCH  13  23
ENDBRANCH   1  13
BRANCH   2  31
ATOM     31  C   UNL     1      -4.080   4.242   0.301  0.00  0.00    +0.242 C 
BRANCH  31  32
ATOM     32  N   UNL     1      -2.761   4.853   0.488  0.00  0.00    -0.235 N 
ATOM     33  C   UNL     1      -1.563   4.195   0.632  0.00  0.00    +0.090 A 
ATOM     34  C   UNL     1      -1.192   2.855   0.648  0.00  0.00    +0.029 A 
ATOM     35  C   UNL     1       0.120   2.515   0.819  0.00  0.00    +0.002 A 
ATOM     36  C   UNL     1       1.091   3.497   0.968  0.00  0.00    +0.002 A 
ATOM     37  C   UNL     1       0.754   4.819   0.950  0.00  0.00    +0.032 A 
ATOM     38  C   UNL     1      -0.585   5.194   0.781  0.00  0.00    +0.113 A 
ATOM     39  N   UNL     1      -1.208   6.388   0.724  0.00  0.00    -0.129 NA
ATOM     40  N   UNL     1      -2.473   6.224   0.554  0.00  0.00    -0.064 NA
ENDBRANCH  31  32
ENDBRANCH   2  31
TORSDOF 10
