REMARK  Name = ZINC20322442
REMARK  8 active torsions:
REMARK  status: ('A' for Active; 'I' for Inactive)
REMARK    1  A    between atoms: C_1  and  C_2
REMARK    2  A    between atoms: C_5  and  C_30
REMARK    3  A    between atoms: C_6  and  N_8
REMARK    4  A    between atoms: N_8  and  C_9
REMARK    5  A    between atoms: C_11  and  N_26
REMARK    6  A    between atoms: N_26  and  C_27
REMARK    7  A    between atoms: C_27  and  C_28
REMARK    8  A    between atoms: C_28  and  O_29
REMARK                            x       y       z     vdW  Elec       q    Type
REMARK                         _______ _______ _______ _____ _____    ______ ____
ROOT
ATOM      1  C   UNL     1       1.328  -2.092  -0.122  0.00  0.00    +0.045 A 
ATOM      2  C   UNL     1       1.194  -0.705  -0.265  0.00  0.00    +0.049 A 
ATOM      3  C   UNL     1      -0.008  -0.033  -0.352  0.00  0.00    +0.059 A 
ATOM      4  C   UNL     1      -1.261  -0.797  -0.304  0.00  0.00    +0.135 A 
ATOM      5  C   UNL     1      -1.087  -2.237  -0.159  0.00  0.00    +0.063 A 
ATOM      6  C   UNL     1       0.184  -2.903  -0.068  0.00  0.00    +0.056 A 
ATOM      7  C   UNL     1       0.154  -4.309   0.068  0.00  0.00    +0.196 C 
ATOM      8  O   UNL     1       1.186  -4.955   0.150  0.00  0.00    -0.287 OA
ATOM      9  C   UNL     1      -1.167  -4.976   0.107  0.00  0.00    +0.033 A 
ATOM     10  C   UNL     1      -1.219  -6.369   0.241  0.00  0.00    +0.012 A 
ATOM     11  C   UNL     1      -2.432  -7.014   0.285  0.00  0.00    +0.001 A 
ATOM     12  C   UNL     1      -3.619  -6.300   0.196  0.00  0.00    +0.001 A 
ATOM     13  C   UNL     1      -3.599  -4.931   0.062  0.00  0.00    +0.012 A 
ATOM     14  C   UNL     1      -2.380  -4.250   0.014  0.00  0.00    +0.031 A 
ATOM     15  C   UNL     1      -2.340  -2.796  -0.130  0.00  0.00    +0.176 A 
ATOM     16  O   UNL     1      -3.153  -1.740  -0.251  0.00  0.00    -0.353 OA
ATOM     17  N   UNL     1      -2.557  -0.667  -0.344  0.00  0.00    -0.076 NA
ENDROOT
BRANCH   1  18
ATOM     18  N   UNL     1       2.582  -2.660  -0.038  0.00  0.00    -0.314 N 
ATOM     19  H   UNL     1       2.686  -3.744   0.115  0.00  0.00    +0.152 HD
BRANCH  18  25
ATOM     20  C   UNL     1       6.295  -0.937  -2.760  0.00  0.00    +0.044 C 
ATOM     21  C   UNL     1       5.541  -1.004  -1.457  0.00  0.00    -0.049 A 
ATOM     22  C   UNL     1       5.977  -0.271  -0.368  0.00  0.00    +0.004 A 
ATOM     23  C   UNL     1       5.288  -0.330   0.830  0.00  0.00    +0.005 A 
ATOM     24  C   UNL     1       4.159  -1.117   0.941  0.00  0.00    -0.029 A 
ATOM     25  C   UNL     1       3.721  -1.859  -0.149  0.00  0.00    +0.035 A 
ATOM     26  C   UNL     1       4.415  -1.797  -1.351  0.00  0.00    +0.027 A 
ATOM     27  C   UNL     1       3.405  -1.175   2.245  0.00  0.00    +0.045 C 
ENDBRANCH  18  25
ENDBRANCH   1  18
BRANCH   3  28
ATOM     28  N   UNL     1      -0.033   1.340  -0.487  0.00  0.00    -0.340 N 
ATOM     29  H   UNL     1      -0.995   1.869  -0.560  0.00  0.00    +0.146 HD
BRANCH  28  30
ATOM     30  C   UNL     1       1.222   2.094  -0.534  0.00  0.00    +0.129 C 
BRANCH  30  31
ATOM     31  C   UNL     1       0.916   3.585  -0.688  0.00  0.00    +0.174 C 
BRANCH  31  32
ATOM     32  O   UNL     1       0.237   4.055   0.479  0.00  0.00    -0.393 OA
ATOM     33  H   UNL     1      -0.067   5.109   0.551  0.00  0.00    +0.209 HD
ENDBRANCH  31  32
ENDBRANCH  30  31
ENDBRANCH  28  30
ENDBRANCH   3  28
TORSDOF 6
